MODEL 1
REMARK VINA RESULT:      -8.2      0.000      0.000
REMARK  9 active torsions:
REMARK  status: ('A' for Active; 'I' for Inactive)
REMARK    1  A    between atoms: C2_2  and  C3_3 
REMARK       I    between atoms: C3_3  and  N1_5 
REMARK    2  A    between atoms: N1_5  and  C4_6 
REMARK    3  A    between atoms: C7_9  and  N2_10 
REMARK    4  A    between atoms: N2_10  and  C8_11 
REMARK    5  A    between atoms: C10_13  and  C11_14 
REMARK    6  A    between atoms: C11_14  and  N3_15 
REMARK    7  A    between atoms: N3_15  and  C12_16 
REMARK    8  A    between atoms: C12_16  and  C13_17 
REMARK    9  A    between atoms: C24_30  and  O2_31 
ROOT
HETATM    1  N2  UNL     1      20.166   0.003  54.139  1.00  0.00    -0.369 N 
HETATM    2  H8  UNL     1      19.704   0.646  54.817  1.00  0.00     0.161 HD
ENDROOT
BRANCH   1   3
HETATM    3  C7  UNL     1      21.510  -0.354  54.334  1.00  0.00     0.137 A 
HETATM    4  C6  UNL     1      22.516   0.193  53.561  1.00  0.00     0.039 A 
HETATM    5  C5  UNL     1      22.533   1.157  52.474  1.00  0.00     0.045 A 
HETATM    6  C23 UNL     1      23.822  -0.186  53.783  1.00  0.00     0.084 A 
HETATM    7  C4  UNL     1      23.778   1.364  52.048  1.00  0.00     0.048 A 
HETATM    8  C24 UNL     1      24.710   0.534  52.835  1.00  0.00     0.223 A 
HETATM    9  N5  UNL     1      24.172  -1.075  54.731  1.00  0.00    -0.242 NA
HETATM   10  C22 UNL     1      23.175  -1.588  55.466  1.00  0.00     0.235 A 
HETATM   11  N4  UNL     1      21.916  -1.230  55.260  1.00  0.00    -0.224 NA
BRANCH   7  12
HETATM   12  N1  UNL     1      24.283   2.208  51.022  1.00  0.00    -0.328 N 
HETATM   13  C3  UNL     1      24.252   3.618  51.102  1.00  0.00     0.221 C 
HETATM   14  O1  UNL     1      23.768   4.191  52.103  1.00  0.00    -0.273 OA
HETATM   15  H6  UNL     1      24.700   1.742  50.162  1.00  0.00     0.168 HD
BRANCH  13  16
HETATM   16  C2  UNL     1      24.813   4.405  49.964  1.00  0.00     0.098 C 
HETATM   17  C1  UNL     1      26.057   3.780  49.409  1.00  0.00     0.014 C 
ENDBRANCH  13  16
ENDBRANCH   7  12
BRANCH   8  18
HETATM   18  O2  UNL     1      25.702   1.248  53.472  1.00  0.00    -0.378 OA
HETATM   19  C25 UNL     1      26.978   0.814  53.122  1.00  0.00     0.203 C 
ENDBRANCH   8  18
ENDBRANCH   1   3
BRANCH   1  20
HETATM   20  C8  UNL     1      19.447  -0.531  53.002  1.00  0.00     0.087 C 
HETATM   21  C9  UNL     1      19.163   0.531  51.954  1.00  0.00     0.032 C 
HETATM   22  C10 UNL     1      18.116  -0.157  51.042  1.00  0.00     0.016 C 
HETATM   23  C19 UNL     1      17.281  -0.930  52.041  1.00  0.00     0.012 C 
HETATM   24  C20 UNL     1      18.082  -1.044  53.320  1.00  0.00     0.004 C 
HETATM   25  C21 UNL     1      18.100  -2.509  53.728  1.00  0.00     0.012 C 
BRANCH  22  26
HETATM   26  C11 UNL     1      17.403   0.944  50.346  1.00  0.00     0.274 C 
BRANCH  26  27
HETATM   27  N3  UNL     1      17.947   1.428  49.134  1.00  0.00     0.087 N 
HETATM   28  H15 UNL     1      18.665   0.746  48.804  1.00  0.00     0.316 HD
BRANCH  27  29
HETATM   29  C12 UNL     1      18.492   2.736  49.103  1.00  0.00     0.308 C 
BRANCH  29  30
HETATM   30  C13 UNL     1      19.895   2.618  48.542  1.00  0.00    -0.030 A 
HETATM   31  C14 UNL     1      20.693   1.540  48.940  1.00  0.00     0.009 A 
HETATM   32  C15 UNL     1      21.975   1.371  48.471  1.00  0.00     0.001 A 
HETATM   33  C16 UNL     1      22.490   2.288  47.587  1.00  0.00     0.000 A 
HETATM   34  C17 UNL     1      21.716   3.372  47.175  1.00  0.00     0.001 A 
HETATM   35  C18 UNL     1      20.424   3.543  47.647  1.00  0.00     0.009 A 
ENDBRANCH  29  30
ENDBRANCH  27  29
ENDBRANCH  26  27
ENDBRANCH  22  26
ENDBRANCH   1  20
TORSDOF 9
ENDMDL
MODEL 2
REMARK VINA RESULT:      -8.0      3.010      6.461
REMARK  9 active torsions:
REMARK  status: ('A' for Active; 'I' for Inactive)
REMARK    1  A    between atoms: C2_2  and  C3_3 
REMARK       I    between atoms: C3_3  and  N1_5 
REMARK    2  A    between atoms: N1_5  and  C4_6 
REMARK    3  A    between atoms: C7_9  and  N2_10 
REMARK    4  A    between atoms: N2_10  and  C8_11 
REMARK    5  A    between atoms: C10_13  and  C11_14 
REMARK    6  A    between atoms: C11_14  and  N3_15 
REMARK    7  A    between atoms: N3_15  and  C12_16 
REMARK    8  A    between atoms: C12_16  and  C13_17 
REMARK    9  A    between atoms: C24_30  and  O2_31 
ROOT
HETATM    1  N2  UNL     1      23.353   3.060  50.111  1.00  0.00    -0.369 N 
HETATM    2  H8  UNL     1      23.920   2.811  49.272  1.00  0.00     0.161 HD
ENDROOT
BRANCH   1   3
HETATM    3  C7  UNL     1      23.044   2.065  51.053  1.00  0.00     0.137 A 
HETATM    4  C6  UNL     1      24.037   1.376  51.720  1.00  0.00     0.039 A 
HETATM    5  C5  UNL     1      25.489   1.431  51.689  1.00  0.00     0.045 A 
HETATM    6  C23 UNL     1      23.690   0.407  52.636  1.00  0.00     0.084 A 
HETATM    7  C4  UNL     1      26.011   0.546  52.537  1.00  0.00     0.048 A 
HETATM    8  C24 UNL     1      24.923  -0.185  53.215  1.00  0.00     0.223 A 
HETATM    9  N5  UNL     1      22.412   0.093  52.917  1.00  0.00    -0.242 NA
HETATM   10  C22 UNL     1      21.469   0.779  52.255  1.00  0.00     0.235 A 
HETATM   11  N4  UNL     1      21.793   1.713  51.372  1.00  0.00    -0.224 NA
BRANCH   7  12
HETATM   12  N1  UNL     1      27.364   0.240  52.849  1.00  0.00    -0.328 N 
HETATM   13  C3  UNL     1      28.163   1.054  53.683  1.00  0.00     0.221 C 
HETATM   14  O1  UNL     1      27.699   2.099  54.191  1.00  0.00    -0.273 OA
HETATM   15  H6  UNL     1      27.778  -0.644  52.428  1.00  0.00     0.168 HD
BRANCH  13  16
HETATM   16  C2  UNL     1      29.572   0.634  53.942  1.00  0.00     0.098 C 
HETATM   17  C1  UNL     1      29.830  -0.772  53.492  1.00  0.00     0.014 C 
ENDBRANCH  13  16
ENDBRANCH   7  12
BRANCH   8  18
HETATM   18  O2  UNL     1      24.958  -0.102  54.590  1.00  0.00    -0.378 OA
HETATM   19  C25 UNL     1      24.658  -1.316  55.204  1.00  0.00     0.203 C 
ENDBRANCH   8  18
ENDBRANCH   1   3
BRANCH   1  20
HETATM   20  C8  UNL     1      22.879   4.411  50.322  1.00  0.00     0.087 C 
HETATM   21  C9  UNL     1      22.844   5.213  49.033  1.00  0.00     0.032 C 
HETATM   22  C10 UNL     1      22.663   6.667  49.539  1.00  0.00     0.016 C 
HETATM   23  C19 UNL     1      23.517   6.680  50.789  1.00  0.00     0.012 C 
HETATM   24  C20 UNL     1      23.757   5.243  51.197  1.00  0.00     0.004 C 
HETATM   25  C21 UNL     1      23.392   5.111  52.668  1.00  0.00     0.012 C 
BRANCH  22  26
HETATM   26  C11 UNL     1      23.146   7.539  48.438  1.00  0.00     0.274 C 
BRANCH  26  27
HETATM   27  N3  UNL     1      24.336   7.172  47.771  1.00  0.00     0.087 N 
HETATM   28  H15 UNL     1      24.537   6.171  47.989  1.00  0.00     0.316 HD
BRANCH  27  29
HETATM   29  C12 UNL     1      25.506   7.944  47.986  1.00  0.00     0.308 C 
BRANCH  29  30
HETATM   30  C13 UNL     1      26.663   6.971  48.103  1.00  0.00    -0.030 A 
HETATM   31  C14 UNL     1      27.920   7.359  47.626  1.00  0.00     0.009 A 
HETATM   32  C15 UNL     1      29.014   6.527  47.700  1.00  0.00     0.001 A 
HETATM   33  C16 UNL     1      28.870   5.279  48.256  1.00  0.00     0.000 A 
HETATM   34  C17 UNL     1      27.627   4.869  48.738  1.00  0.00     0.001 A 
HETATM   35  C18 UNL     1      26.525   5.706  48.665  1.00  0.00     0.009 A 
ENDBRANCH  29  30
ENDBRANCH  27  29
ENDBRANCH  26  27
ENDBRANCH  22  26
ENDBRANCH   1  20
TORSDOF 9
ENDMDL
MODEL 3
REMARK VINA RESULT:      -7.9      3.669      8.289
REMARK  9 active torsions:
REMARK  status: ('A' for Active; 'I' for Inactive)
REMARK    1  A    between atoms: C2_2  and  C3_3 
REMARK       I    between atoms: C3_3  and  N1_5 
REMARK    2  A    between atoms: N1_5  and  C4_6 
REMARK    3  A    between atoms: C7_9  and  N2_10 
REMARK    4  A    between atoms: N2_10  and  C8_11 
REMARK    5  A    between atoms: C10_13  and  C11_14 
REMARK    6  A    between atoms: C11_14  and  N3_15 
REMARK    7  A    between atoms: N3_15  and  C12_16 
REMARK    8  A    between atoms: C12_16  and  C13_17 
REMARK    9  A    between atoms: C24_30  and  O2_31 
ROOT
HETATM    1  N2  UNL     1      23.984   5.166  52.069  1.00  0.00    -0.369 N 
HETATM    2  H8  UNL     1      24.321   5.639  52.935  1.00  0.00     0.161 HD
ENDROOT
BRANCH   1   3
HETATM    3  C7  UNL     1      23.099   4.082  52.175  1.00  0.00     0.137 A 
HETATM    4  C6  UNL     1      23.545   2.825  52.537  1.00  0.00     0.039 A 
HETATM    5  C5  UNL     1      24.850   2.285  52.877  1.00  0.00     0.045 A 
HETATM    6  C23 UNL     1      22.643   1.788  52.627  1.00  0.00     0.084 A 
HETATM    7  C4  UNL     1      24.761   0.986  53.162  1.00  0.00     0.048 A 
HETATM    8  C24 UNL     1      23.358   0.550  53.030  1.00  0.00     0.223 A 
HETATM    9  N5  UNL     1      21.329   1.939  52.377  1.00  0.00    -0.242 NA
HETATM   10  C22 UNL     1      20.926   3.169  52.029  1.00  0.00     0.235 A 
HETATM   11  N4  UNL     1      21.785   4.174  51.939  1.00  0.00    -0.224 NA
BRANCH   7  12
HETATM   12  N1  UNL     1      25.756   0.046  53.544  1.00  0.00    -0.328 N 
HETATM   13  C3  UNL     1      26.712  -0.471  52.640  1.00  0.00     0.221 C 
HETATM   14  O1  UNL     1      26.719  -0.112  51.442  1.00  0.00    -0.273 OA
HETATM   15  H6  UNL     1      25.770  -0.272  54.558  1.00  0.00     0.168 HD
BRANCH  13  16
HETATM   16  C2  UNL     1      27.712  -1.453  53.153  1.00  0.00     0.098 C 
HETATM   17  C1  UNL     1      29.026  -0.803  53.470  1.00  0.00     0.014 C 
ENDBRANCH  13  16
ENDBRANCH   7  12
BRANCH   8  18
HETATM   18  O2  UNL     1      22.834  -0.020  54.170  1.00  0.00    -0.378 OA
HETATM   19  C25 UNL     1      22.136  -1.196  53.905  1.00  0.00     0.203 C 
ENDBRANCH   8  18
ENDBRANCH   1   3
BRANCH   1  20
HETATM   20  C8  UNL     1      24.413   5.609  50.759  1.00  0.00     0.087 C 
HETATM   21  C9  UNL     1      25.497   4.716  50.180  1.00  0.00     0.032 C 
HETATM   22  C10 UNL     1      26.032   5.554  48.991  1.00  0.00     0.016 C 
HETATM   23  C19 UNL     1      25.983   6.962  49.544  1.00  0.00     0.012 C 
HETATM   24  C20 UNL     1      25.059   6.954  50.742  1.00  0.00     0.004 C 
HETATM   25  C21 UNL     1      24.047   8.074  50.557  1.00  0.00     0.012 C 
BRANCH  22  26
HETATM   26  C11 UNL     1      27.395   5.034  48.714  1.00  0.00     0.274 C 
BRANCH  26  27
HETATM   27  N3  UNL     1      28.493   5.900  48.923  1.00  0.00     0.087 N 
HETATM   28  H15 UNL     1      28.170   6.702  49.507  1.00  0.00     0.316 HD
BRANCH  27  29
HETATM   29  C12 UNL     1      29.198   6.393  47.796  1.00  0.00     0.308 C 
BRANCH  29  30
HETATM   30  C13 UNL     1      30.653   6.011  47.981  1.00  0.00    -0.030 A 
HETATM   31  C14 UNL     1      31.093   4.775  47.493  1.00  0.00     0.009 A 
HETATM   32  C15 UNL     1      32.399   4.363  47.626  1.00  0.00     0.001 A 
HETATM   33  C16 UNL     1      33.299   5.187  48.257  1.00  0.00     0.000 A 
HETATM   34  C17 UNL     1      32.886   6.424  48.752  1.00  0.00     0.001 A 
HETATM   35  C18 UNL     1      31.570   6.839  48.619  1.00  0.00     0.009 A 
ENDBRANCH  29  30
ENDBRANCH  27  29
ENDBRANCH  26  27
ENDBRANCH  22  26
ENDBRANCH   1  20
TORSDOF 9
ENDMDL
MODEL 4
REMARK VINA RESULT:      -7.8      3.706      8.202
REMARK  9 active torsions:
REMARK  status: ('A' for Active; 'I' for Inactive)
REMARK    1  A    between atoms: C2_2  and  C3_3 
REMARK       I    between atoms: C3_3  and  N1_5 
REMARK    2  A    between atoms: N1_5  and  C4_6 
REMARK    3  A    between atoms: C7_9  and  N2_10 
REMARK    4  A    between atoms: N2_10  and  C8_11 
REMARK    5  A    between atoms: C10_13  and  C11_14 
REMARK    6  A    between atoms: C11_14  and  N3_15 
REMARK    7  A    between atoms: N3_15  and  C12_16 
REMARK    8  A    between atoms: C12_16  and  C13_17 
REMARK    9  A    between atoms: C24_30  and  O2_31 
ROOT
HETATM    1  N2  UNL     1      23.935   5.164  52.083  1.00  0.00    -0.369 N 
HETATM    2  H8  UNL     1      24.287   5.639  52.942  1.00  0.00     0.161 HD
ENDROOT
BRANCH   1   3
HETATM    3  C7  UNL     1      23.023   4.103  52.205  1.00  0.00     0.137 A 
HETATM    4  C6  UNL     1      23.444   2.832  52.543  1.00  0.00     0.039 A 
HETATM    5  C5  UNL     1      24.742   2.252  52.840  1.00  0.00     0.045 A 
HETATM    6  C23 UNL     1      22.516   1.819  52.650  1.00  0.00     0.084 A 
HETATM    7  C4  UNL     1      24.625   0.954  53.116  1.00  0.00     0.048 A 
HETATM    8  C24 UNL     1      23.207   0.558  53.021  1.00  0.00     0.223 A 
HETATM    9  N5  UNL     1      21.201   2.009  52.439  1.00  0.00    -0.242 NA
HETATM   10  C22 UNL     1      20.822   3.253  52.114  1.00  0.00     0.235 A 
HETATM   11  N4  UNL     1      21.706   4.234  52.008  1.00  0.00    -0.224 NA
BRANCH   7  12
HETATM   12  N1  UNL     1      25.605  -0.017  53.461  1.00  0.00    -0.328 N 
HETATM   13  C3  UNL     1      26.635  -0.416  52.579  1.00  0.00     0.221 C 
HETATM   14  O1  UNL     1      26.727   0.083  51.436  1.00  0.00    -0.273 OA
HETATM   15  H6  UNL     1      25.546  -0.453  54.429  1.00  0.00     0.168 HD
BRANCH  13  16
HETATM   16  C2  UNL     1      27.610  -1.444  53.049  1.00  0.00     0.098 C 
HETATM   17  C1  UNL     1      28.910  -0.831  53.476  1.00  0.00     0.014 C 
ENDBRANCH  13  16
ENDBRANCH   7  12
BRANCH   8  18
HETATM   18  O2  UNL     1      22.701  -0.008  54.171  1.00  0.00    -0.378 OA
HETATM   19  C25 UNL     1      22.019  -1.197  53.924  1.00  0.00     0.203 C 
ENDBRANCH   8  18
ENDBRANCH   1   3
BRANCH   1  20
HETATM   20  C8  UNL     1      24.369   5.580  50.765  1.00  0.00     0.087 C 
HETATM   21  C9  UNL     1      25.428   4.653  50.194  1.00  0.00     0.032 C 
HETATM   22  C10 UNL     1      25.980   5.463  48.993  1.00  0.00     0.016 C 
HETATM   23  C19 UNL     1      25.968   6.879  49.528  1.00  0.00     0.012 C 
HETATM   24  C20 UNL     1      25.049   6.908  50.730  1.00  0.00     0.004 C 
HETATM   25  C21 UNL     1      24.065   8.051  50.534  1.00  0.00     0.012 C 
BRANCH  22  26
HETATM   26  C11 UNL     1      27.329   4.906  48.717  1.00  0.00     0.274 C 
BRANCH  26  27
HETATM   27  N3  UNL     1      28.453   5.724  48.975  1.00  0.00     0.087 N 
HETATM   28  H15 UNL     1      28.151   6.507  49.596  1.00  0.00     0.316 HD
BRANCH  27  29
HETATM   29  C12 UNL     1      29.181   6.248  47.878  1.00  0.00     0.308 C 
BRANCH  29  30
HETATM   30  C13 UNL     1      29.529   7.683  48.223  1.00  0.00    -0.030 A 
HETATM   31  C14 UNL     1      28.663   8.704  47.816  1.00  0.00     0.009 A 
HETATM   32  C15 UNL     1      28.917  10.027  48.094  1.00  0.00     0.001 A 
HETATM   33  C16 UNL     1      30.053  10.359  48.791  1.00  0.00     0.000 A 
HETATM   34  C17 UNL     1      30.933   9.360  49.207  1.00  0.00     0.001 A 
HETATM   35  C18 UNL     1      30.679   8.026  48.928  1.00  0.00     0.009 A 
ENDBRANCH  29  30
ENDBRANCH  27  29
ENDBRANCH  26  27
ENDBRANCH  22  26
ENDBRANCH   1  20
TORSDOF 9
ENDMDL
MODEL 5
REMARK VINA RESULT:      -7.8      6.213     10.426
REMARK  9 active torsions:
REMARK  status: ('A' for Active; 'I' for Inactive)
REMARK    1  A    between atoms: C2_2  and  C3_3 
REMARK       I    between atoms: C3_3  and  N1_5 
REMARK    2  A    between atoms: N1_5  and  C4_6 
REMARK    3  A    between atoms: C7_9  and  N2_10 
REMARK    4  A    between atoms: N2_10  and  C8_11 
REMARK    5  A    between atoms: C10_13  and  C11_14 
REMARK    6  A    between atoms: C11_14  and  N3_15 
REMARK    7  A    between atoms: N3_15  and  C12_16 
REMARK    8  A    between atoms: C12_16  and  C13_17 
REMARK    9  A    between atoms: C24_30  and  O2_31 
ROOT
HETATM    1  N2  UNL     1      27.270   6.978  47.907  1.00  0.00    -0.369 N 
HETATM    2  H8  UNL     1      27.081   6.911  46.884  1.00  0.00     0.161 HD
ENDROOT
BRANCH   1   3
HETATM    3  C7  UNL     1      28.436   7.622  48.352  1.00  0.00     0.137 A 
HETATM    4  C6  UNL     1      29.659   6.980  48.340  1.00  0.00     0.039 A 
HETATM    5  C5  UNL     1      30.090   5.654  47.932  1.00  0.00     0.045 A 
HETATM    6  C23 UNL     1      30.777   7.648  48.788  1.00  0.00     0.084 A 
HETATM    7  C4  UNL     1      31.402   5.509  48.117  1.00  0.00     0.048 A 
HETATM    8  C24 UNL     1      31.959   6.756  48.676  1.00  0.00     0.223 A 
HETATM    9  N5  UNL     1      30.738   8.914  49.243  1.00  0.00    -0.242 NA
HETATM   10  C22 UNL     1      29.538   9.512  49.242  1.00  0.00     0.235 A 
HETATM   11  N4  UNL     1      28.456   8.878  48.814  1.00  0.00    -0.224 NA
BRANCH   7  12
HETATM   12  N1  UNL     1      32.261   4.405  47.868  1.00  0.00    -0.328 N 
HETATM   13  C3  UNL     1      32.810   4.131  46.594  1.00  0.00     0.221 C 
HETATM   14  O1  UNL     1      32.555   4.868  45.616  1.00  0.00    -0.273 OA
HETATM   15  H6  UNL     1      32.492   3.766  48.685  1.00  0.00     0.168 HD
BRANCH  13  16
HETATM   16  C2  UNL     1      33.702   2.943  46.449  1.00  0.00     0.098 C 
HETATM   17  C1  UNL     1      35.140   3.336  46.287  1.00  0.00     0.014 C 
ENDBRANCH  13  16
ENDBRANCH   7  12
BRANCH   8  18
HETATM   18  O2  UNL     1      32.973   7.308  47.923  1.00  0.00    -0.378 OA
HETATM   19  C25 UNL     1      34.169   7.405  48.632  1.00  0.00     0.203 C 
ENDBRANCH   8  18
ENDBRANCH   1   3
BRANCH   1  20
HETATM   20  C8  UNL     1      26.352   6.420  48.877  1.00  0.00     0.087 C 
HETATM   21  C9  UNL     1      26.745   5.012  49.292  1.00  0.00     0.032 C 
HETATM   22  C10 UNL     1      25.476   4.504  50.023  1.00  0.00     0.016 C 
HETATM   23  C19 UNL     1      24.364   5.107  49.192  1.00  0.00     0.012 C 
HETATM   24  C20 UNL     1      24.960   6.231  48.373  1.00  0.00     0.004 C 
HETATM   25  C21 UNL     1      24.101   7.468  48.585  1.00  0.00     0.012 C 
BRANCH  22  26
HETATM   26  C11 UNL     1      25.557   3.021  49.985  1.00  0.00     0.274 C 
BRANCH  26  27
HETATM   27  N3  UNL     1      26.535   2.386  50.783  1.00  0.00     0.087 N 
HETATM   28  H15 UNL     1      26.761   1.464  50.349  1.00  0.00     0.316 HD
BRANCH  27  29
HETATM   29  C12 UNL     1      26.278   2.206  52.164  1.00  0.00     0.308 C 
BRANCH  29  30
HETATM   30  C13 UNL     1      27.269   1.176  52.669  1.00  0.00    -0.030 A 
HETATM   31  C14 UNL     1      26.973  -0.182  52.506  1.00  0.00     0.009 A 
HETATM   32  C15 UNL     1      27.827  -1.170  52.940  1.00  0.00     0.001 A 
HETATM   33  C16 UNL     1      29.004  -0.815  53.553  1.00  0.00     0.000 A 
HETATM   34  C17 UNL     1      29.322   0.531  53.728  1.00  0.00     0.001 A 
HETATM   35  C18 UNL     1      28.463   1.527  53.291  1.00  0.00     0.009 A 
ENDBRANCH  29  30
ENDBRANCH  27  29
ENDBRANCH  26  27
ENDBRANCH  22  26
ENDBRANCH   1  20
TORSDOF 9
ENDMDL
MODEL 6
REMARK VINA RESULT:      -7.8      1.977      6.090
REMARK  9 active torsions:
REMARK  status: ('A' for Active; 'I' for Inactive)
REMARK    1  A    between atoms: C2_2  and  C3_3 
REMARK       I    between atoms: C3_3  and  N1_5 
REMARK    2  A    between atoms: N1_5  and  C4_6 
REMARK    3  A    between atoms: C7_9  and  N2_10 
REMARK    4  A    between atoms: N2_10  and  C8_11 
REMARK    5  A    between atoms: C10_13  and  C11_14 
REMARK    6  A    between atoms: C11_14  and  N3_15 
REMARK    7  A    between atoms: N3_15  and  C12_16 
REMARK    8  A    between atoms: C12_16  and  C13_17 
REMARK    9  A    between atoms: C24_30  and  O2_31 
ROOT
HETATM    1  N2  UNL     1      25.881   2.744  50.310  1.00  0.00    -0.369 N 
HETATM    2  H8  UNL     1      25.931   2.192  49.427  1.00  0.00     0.161 HD
ENDROOT
BRANCH   1   3
HETATM    3  C7  UNL     1      25.752   2.073  51.537  1.00  0.00     0.137 A 
HETATM    4  C6  UNL     1      24.546   1.530  51.935  1.00  0.00     0.039 A 
HETATM    5  C5  UNL     1      23.226   1.472  51.330  1.00  0.00     0.045 A 
HETATM    6  C23 UNL     1      24.463   0.882  53.148  1.00  0.00     0.084 A 
HETATM    7  C4  UNL     1      22.374   0.824  52.123  1.00  0.00     0.048 A 
HETATM    8  C24 UNL     1      23.075   0.390  53.346  1.00  0.00     0.223 A 
HETATM    9  N5  UNL     1      25.514   0.748  53.976  1.00  0.00    -0.242 NA
HETATM   10  C22 UNL     1      26.672   1.283  53.564  1.00  0.00     0.235 A 
HETATM   11  N4  UNL     1      26.762   1.909  52.399  1.00  0.00    -0.224 NA
BRANCH   7  12
HETATM   12  N1  UNL     1      20.995   0.520  51.958  1.00  0.00    -0.328 N 
HETATM   13  C3  UNL     1      19.962   1.405  52.344  1.00  0.00     0.221 C 
HETATM   14  O1  UNL     1      20.229   2.515  52.855  1.00  0.00    -0.273 OA
HETATM   15  H6  UNL     1      20.746  -0.418  51.525  1.00  0.00     0.168 HD
BRANCH  13  16
HETATM   16  C2  UNL     1      18.548   0.982  52.122  1.00  0.00     0.098 C 
HETATM   17  C1  UNL     1      18.423   0.017  50.981  1.00  0.00     0.014 C 
ENDBRANCH  13  16
ENDBRANCH   7  12
BRANCH   8  18
HETATM   18  O2  UNL     1      23.020  -0.967  53.578  1.00  0.00    -0.378 OA
HETATM   19  C25 UNL     1      22.390  -1.276  54.782  1.00  0.00     0.203 C 
ENDBRANCH   8  18
ENDBRANCH   1   3
BRANCH   1  20
HETATM   20  C8  UNL     1      25.942   4.190  50.295  1.00  0.00     0.087 C 
HETATM   21  C9  UNL     1      24.627   4.823  50.713  1.00  0.00     0.032 C 
HETATM   22  C10 UNL     1      24.807   6.303  50.289  1.00  0.00     0.016 C 
HETATM   23  C19 UNL     1      25.569   6.172  48.988  1.00  0.00     0.012 C 
HETATM   24  C20 UNL     1      26.171   4.784  48.945  1.00  0.00     0.004 C 
HETATM   25  C21 UNL     1      27.651   4.928  48.625  1.00  0.00     0.012 C 
BRANCH  22  26
HETATM   26  C11 UNL     1      23.435   6.855  50.161  1.00  0.00     0.274 C 
BRANCH  26  27
HETATM   27  N3  UNL     1      22.347   5.953  50.199  1.00  0.00     0.087 N 
HETATM   28  H15 UNL     1      22.704   5.025  50.518  1.00  0.00     0.316 HD
BRANCH  27  29
HETATM   29  C12 UNL     1      21.563   5.778  49.031  1.00  0.00     0.308 C 
BRANCH  29  30
HETATM   30  C13 UNL     1      21.531   4.291  48.737  1.00  0.00    -0.030 A 
HETATM   31  C14 UNL     1      22.623   3.709  48.084  1.00  0.00     0.009 A 
HETATM   32  C15 UNL     1      22.661   2.366  47.785  1.00  0.00     0.001 A 
HETATM   33  C16 UNL     1      21.597   1.572  48.137  1.00  0.00     0.000 A 
HETATM   34  C17 UNL     1      20.496   2.128  48.789  1.00  0.00     0.001 A 
HETATM   35  C18 UNL     1      20.457   3.481  49.090  1.00  0.00     0.009 A 
ENDBRANCH  29  30
ENDBRANCH  27  29
ENDBRANCH  26  27
ENDBRANCH  22  26
ENDBRANCH   1  20
TORSDOF 9
ENDMDL
MODEL 7
REMARK VINA RESULT:      -7.8      2.842      6.223
REMARK  9 active torsions:
REMARK  status: ('A' for Active; 'I' for Inactive)
REMARK    1  A    between atoms: C2_2  and  C3_3 
REMARK       I    between atoms: C3_3  and  N1_5 
REMARK    2  A    between atoms: N1_5  and  C4_6 
REMARK    3  A    between atoms: C7_9  and  N2_10 
REMARK    4  A    between atoms: N2_10  and  C8_11 
REMARK    5  A    between atoms: C10_13  and  C11_14 
REMARK    6  A    between atoms: C11_14  and  N3_15 
REMARK    7  A    between atoms: N3_15  and  C12_16 
REMARK    8  A    between atoms: C12_16  and  C13_17 
REMARK    9  A    between atoms: C24_30  and  O2_31 
ROOT
HETATM    1  N2  UNL     1      23.209   3.131  52.059  1.00  0.00    -0.369 N 
HETATM    2  H8  UNL     1      22.890   3.957  52.610  1.00  0.00     0.161 HD
ENDROOT
BRANCH   1   3
HETATM    3  C7  UNL     1      23.061   1.843  52.598  1.00  0.00     0.137 A 
HETATM    4  C6  UNL     1      24.151   1.015  52.785  1.00  0.00     0.039 A 
HETATM    5  C5  UNL     1      25.575   1.162  52.538  1.00  0.00     0.045 A 
HETATM    6  C23 UNL     1      23.961  -0.242  53.316  1.00  0.00     0.084 A 
HETATM    7  C4  UNL     1      26.230   0.058  52.894  1.00  0.00     0.048 A 
HETATM    8  C24 UNL     1      25.272  -0.933  53.419  1.00  0.00     0.223 A 
HETATM    9  N5  UNL     1      22.749  -0.711  53.666  1.00  0.00    -0.242 NA
HETATM   10  C22 UNL     1      21.711   0.115  53.475  1.00  0.00     0.235 A 
HETATM   11  N4  UNL     1      21.883   1.326  52.965  1.00  0.00    -0.224 NA
BRANCH   7  12
HETATM   12  N1  UNL     1      27.614  -0.262  52.840  1.00  0.00    -0.328 N 
HETATM   13  C3  UNL     1      28.567   0.298  53.721  1.00  0.00     0.221 C 
HETATM   14  O1  UNL     1      28.221   1.116  54.602  1.00  0.00    -0.273 OA
HETATM   15  H6  UNL     1      27.930  -0.956  52.099  1.00  0.00     0.168 HD
BRANCH  13  16
HETATM   16  C2  UNL     1      29.994  -0.112  53.573  1.00  0.00     0.098 C 
HETATM   17  C1  UNL     1      30.167  -1.597  53.687  1.00  0.00     0.014 C 
ENDBRANCH  13  16
ENDBRANCH   7  12
BRANCH   8  18
HETATM   18  O2  UNL     1      25.547  -1.362  54.700  1.00  0.00    -0.378 OA
HETATM   19  C25 UNL     1      25.369  -0.357  55.648  1.00  0.00     0.203 C 
ENDBRANCH   8  18
ENDBRANCH   1   3
BRANCH   1  20
HETATM   20  C8  UNL     1      23.800   3.289  50.747  1.00  0.00     0.087 C 
HETATM   21  C9  UNL     1      25.015   4.199  50.772  1.00  0.00     0.032 C 
HETATM   22  C10 UNL     1      25.250   4.499  49.269  1.00  0.00     0.016 C 
HETATM   23  C19 UNL     1      23.836   4.609  48.740  1.00  0.00     0.012 C 
HETATM   24  C20 UNL     1      22.915   3.958  49.748  1.00  0.00     0.004 C 
HETATM   25  C21 UNL     1      22.038   2.964  49.001  1.00  0.00     0.012 C 
BRANCH  22  26
HETATM   26  C11 UNL     1      26.038   5.757  49.228  1.00  0.00     0.274 C 
BRANCH  26  27
HETATM   27  N3  UNL     1      26.018   6.593  50.369  1.00  0.00     0.087 N 
HETATM   28  H15 UNL     1      25.374   6.169  51.072  1.00  0.00     0.316 HD
BRANCH  27  29
HETATM   29  C12 UNL     1      25.700   7.964  50.206  1.00  0.00     0.308 C 
BRANCH  29  30
HETATM   30  C13 UNL     1      24.201   8.049  49.996  1.00  0.00    -0.030 A 
HETATM   31  C14 UNL     1      23.715   8.717  48.866  1.00  0.00     0.009 A 
HETATM   32  C15 UNL     1      22.367   8.833  48.613  1.00  0.00     0.001 A 
HETATM   33  C16 UNL     1      21.471   8.278  49.494  1.00  0.00     0.000 A 
HETATM   34  C17 UNL     1      21.930   7.608  50.628  1.00  0.00     0.001 A 
HETATM   35  C18 UNL     1      23.287   7.491  50.884  1.00  0.00     0.009 A 
ENDBRANCH  29  30
ENDBRANCH  27  29
ENDBRANCH  26  27
ENDBRANCH  22  26
ENDBRANCH   1  20
TORSDOF 9
ENDMDL
MODEL 8
REMARK VINA RESULT:      -7.7      4.830      9.301
REMARK  9 active torsions:
REMARK  status: ('A' for Active; 'I' for Inactive)
REMARK    1  A    between atoms: C2_2  and  C3_3 
REMARK       I    between atoms: C3_3  and  N1_5 
REMARK    2  A    between atoms: N1_5  and  C4_6 
REMARK    3  A    between atoms: C7_9  and  N2_10 
REMARK    4  A    between atoms: N2_10  and  C8_11 
REMARK    5  A    between atoms: C10_13  and  C11_14 
REMARK    6  A    between atoms: C11_14  and  N3_15 
REMARK    7  A    between atoms: N3_15  and  C12_16 
REMARK    8  A    between atoms: C12_16  and  C13_17 
REMARK    9  A    between atoms: C24_30  and  O2_31 
ROOT
HETATM    1  N2  UNL     1      26.162   4.357  49.044  1.00  0.00    -0.369 N 
HETATM    2  H8  UNL     1      26.664   3.609  48.520  1.00  0.00     0.161 HD
ENDROOT
BRANCH   1   3
HETATM    3  C7  UNL     1      26.582   5.691  48.914  1.00  0.00     0.137 A 
HETATM    4  C6  UNL     1      27.871   6.002  48.529  1.00  0.00     0.039 A 
HETATM    5  C5  UNL     1      29.034   5.203  48.183  1.00  0.00     0.045 A 
HETATM    6  C23 UNL     1      28.242   7.324  48.416  1.00  0.00     0.084 A 
HETATM    7  C4  UNL     1      30.067   5.985  47.873  1.00  0.00     0.048 A 
HETATM    8  C24 UNL     1      29.664   7.399  47.991  1.00  0.00     0.223 A 
HETATM    9  N5  UNL     1      27.399   8.343  48.665  1.00  0.00    -0.242 NA
HETATM   10  C22 UNL     1      26.154   8.010  49.035  1.00  0.00     0.235 A 
HETATM   11  N4  UNL     1      25.787   6.742  49.147  1.00  0.00    -0.224 NA
BRANCH   7  12
HETATM   12  N1  UNL     1      31.393   5.663  47.476  1.00  0.00    -0.328 N 
HETATM   13  C3  UNL     1      32.476   5.613  48.382  1.00  0.00     0.221 C 
HETATM   14  O1  UNL     1      32.304   5.856  49.597  1.00  0.00    -0.273 OA
HETATM   15  H6  UNL     1      31.562   5.452  46.447  1.00  0.00     0.168 HD
BRANCH  13  16
HETATM   16  C2  UNL     1      33.827   5.262  47.853  1.00  0.00     0.098 C 
HETATM   17  C1  UNL     1      34.913   5.561  48.842  1.00  0.00     0.014 C 
ENDBRANCH  13  16
ENDBRANCH   7  12
BRANCH   8  18
HETATM   18  O2  UNL     1      29.836   8.134  46.838  1.00  0.00    -0.378 OA
HETATM   19  C25 UNL     1      30.647   9.250  47.034  1.00  0.00     0.203 C 
ENDBRANCH   8  18
ENDBRANCH   1   3
BRANCH   1  20
HETATM   20  C8  UNL     1      25.039   4.047  49.904  1.00  0.00     0.087 C 
HETATM   21  C9  UNL     1      25.438   3.152  51.065  1.00  0.00     0.032 C 
HETATM   22  C10 UNL     1      24.070   2.676  51.616  1.00  0.00     0.016 C 
HETATM   23  C19 UNL     1      23.259   2.495  50.350  1.00  0.00     0.012 C 
HETATM   24  C20 UNL     1      23.957   3.258  49.245  1.00  0.00     0.004 C 
HETATM   25  C21 UNL     1      22.924   4.151  48.574  1.00  0.00     0.012 C 
BRANCH  22  26
HETATM   26  C11 UNL     1      24.351   1.426  52.367  1.00  0.00     0.274 C 
BRANCH  26  27
HETATM   27  N3  UNL     1      25.535   0.716  52.059  1.00  0.00     0.087 N 
HETATM   28  H15 UNL     1      25.545   0.528  51.032  1.00  0.00     0.316 HD
BRANCH  27  29
HETATM   29  C12 UNL     1      25.813  -0.484  52.759  1.00  0.00     0.308 C 
BRANCH  29  30
HETATM   30  C13 UNL     1      27.297  -0.485  53.066  1.00  0.00    -0.030 A 
HETATM   31  C14 UNL     1      27.993  -1.698  53.030  1.00  0.00     0.009 A 
HETATM   32  C15 UNL     1      29.341  -1.772  53.298  1.00  0.00     0.001 A 
HETATM   33  C16 UNL     1      30.025  -0.623  53.612  1.00  0.00     0.000 A 
HETATM   34  C17 UNL     1      29.354   0.599  53.655  1.00  0.00     0.001 A 
HETATM   35  C18 UNL     1      27.996   0.675  53.385  1.00  0.00     0.009 A 
ENDBRANCH  29  30
ENDBRANCH  27  29
ENDBRANCH  26  27
ENDBRANCH  22  26
ENDBRANCH   1  20
TORSDOF 9
ENDMDL
MODEL 9
REMARK VINA RESULT:      -7.7      2.943      5.990
REMARK  9 active torsions:
REMARK  status: ('A' for Active; 'I' for Inactive)
REMARK    1  A    between atoms: C2_2  and  C3_3 
REMARK       I    between atoms: C3_3  and  N1_5 
REMARK    2  A    between atoms: N1_5  and  C4_6 
REMARK    3  A    between atoms: C7_9  and  N2_10 
REMARK    4  A    between atoms: N2_10  and  C8_11 
REMARK    5  A    between atoms: C10_13  and  C11_14 
REMARK    6  A    between atoms: C11_14  and  N3_15 
REMARK    7  A    between atoms: N3_15  and  C12_16 
REMARK    8  A    between atoms: C12_16  and  C13_17 
REMARK    9  A    between atoms: C24_30  and  O2_31 
ROOT
HETATM    1  N2  UNL     1      23.625   2.861  50.450  1.00  0.00    -0.369 N 
HETATM    2  H8  UNL     1      23.326   2.641  49.476  1.00  0.00     0.161 HD
ENDROOT
BRANCH   1   3
HETATM    3  C7  UNL     1      23.267   1.993  51.494  1.00  0.00     0.137 A 
HETATM    4  C6  UNL     1      24.199   1.168  52.092  1.00  0.00     0.039 A 
HETATM    5  C5  UNL     1      25.621   0.951  51.891  1.00  0.00     0.045 A 
HETATM    6  C23 UNL     1      23.804   0.329  53.112  1.00  0.00     0.084 A 
HETATM    7  C4  UNL     1      26.081   0.031  52.737  1.00  0.00     0.048 A 
HETATM    8  C24 UNL     1      24.976  -0.449  53.589  1.00  0.00     0.223 A 
HETATM    9  N5  UNL     1      22.537   0.274  53.561  1.00  0.00    -0.242 NA
HETATM   10  C22 UNL     1      21.655   1.086  52.963  1.00  0.00     0.235 A 
HETATM   11  N4  UNL     1      22.024   1.896  51.981  1.00  0.00    -0.224 NA
BRANCH   7  12
HETATM   12  N1  UNL     1      27.387  -0.503  52.913  1.00  0.00    -0.328 N 
HETATM   13  C3  UNL     1      28.370   0.119  53.715  1.00  0.00     0.221 C 
HETATM   14  O1  UNL     1      28.123   1.188  54.315  1.00  0.00    -0.273 OA
HETATM   15  H6  UNL     1      27.618  -1.412  52.412  1.00  0.00     0.168 HD
BRANCH  13  16
HETATM   16  C2  UNL     1      29.708  -0.533  53.828  1.00  0.00     0.098 C 
HETATM   17  C1  UNL     1      29.672  -1.968  53.393  1.00  0.00     0.014 C 
ENDBRANCH  13  16
ENDBRANCH   7  12
BRANCH   8  18
HETATM   18  O2  UNL     1      25.199  -0.300  54.941  1.00  0.00    -0.378 OA
HETATM   19  C25 UNL     1      24.559  -1.281  55.696  1.00  0.00     0.203 C 
ENDBRANCH   8  18
ENDBRANCH   1   3
BRANCH   1  20
HETATM   20  C8  UNL     1      24.405   4.044  50.746  1.00  0.00     0.087 C 
HETATM   21  C9  UNL     1      23.538   5.193  51.232  1.00  0.00     0.032 C 
HETATM   22  C10 UNL     1      24.497   6.408  51.141  1.00  0.00     0.016 C 
HETATM   23  C19 UNL     1      25.274   6.109  49.877  1.00  0.00     0.012 C 
HETATM   24  C20 UNL     1      25.097   4.639  49.565  1.00  0.00     0.004 C 
HETATM   25  C21 UNL     1      26.479   4.040  49.350  1.00  0.00     0.012 C 
BRANCH  22  26
HETATM   26  C11 UNL     1      23.623   7.606  51.074  1.00  0.00     0.274 C 
BRANCH  26  27
HETATM   27  N3  UNL     1      22.232   7.409  50.914  1.00  0.00     0.087 N 
HETATM   28  H15 UNL     1      22.043   6.383  50.950  1.00  0.00     0.316 HD
BRANCH  27  29
HETATM   29  C12 UNL     1      21.589   7.966  49.782  1.00  0.00     0.308 C 
BRANCH  29  30
HETATM   30  C13 UNL     1      21.829   7.018  48.624  1.00  0.00    -0.030 A 
HETATM   31  C14 UNL     1      21.315   5.718  48.698  1.00  0.00     0.009 A 
HETATM   32  C15 UNL     1      21.495   4.805  47.685  1.00  0.00     0.001 A 
HETATM   33  C16 UNL     1      22.200   5.178  46.566  1.00  0.00     0.000 A 
HETATM   34  C17 UNL     1      22.723   6.467  46.468  1.00  0.00     0.001 A 
HETATM   35  C18 UNL     1      22.542   7.388  47.488  1.00  0.00     0.009 A 
ENDBRANCH  29  30
ENDBRANCH  27  29
ENDBRANCH  26  27
ENDBRANCH  22  26
ENDBRANCH   1  20
TORSDOF 9
ENDMDL
