MODEL 1
REMARK VINA RESULT:      -6.9      0.000      0.000
REMARK  4 active torsions:
REMARK  status: ('A' for Active; 'I' for Inactive)
REMARK    1  A    between atoms: C3_3  and  C4_4 
REMARK    2  A    between atoms: C11_14  and  O1_15 
REMARK    3  A    between atoms: C13_17  and  O2_18 
REMARK    4  A    between atoms: C15_20  and  O3_21 
ROOT
HETATM    1  C1  UNL     1      26.323   1.477  50.760  1.00  0.00     0.022 C 
HETATM    2  C2  UNL     1      25.796   2.613  51.136  1.00  0.00    -0.028 C 
HETATM    3  C3  UNL     1      25.943   3.775  50.275  1.00  0.00    -0.033 C 
HETATM    4  C6  UNL     1      25.462   4.956  50.547  1.00  0.00     0.125 C 
HETATM    5  N1  UNL     1      24.892   6.154  50.972  1.00  0.00    -0.254 NA
HETATM    6  C7  UNL     1      23.680   6.292  51.396  1.00  0.00     0.233 C 
HETATM    7  N2  UNL     1      22.799   5.147  51.457  1.00  0.00    -0.237 NA
HETATM    8  C8  UNL     1      23.213   4.055  52.057  1.00  0.00     0.205 C 
HETATM    9  N3  UNL     1      24.398   3.647  52.727  1.00  0.00    -0.367 N 
HETATM   10  C9  UNL     1      25.120   2.465  52.447  1.00  0.00     0.084 A 
HETATM   11  C10 UNL     1      24.266   1.249  52.371  1.00  0.00     0.049 A 
HETATM   12  C11 UNL     1      24.289   0.128  53.091  1.00  0.00     0.103 A 
HETATM   13  C13 UNL     1      25.307   0.044  54.132  1.00  0.00     0.130 A 
HETATM   14  C15 UNL     1      26.119   1.078  54.279  1.00  0.00     0.085 A 
HETATM   15  C17 UNL     1      26.174   2.345  53.545  1.00  0.00     0.108 A 
HETATM   16  H11 UNL     1      24.411   4.473  53.351  1.00  0.00     0.161 HD
ENDROOT
BRANCH   3  17
HETATM   17  C4  UNL     1      26.702   3.569  49.001  1.00  0.00     0.036 C 
HETATM   18  C5  UNL     1      27.483   4.821  48.715  1.00  0.00     0.010 C 
ENDBRANCH   3  17
BRANCH  12  19
HETATM   19  O1  UNL     1      23.343  -0.823  52.762  1.00  0.00    -0.353 OA
HETATM   20  C12 UNL     1      22.050  -0.673  53.321  1.00  0.00     0.210 C 
ENDBRANCH  12  19
BRANCH  14  21
HETATM   21  O3  UNL     1      27.076   0.966  55.279  1.00  0.00    -0.357 OA
HETATM   22  C16 UNL     1      28.336   0.451  54.892  1.00  0.00     0.209 C 
ENDBRANCH  14  21
BRANCH  13  23
HETATM   23  O2  UNL     1      25.333  -1.105  54.872  1.00  0.00    -0.351 OA
HETATM   24  C14 UNL     1      24.591  -1.432  55.999  1.00  0.00     0.210 C 
ENDBRANCH  13  23
TORSDOF 4
ENDMDL
MODEL 2
REMARK VINA RESULT:      -6.6      3.744      6.816
REMARK  4 active torsions:
REMARK  status: ('A' for Active; 'I' for Inactive)
REMARK    1  A    between atoms: C3_3  and  C4_4 
REMARK    2  A    between atoms: C11_14  and  O1_15 
REMARK    3  A    between atoms: C13_17  and  O2_18 
REMARK    4  A    between atoms: C15_20  and  O3_21 
ROOT
HETATM    1  C1  UNL     1      23.447   3.659  48.921  1.00  0.00     0.022 C 
HETATM    2  C2  UNL     1      23.806   3.167  50.078  1.00  0.00    -0.028 C 
HETATM    3  C3  UNL     1      23.154   1.961  50.562  1.00  0.00    -0.033 C 
HETATM    4  C6  UNL     1      23.428   1.384  51.698  1.00  0.00     0.125 C 
HETATM    5  N1  UNL     1      23.829   0.881  52.934  1.00  0.00    -0.254 NA
HETATM    6  C7  UNL     1      25.053   0.683  53.295  1.00  0.00     0.233 C 
HETATM    7  N2  UNL     1      26.134   0.987  52.386  1.00  0.00    -0.237 NA
HETATM    8  C8  UNL     1      26.171   2.166  51.810  1.00  0.00     0.205 C 
HETATM    9  N3  UNL     1      25.368   3.338  51.834  1.00  0.00    -0.367 N 
HETATM   10  C9  UNL     1      24.867   4.000  50.691  1.00  0.00     0.084 A 
HETATM   11  C10 UNL     1      25.898   4.246  49.647  1.00  0.00     0.049 A 
HETATM   12  C11 UNL     1      26.340   5.386  49.117  1.00  0.00     0.103 A 
HETATM   13  C13 UNL     1      25.735   6.614  49.619  1.00  0.00     0.130 A 
HETATM   14  C15 UNL     1      24.805   6.501  50.552  1.00  0.00     0.085 A 
HETATM   15  C17 UNL     1      24.255   5.305  51.194  1.00  0.00     0.108 A 
HETATM   16  H11 UNL     1      25.369   3.400  52.868  1.00  0.00     0.161 HD
ENDROOT
BRANCH   3  17
HETATM   17  C4  UNL     1      22.103   1.369  49.674  1.00  0.00     0.036 C 
HETATM   18  C5  UNL     1      21.135   0.612  50.538  1.00  0.00     0.010 C 
ENDBRANCH   3  17
BRANCH  12  19
HETATM   19  O1  UNL     1      27.321   5.265  48.152  1.00  0.00    -0.353 OA
HETATM   20  C12 UNL     1      28.666   5.422  48.569  1.00  0.00     0.210 C 
ENDBRANCH  12  19
BRANCH  14  21
HETATM   21  O3  UNL     1      24.249   7.690  51.008  1.00  0.00    -0.357 OA
HETATM   22  C16 UNL     1      22.969   8.023  50.504  1.00  0.00     0.209 C 
ENDBRANCH  14  21
BRANCH  13  23
HETATM   23  O2  UNL     1      26.186   7.785  49.076  1.00  0.00    -0.351 OA
HETATM   24  C14 UNL     1      27.114   8.681  49.590  1.00  0.00     0.210 C 
ENDBRANCH  13  23
TORSDOF 4
ENDMDL
MODEL 3
REMARK VINA RESULT:      -6.6      3.295      6.193
REMARK  4 active torsions:
REMARK  status: ('A' for Active; 'I' for Inactive)
REMARK    1  A    between atoms: C3_3  and  C4_4 
REMARK    2  A    between atoms: C11_14  and  O1_15 
REMARK    3  A    between atoms: C13_17  and  O2_18 
REMARK    4  A    between atoms: C15_20  and  O3_21 
ROOT
HETATM    1  C1  UNL     1      22.622   1.202  51.835  1.00  0.00     0.022 C 
HETATM    2  C2  UNL     1      23.763   1.692  52.246  1.00  0.00    -0.028 C 
HETATM    3  C3  UNL     1      24.505   0.978  53.272  1.00  0.00    -0.033 C 
HETATM    4  C6  UNL     1      25.649   1.371  53.757  1.00  0.00     0.125 C 
HETATM    5  N1  UNL     1      26.861   1.914  54.177  1.00  0.00    -0.254 NA
HETATM    6  C7  UNL     1      27.809   2.313  53.395  1.00  0.00     0.233 C 
HETATM    7  N2  UNL     1      27.655   2.211  51.961  1.00  0.00    -0.237 NA
HETATM    8  C8  UNL     1      26.570   2.692  51.400  1.00  0.00     0.205 C 
HETATM    9  N3  UNL     1      25.393   3.347  51.853  1.00  0.00    -0.367 N 
HETATM   10  C9  UNL     1      24.074   2.954  51.534  1.00  0.00     0.084 A 
HETATM   11  C10 UNL     1      23.861   2.709  50.082  1.00  0.00     0.049 A 
HETATM   12  C11 UNL     1      23.031   3.294  49.218  1.00  0.00     0.103 A 
HETATM   13  C13 UNL     1      22.177   4.350  49.749  1.00  0.00     0.130 A 
HETATM   14  C15 UNL     1      22.292   4.642  51.033  1.00  0.00     0.085 A 
HETATM   15  C17 UNL     1      23.166   4.064  52.057  1.00  0.00     0.108 A 
HETATM   16  H11 UNL     1      25.916   4.064  52.388  1.00  0.00     0.161 HD
ENDROOT
BRANCH   3  17
HETATM   17  C4  UNL     1      23.887  -0.287  53.783  1.00  0.00     0.036 C 
HETATM   18  C5  UNL     1      24.825  -0.890  54.790  1.00  0.00     0.010 C 
ENDBRANCH   3  17
BRANCH  12  19
HETATM   19  O1  UNL     1      23.081   2.825  47.919  1.00  0.00    -0.353 OA
HETATM   20  C12 UNL     1      22.250   1.727  47.591  1.00  0.00     0.210 C 
ENDBRANCH  12  19
BRANCH  14  21
HETATM   21  O3  UNL     1      21.464   5.653  51.506  1.00  0.00    -0.357 OA
HETATM   22  C16 UNL     1      21.826   6.977  51.165  1.00  0.00     0.209 C 
ENDBRANCH  14  21
BRANCH  13  23
HETATM   23  O2  UNL     1      21.325   4.950  48.864  1.00  0.00    -0.351 OA
HETATM   24  C14 UNL     1      20.035   4.579  48.509  1.00  0.00     0.210 C 
ENDBRANCH  13  23
TORSDOF 4
ENDMDL
MODEL 4
REMARK VINA RESULT:      -6.4      2.407      3.021
REMARK  4 active torsions:
REMARK  status: ('A' for Active; 'I' for Inactive)
REMARK    1  A    between atoms: C3_3  and  C4_4 
REMARK    2  A    between atoms: C11_14  and  O1_15 
REMARK    3  A    between atoms: C13_17  and  O2_18 
REMARK    4  A    between atoms: C15_20  and  O3_21 
ROOT
HETATM    1  C1  UNL     1      21.916   0.936  50.003  1.00  0.00     0.022 C 
HETATM    2  C2  UNL     1      22.419   2.113  50.274  1.00  0.00    -0.028 C 
HETATM    3  C3  UNL     1      22.479   3.111  49.220  1.00  0.00    -0.033 C 
HETATM    4  C6  UNL     1      22.960   4.313  49.373  1.00  0.00     0.125 C 
HETATM    5  N1  UNL     1      23.501   5.557  49.688  1.00  0.00    -0.254 NA
HETATM    6  C7  UNL     1      23.173   6.274  50.712  1.00  0.00     0.233 C 
HETATM    7  N2  UNL     1      22.170   5.797  51.638  1.00  0.00    -0.237 NA
HETATM    8  C8  UNL     1      22.283   4.587  52.133  1.00  0.00     0.205 C 
HETATM    9  N3  UNL     1      23.203   3.513  52.000  1.00  0.00    -0.367 N 
HETATM   10  C9  UNL     1      22.853   2.179  51.690  1.00  0.00     0.084 A 
HETATM   11  C10 UNL     1      21.739   1.649  52.521  1.00  0.00     0.049 A 
HETATM   12  C11 UNL     1      21.699   0.610  53.355  1.00  0.00     0.103 A 
HETATM   13  C13 UNL     1      22.932  -0.155  53.501  1.00  0.00     0.130 A 
HETATM   14  C15 UNL     1      23.982   0.239  52.800  1.00  0.00     0.085 A 
HETATM   15  C17 UNL     1      24.127   1.357  51.866  1.00  0.00     0.108 A 
HETATM   16  H11 UNL     1      24.029   4.104  52.204  1.00  0.00     0.161 HD
ENDROOT
BRANCH   3  17
HETATM   17  C4  UNL     1      21.947   2.701  47.881  1.00  0.00     0.036 C 
HETATM   18  C5  UNL     1      21.970   3.903  46.981  1.00  0.00     0.010 C 
ENDBRANCH   3  17
BRANCH  12  19
HETATM   19  O1  UNL     1      20.489   0.384  53.983  1.00  0.00    -0.353 OA
HETATM   20  C12 UNL     1      19.584  -0.503  53.350  1.00  0.00     0.210 C 
ENDBRANCH  12  19
BRANCH  14  21
HETATM   21  O3  UNL     1      25.140  -0.512  52.963  1.00  0.00    -0.357 OA
HETATM   22  C16 UNL     1      26.311  -0.008  52.347  1.00  0.00     0.209 C 
ENDBRANCH  14  21
BRANCH  13  23
HETATM   23  O2  UNL     1      22.893  -1.221  54.356  1.00  0.00    -0.351 OA
HETATM   24  C14 UNL     1      23.314  -1.292  55.677  1.00  0.00     0.210 C 
ENDBRANCH  13  23
TORSDOF 4
ENDMDL
MODEL 5
REMARK VINA RESULT:      -6.3      2.032      3.034
REMARK  4 active torsions:
REMARK  status: ('A' for Active; 'I' for Inactive)
REMARK    1  A    between atoms: C3_3  and  C4_4 
REMARK    2  A    between atoms: C11_14  and  O1_15 
REMARK    3  A    between atoms: C13_17  and  O2_18 
REMARK    4  A    between atoms: C15_20  and  O3_21 
ROOT
HETATM    1  C1  UNL     1      25.783   2.990  49.501  1.00  0.00     0.022 C 
HETATM    2  C2  UNL     1      25.368   4.149  49.942  1.00  0.00    -0.028 C 
HETATM    3  C3  UNL     1      26.090   5.349  49.552  1.00  0.00    -0.033 C 
HETATM    4  C6  UNL     1      25.769   6.554  49.930  1.00  0.00     0.125 C 
HETATM    5  N1  UNL     1      25.307   7.776  50.413  1.00  0.00    -0.254 NA
HETATM    6  C7  UNL     1      24.081   8.179  50.366  1.00  0.00     0.233 C 
HETATM    7  N2  UNL     1      23.064   7.337  49.775  1.00  0.00    -0.237 NA
HETATM    8  C8  UNL     1      22.963   6.088  50.167  1.00  0.00     0.205 C 
HETATM    9  N3  UNL     1      23.638   5.255  51.099  1.00  0.00    -0.367 N 
HETATM   10  C9  UNL     1      24.175   3.981  50.805  1.00  0.00     0.084 A 
HETATM   11  C10 UNL     1      23.228   3.088  50.084  1.00  0.00     0.049 A 
HETATM   12  C11 UNL     1      22.725   1.902  50.426  1.00  0.00     0.103 A 
HETATM   13  C13 UNL     1      23.153   1.360  51.711  1.00  0.00     0.130 A 
HETATM   14  C15 UNL     1      23.997   2.081  52.428  1.00  0.00     0.085 A 
HETATM   15  C17 UNL     1      24.602   3.385  52.144  1.00  0.00     0.108 A 
HETATM   16  H11 UNL     1      23.533   5.926  51.880  1.00  0.00     0.161 HD
ENDROOT
BRANCH   3  17
HETATM   17  C4  UNL     1      27.275   5.153  48.656  1.00  0.00     0.036 C 
HETATM   18  C5  UNL     1      27.755   6.506  48.214  1.00  0.00     0.010 C 
ENDBRANCH   3  17
BRANCH  12  19
HETATM   19  O1  UNL     1      21.857   1.328  49.518  1.00  0.00    -0.353 OA
HETATM   20  C12 UNL     1      22.058   1.626  48.148  1.00  0.00     0.210 C 
ENDBRANCH  12  19
BRANCH  14  21
HETATM   21  O3  UNL     1      24.384   1.536  53.646  1.00  0.00    -0.357 OA
HETATM   22  C16 UNL     1      25.674   0.956  53.698  1.00  0.00     0.209 C 
ENDBRANCH  14  21
BRANCH  13  23
HETATM   23  O2  UNL     1      22.638   0.143  52.063  1.00  0.00    -0.351 OA
HETATM   24  C14 UNL     1      21.455  -0.140  52.731  1.00  0.00     0.210 C 
ENDBRANCH  13  23
TORSDOF 4
ENDMDL
MODEL 6
REMARK VINA RESULT:      -6.3      2.582      4.353
REMARK  4 active torsions:
REMARK  status: ('A' for Active; 'I' for Inactive)
REMARK    1  A    between atoms: C3_3  and  C4_4 
REMARK    2  A    between atoms: C11_14  and  O1_15 
REMARK    3  A    between atoms: C13_17  and  O2_18 
REMARK    4  A    between atoms: C15_20  and  O3_21 
ROOT
HETATM    1  C1  UNL     1      23.382   3.861  52.571  1.00  0.00     0.022 C 
HETATM    2  C2  UNL     1      22.608   3.428  51.610  1.00  0.00    -0.028 C 
HETATM    3  C3  UNL     1      21.706   4.364  50.958  1.00  0.00    -0.033 C 
HETATM    4  C6  UNL     1      20.891   4.045  49.993  1.00  0.00     0.125 C 
HETATM    5  N1  UNL     1      20.077   3.558  48.973  1.00  0.00    -0.254 NA
HETATM    6  C7  UNL     1      20.481   2.843  47.975  1.00  0.00     0.233 C 
HETATM    7  N2  UNL     1      21.878   2.491  47.856  1.00  0.00    -0.237 NA
HETATM    8  C8  UNL     1      22.491   1.956  48.887  1.00  0.00     0.205 C 
HETATM    9  N3  UNL     1      22.129   1.593  50.212  1.00  0.00    -0.367 N 
HETATM   10  C9  UNL     1      22.827   1.981  51.377  1.00  0.00     0.084 A 
HETATM   11  C10 UNL     1      24.296   1.762  51.291  1.00  0.00     0.049 A 
HETATM   12  C11 UNL     1      25.105   1.009  52.036  1.00  0.00     0.103 A 
HETATM   13  C13 UNL     1      24.482   0.264  53.123  1.00  0.00     0.130 A 
HETATM   14  C15 UNL     1      23.175   0.392  53.283  1.00  0.00     0.085 A 
HETATM   15  C17 UNL     1      22.207   1.187  52.524  1.00  0.00     0.108 A 
HETATM   16  H11 UNL     1      21.305   1.042  49.909  1.00  0.00     0.161 HD
ENDROOT
BRANCH   3  17
HETATM   17  C4  UNL     1      21.740   5.777  51.453  1.00  0.00     0.036 C 
HETATM   18  C5  UNL     1      21.502   6.687  50.282  1.00  0.00     0.010 C 
ENDBRANCH   3  17
BRANCH  12  19
HETATM   19  O1  UNL     1      26.441   1.026  51.685  1.00  0.00    -0.353 OA
HETATM   20  C12 UNL     1      27.223   2.110  52.155  1.00  0.00     0.210 C 
ENDBRANCH  12  19
BRANCH  14  21
HETATM   21  O3  UNL     1      22.614  -0.331  54.328  1.00  0.00    -0.357 OA
HETATM   22  C16 UNL     1      21.265  -0.043  54.642  1.00  0.00     0.209 C 
ENDBRANCH  14  21
BRANCH  13  23
HETATM   23  O2  UNL     1      25.310  -0.509  53.888  1.00  0.00    -0.351 OA
HETATM   24  C14 UNL     1      26.116  -0.131  54.953  1.00  0.00     0.210 C 
ENDBRANCH  13  23
TORSDOF 4
ENDMDL
MODEL 7
REMARK VINA RESULT:      -6.2      7.003     10.435
REMARK  4 active torsions:
REMARK  status: ('A' for Active; 'I' for Inactive)
REMARK    1  A    between atoms: C3_3  and  C4_4 
REMARK    2  A    between atoms: C11_14  and  O1_15 
REMARK    3  A    between atoms: C13_17  and  O2_18 
REMARK    4  A    between atoms: C15_20  and  O3_21 
ROOT
HETATM    1  C1  UNL     1      31.208   7.612  45.703  1.00  0.00     0.022 C 
HETATM    2  C2  UNL     1      31.835   6.638  46.312  1.00  0.00    -0.028 C 
HETATM    3  C3  UNL     1      32.798   5.847  45.564  1.00  0.00    -0.033 C 
HETATM    4  C6  UNL     1      33.479   4.854  46.064  1.00  0.00     0.125 C 
HETATM    5  N1  UNL     1      34.132   3.823  46.736  1.00  0.00    -0.254 NA
HETATM    6  C7  UNL     1      34.715   3.934  47.883  1.00  0.00     0.233 C 
HETATM    7  N2  UNL     1      34.724   5.206  48.571  1.00  0.00    -0.237 NA
HETATM    8  C8  UNL     1      33.591   5.848  48.738  1.00  0.00     0.205 C 
HETATM    9  N3  UNL     1      32.230   5.620  48.399  1.00  0.00    -0.367 N 
HETATM   10  C9  UNL     1      31.398   6.541  47.724  1.00  0.00     0.084 A 
HETATM   11  C10 UNL     1      31.441   7.913  48.299  1.00  0.00     0.049 A 
HETATM   12  C11 UNL     1      30.473   8.662  48.825  1.00  0.00     0.103 A 
HETATM   13  C13 UNL     1      29.140   8.072  48.860  1.00  0.00     0.130 A 
HETATM   14  C15 UNL     1      28.998   6.852  48.372  1.00  0.00     0.085 A 
HETATM   15  C17 UNL     1      29.990   5.953  47.777  1.00  0.00     0.108 A 
HETATM   16  H11 UNL     1      32.215   4.671  48.815  1.00  0.00     0.161 HD
ENDROOT
BRANCH   3  17
HETATM   17  C4  UNL     1      32.997   6.221  44.128  1.00  0.00     0.036 C 
HETATM   18  C5  UNL     1      33.259   4.963  43.349  1.00  0.00     0.010 C 
ENDBRANCH   3  17
BRANCH  12  19
HETATM   19  O1  UNL     1      30.852   9.912  49.276  1.00  0.00    -0.353 OA
HETATM   20  C12 UNL     1      30.932  10.952  48.317  1.00  0.00     0.210 C 
ENDBRANCH  12  19
BRANCH  14  21
HETATM   21  O3  UNL     1      27.715   6.320  48.421  1.00  0.00    -0.357 OA
HETATM   22  C16 UNL     1      27.618   4.923  48.626  1.00  0.00     0.209 C 
ENDBRANCH  14  21
BRANCH  13  23
HETATM   23  O2  UNL     1      28.145   8.840  49.400  1.00  0.00    -0.351 OA
HETATM   24  C14 UNL     1      27.366   9.811  48.787  1.00  0.00     0.210 C 
ENDBRANCH  13  23
TORSDOF 4
ENDMDL
MODEL 8
REMARK VINA RESULT:      -6.0      4.064      6.378
REMARK  4 active torsions:
REMARK  status: ('A' for Active; 'I' for Inactive)
REMARK    1  A    between atoms: C3_3  and  C4_4 
REMARK    2  A    between atoms: C11_14  and  O1_15 
REMARK    3  A    between atoms: C13_17  and  O2_18 
REMARK    4  A    between atoms: C15_20  and  O3_21 
ROOT
HETATM    1  C1  UNL     1      24.576   7.141  47.325  1.00  0.00     0.022 C 
HETATM    2  C2  UNL     1      25.714   7.545  47.827  1.00  0.00    -0.028 C 
HETATM    3  C3  UNL     1      26.578   8.390  47.020  1.00  0.00    -0.033 C 
HETATM    4  C6  UNL     1      27.731   8.850  47.414  1.00  0.00     0.125 C 
HETATM    5  N1  UNL     1      28.938   9.266  47.973  1.00  0.00    -0.254 NA
HETATM    6  C7  UNL     1      29.073   9.794  49.144  1.00  0.00     0.233 C 
HETATM    7  N2  UNL     1      27.915   9.994  49.986  1.00  0.00    -0.237 NA
HETATM    8  C8  UNL     1      27.097   8.989  50.194  1.00  0.00     0.205 C 
HETATM    9  N3  UNL     1      27.026   7.630  49.783  1.00  0.00    -0.367 N 
HETATM   10  C9  UNL     1      25.893   7.018  49.201  1.00  0.00     0.084 A 
HETATM   11  C10 UNL     1      24.630   7.277  49.944  1.00  0.00     0.049 A 
HETATM   12  C11 UNL     1      23.780   6.432  50.528  1.00  0.00     0.103 A 
HETATM   13  C13 UNL     1      24.111   5.014  50.442  1.00  0.00     0.130 A 
HETATM   14  C15 UNL     1      25.217   4.681  49.799  1.00  0.00     0.085 A 
HETATM   15  C17 UNL     1      26.209   5.527  49.131  1.00  0.00     0.108 A 
HETATM   16  H11 UNL     1      27.997   7.420  50.075  1.00  0.00     0.161 HD
ENDROOT
BRANCH   3  17
HETATM   17  C4  UNL     1      26.081   8.735  45.649  1.00  0.00     0.036 C 
HETATM   18  C5  UNL     1      27.236   8.631  44.694  1.00  0.00     0.010 C 
ENDBRANCH   3  17
BRANCH  12  19
HETATM   19  O1  UNL     1      22.685   7.005  51.144  1.00  0.00    -0.353 OA
HETATM   20  C12 UNL     1      21.530   7.218  50.352  1.00  0.00     0.210 C 
ENDBRANCH  12  19
BRANCH  14  21
HETATM   21  O3  UNL     1      25.502   3.323  49.737  1.00  0.00    -0.357 OA
HETATM   22  C16 UNL     1      26.502   2.846  50.618  1.00  0.00     0.209 C 
ENDBRANCH  14  21
BRANCH  13  23
HETATM   23  O2  UNL     1      23.240   4.146  51.040  1.00  0.00    -0.351 OA
HETATM   24  C14 UNL     1      23.199   3.727  52.363  1.00  0.00     0.210 C 
ENDBRANCH  13  23
TORSDOF 4
ENDMDL
MODEL 9
REMARK VINA RESULT:      -6.0      6.341      8.935
REMARK  4 active torsions:
REMARK  status: ('A' for Active; 'I' for Inactive)
REMARK    1  A    between atoms: C3_3  and  C4_4 
REMARK    2  A    between atoms: C11_14  and  O1_15 
REMARK    3  A    between atoms: C13_17  and  O2_18 
REMARK    4  A    between atoms: C15_20  and  O3_21 
ROOT
HETATM    1  C1  UNL     1      28.005   8.418  46.231  1.00  0.00     0.022 C 
HETATM    2  C2  UNL     1      27.282   7.904  47.191  1.00  0.00    -0.028 C 
HETATM    3  C3  UNL     1      25.836   7.873  47.043  1.00  0.00    -0.033 C 
HETATM    4  C6  UNL     1      25.017   7.387  47.933  1.00  0.00     0.125 C 
HETATM    5  N1  UNL     1      24.270   6.835  48.971  1.00  0.00    -0.254 NA
HETATM    6  C7  UNL     1      24.502   5.693  49.529  1.00  0.00     0.233 C 
HETATM    7  N2  UNL     1      25.611   4.881  49.082  1.00  0.00    -0.237 NA
HETATM    8  C8  UNL     1      26.802   5.424  48.986  1.00  0.00     0.205 C 
HETATM    9  N3  UNL     1      27.358   6.711  49.222  1.00  0.00    -0.367 N 
HETATM   10  C9  UNL     1      28.146   7.434  48.300  1.00  0.00     0.084 A 
HETATM   11  C10 UNL     1      29.244   6.631  47.697  1.00  0.00     0.049 A 
HETATM   12  C11 UNL     1      30.565   6.807  47.729  1.00  0.00     0.103 A 
HETATM   13  C13 UNL     1      31.048   7.970  48.465  1.00  0.00     0.130 A 
HETATM   14  C15 UNL     1      30.147   8.749  49.039  1.00  0.00     0.085 A 
HETATM   15  C17 UNL     1      28.686   8.641  49.062  1.00  0.00     0.108 A 
HETATM   16  H11 UNL     1      26.964   6.780  50.178  1.00  0.00     0.161 HD
ENDROOT
BRANCH   3  17
HETATM   17  C4  UNL     1      25.283   8.445  45.774  1.00  0.00     0.036 C 
HETATM   18  C5  UNL     1      23.932   7.834  45.536  1.00  0.00     0.010 C 
ENDBRANCH   3  17
BRANCH  12  19
HETATM   19  O1  UNL     1      31.318   5.864  47.057  1.00  0.00    -0.353 OA
HETATM   20  C12 UNL     1      31.829   4.781  47.813  1.00  0.00     0.210 C 
ENDBRANCH  12  19
BRANCH  14  21
HETATM   21  O3  UNL     1      30.641   9.847  49.732  1.00  0.00    -0.357 OA
HETATM   22  C16 UNL     1      30.564  11.097  49.074  1.00  0.00     0.209 C 
ENDBRANCH  14  21
BRANCH  13  23
HETATM   23  O2  UNL     1      32.403   8.153  48.499  1.00  0.00    -0.351 OA
HETATM   24  C14 UNL     1      33.220   8.777  47.566  1.00  0.00     0.210 C 
ENDBRANCH  13  23
TORSDOF 4
ENDMDL
