MODEL 1
REMARK VINA RESULT:      -9.5      0.000      0.000
REMARK  4 active torsions:
REMARK  status: ('A' for Active; 'I' for Inactive)
REMARK    1  A    between atoms: N1_1  and  C1_2 
REMARK    2  A    between atoms: C10_11  and  N2_12 
REMARK    3  A    between atoms: C14_16  and  N3_17 
REMARK    4  A    between atoms: N3_17  and  C15_18 
ROOT
HETATM    1  N2  UNL     1      25.675   2.310  51.929  1.00  0.00    -0.330 N 
HETATM    2  C11 UNL     1      26.448   2.323  50.819  1.00  0.00     0.095 A 
HETATM    3  C12 UNL     1      25.957   3.396  50.115  1.00  0.00     0.036 A 
HETATM    4  C13 UNL     1      24.916   4.020  50.778  1.00  0.00     0.057 A 
HETATM    5  C14 UNL     1      24.132   5.111  50.465  1.00  0.00     0.143 A 
HETATM    6  N4  UNL     1      23.202   5.421  51.379  1.00  0.00    -0.223 NA
HETATM    7  C21 UNL     1      23.029   4.736  52.518  1.00  0.00     0.237 A 
HETATM    8  N5  UNL     1      23.809   3.683  52.786  1.00  0.00    -0.223 NA
HETATM    9  C22 UNL     1      24.770   3.292  51.933  1.00  0.00     0.145 A 
ENDROOT
BRANCH   1  10
HETATM   10  C10 UNL     1      25.827   1.325  52.999  1.00  0.00     0.144 A 
HETATM   11  C1  UNL     1      27.287   1.242  53.361  1.00  0.00     0.037 A 
HETATM   12  C2  UNL     1      28.071   0.174  53.375  1.00  0.00    -0.002 A 
HETATM   13  C3  UNL     1      29.390   0.345  53.745  1.00  0.00     0.014 A 
HETATM   14  C7  UNL     1      27.551  -1.034  53.028  1.00  0.00    -0.028 A 
HETATM   15  C4  UNL     1      30.169  -0.808  53.743  1.00  0.00     0.001 A 
HETATM   16  C5  UNL     1      29.646  -2.036  53.391  1.00  0.00     0.001 A 
HETATM   17  C6  UNL     1      28.327  -2.175  53.028  1.00  0.00     0.012 A 
HETATM   18  C8  UNL     1      26.286  -1.096  52.691  1.00  0.00    -0.012 A 
HETATM   19  C9  UNL     1      25.273  -0.005  52.621  1.00  0.00     0.060 A 
BRANCH  11  20
HETATM   20  N1  UNL     1      27.730   2.571  53.708  1.00  0.00    -0.400 N 
HETATM   21  H1  UNL     1      27.393   3.557  53.775  1.00  0.00     0.156 HD
HETATM   22  H2  UNL     1      28.640   2.961  54.033  1.00  0.00     0.156 HD
ENDBRANCH  11  20
ENDBRANCH   1  10
BRANCH   5  23
HETATM   23  N3  UNL     1      24.363   5.798  49.243  1.00  0.00    -0.340 N 
HETATM   24  H13 UNL     1      23.754   5.522  48.418  1.00  0.00     0.167 HD
BRANCH  23  25
HETATM   25  C15 UNL     1      25.303   6.819  48.957  1.00  0.00     0.035 A 
HETATM   26  C16 UNL     1      25.026   8.161  49.242  1.00  0.00     0.029 A 
HETATM   27  C17 UNL     1      25.930   9.156  48.968  1.00  0.00     0.004 A 
HETATM   28  C18 UNL     1      27.146   8.891  48.403  1.00  0.00     0.019 A 
HETATM   29  C19 UNL     1      27.464   7.594  48.105  1.00  0.00     0.013 A 
HETATM   30 BR1  UNL     1      29.156   7.200  47.315  1.00  0.00    -0.051 Br
HETATM   31  C20 UNL     1      26.541   6.620  48.390  1.00  0.00     0.048 A 
ENDBRANCH  23  25
ENDBRANCH   5  23
TORSDOF 4
ENDMDL
MODEL 2
REMARK VINA RESULT:      -9.2      2.094      2.602
REMARK  4 active torsions:
REMARK  status: ('A' for Active; 'I' for Inactive)
REMARK    1  A    between atoms: N1_1  and  C1_2 
REMARK    2  A    between atoms: C10_11  and  N2_12 
REMARK    3  A    between atoms: C14_16  and  N3_17 
REMARK    4  A    between atoms: N3_17  and  C15_18 
ROOT
HETATM    1  N2  UNL     1      25.617   2.387  51.968  1.00  0.00    -0.330 N 
HETATM    2  C11 UNL     1      26.388   2.429  50.858  1.00  0.00     0.095 A 
HETATM    3  C12 UNL     1      25.894   3.518  50.181  1.00  0.00     0.036 A 
HETATM    4  C13 UNL     1      24.853   4.122  50.861  1.00  0.00     0.057 A 
HETATM    5  C14 UNL     1      24.066   5.220  50.576  1.00  0.00     0.143 A 
HETATM    6  N4  UNL     1      23.136   5.505  51.498  1.00  0.00    -0.223 NA
HETATM    7  C21 UNL     1      22.966   4.791  52.620  1.00  0.00     0.237 A 
HETATM    8  N5  UNL     1      23.749   3.734  52.861  1.00  0.00    -0.223 NA
HETATM    9  C22 UNL     1      24.710   3.366  51.998  1.00  0.00     0.145 A 
ENDROOT
BRANCH   1  10
HETATM   10  C10 UNL     1      25.773   1.376  53.014  1.00  0.00     0.144 A 
HETATM   11  C1  UNL     1      27.231   1.300  53.384  1.00  0.00     0.037 A 
HETATM   12  C2  UNL     1      28.028   0.242  53.376  1.00  0.00    -0.002 A 
HETATM   13  C3  UNL     1      29.341   0.418  53.761  1.00  0.00     0.014 A 
HETATM   14  C7  UNL     1      27.524  -0.963  52.994  1.00  0.00    -0.028 A 
HETATM   15  C4  UNL     1      30.134  -0.725  53.734  1.00  0.00     0.001 A 
HETATM   16  C5  UNL     1      29.628  -1.949  53.347  1.00  0.00     0.001 A 
HETATM   17  C6  UNL     1      28.314  -2.094  52.970  1.00  0.00     0.012 A 
HETATM   18  C8  UNL     1      26.263  -1.031  52.646  1.00  0.00    -0.012 A 
HETATM   19  C9  UNL     1      25.237   0.050  52.596  1.00  0.00     0.060 A 
BRANCH  11  20
HETATM   20  N1  UNL     1      27.655   2.625  53.769  1.00  0.00    -0.400 N 
HETATM   21  H1  UNL     1      27.892   3.198  54.609  1.00  0.00     0.156 HD
HETATM   22  H2  UNL     1      27.871   3.492  53.234  1.00  0.00     0.156 HD
ENDBRANCH  11  20
ENDBRANCH   1  10
BRANCH   5  23
HETATM   23  N3  UNL     1      24.293   5.937  49.371  1.00  0.00    -0.340 N 
HETATM   24  H13 UNL     1      25.125   6.597  49.359  1.00  0.00     0.167 HD
BRANCH  23  25
HETATM   25  C15 UNL     1      23.562   5.901  48.158  1.00  0.00     0.035 A 
HETATM   26  C16 UNL     1      22.796   4.783  47.807  1.00  0.00     0.029 A 
HETATM   27  C17 UNL     1      22.085   4.739  46.634  1.00  0.00     0.004 A 
HETATM   28  C18 UNL     1      22.086   5.781  45.748  1.00  0.00     0.019 A 
HETATM   29  C19 UNL     1      22.820   6.896  46.047  1.00  0.00     0.013 A 
HETATM   30 BR1  UNL     1      22.839   8.363  44.826  1.00  0.00    -0.051 Br
HETATM   31  C20 UNL     1      23.521   6.912  47.226  1.00  0.00     0.048 A 
ENDBRANCH  23  25
ENDBRANCH   5  23
TORSDOF 4
ENDMDL
MODEL 3
REMARK VINA RESULT:      -8.7      2.839      4.204
REMARK  4 active torsions:
REMARK  status: ('A' for Active; 'I' for Inactive)
REMARK    1  A    between atoms: N1_1  and  C1_2 
REMARK    2  A    between atoms: C10_11  and  N2_12 
REMARK    3  A    between atoms: C14_16  and  N3_17 
REMARK    4  A    between atoms: N3_17  and  C15_18 
ROOT
HETATM    1  N2  UNL     1      24.272   4.207  51.076  1.00  0.00    -0.330 N 
HETATM    2  C11 UNL     1      25.006   3.371  50.306  1.00  0.00     0.095 A 
HETATM    3  C12 UNL     1      25.696   4.233  49.487  1.00  0.00     0.036 A 
HETATM    4  C13 UNL     1      25.392   5.555  49.752  1.00  0.00     0.057 A 
HETATM    5  C14 UNL     1      25.827   6.742  49.197  1.00  0.00     0.143 A 
HETATM    6  N4  UNL     1      25.291   7.848  49.732  1.00  0.00    -0.223 NA
HETATM    7  C21 UNL     1      24.397   7.826  50.730  1.00  0.00     0.237 A 
HETATM    8  N5  UNL     1      23.999   6.656  51.242  1.00  0.00    -0.223 NA
HETATM    9  C22 UNL     1      24.477   5.491  50.774  1.00  0.00     0.145 A 
ENDROOT
BRANCH   1  10
HETATM   10  C10 UNL     1      23.360   3.741  52.120  1.00  0.00     0.144 A 
HETATM   11  C1  UNL     1      23.997   2.563  52.811  1.00  0.00     0.037 A 
HETATM   12  C2  UNL     1      23.508   1.343  52.975  1.00  0.00    -0.002 A 
HETATM   13  C3  UNL     1      24.283   0.422  53.650  1.00  0.00     0.014 A 
HETATM   14  C7  UNL     1      22.276   1.051  52.478  1.00  0.00    -0.028 A 
HETATM   15  C4  UNL     1      23.722  -0.844  53.794  1.00  0.00     0.001 A 
HETATM   16  C5  UNL     1      22.473  -1.145  53.291  1.00  0.00     0.001 A 
HETATM   17  C6  UNL     1      21.724  -0.205  52.623  1.00  0.00     0.012 A 
HETATM   18  C8  UNL     1      21.616   1.993  51.851  1.00  0.00    -0.012 A 
HETATM   19  C9  UNL     1      22.013   3.405  51.579  1.00  0.00     0.060 A 
BRANCH  11  20
HETATM   20  N1  UNL     1      25.290   2.985  53.295  1.00  0.00    -0.400 N 
HETATM   21  H1  UNL     1      26.089   3.614  53.059  1.00  0.00     0.156 HD
HETATM   22  H2  UNL     1      25.857   2.738  54.133  1.00  0.00     0.156 HD
ENDBRANCH  11  20
ENDBRANCH   1  10
BRANCH   5  23
HETATM   23  N3  UNL     1      26.777   6.701  48.142  1.00  0.00    -0.340 N 
HETATM   24  H13 UNL     1      26.392   6.599  47.158  1.00  0.00     0.167 HD
BRANCH  23  25
HETATM   25  C15 UNL     1      28.191   6.780  48.209  1.00  0.00     0.035 A 
HETATM   26  C16 UNL     1      28.983   5.627  48.191  1.00  0.00     0.029 A 
HETATM   27  C17 UNL     1      30.352   5.694  48.256  1.00  0.00     0.004 A 
HETATM   28  C18 UNL     1      31.013   6.887  48.342  1.00  0.00     0.019 A 
HETATM   29  C19 UNL     1      30.282   8.044  48.363  1.00  0.00     0.013 A 
HETATM   30 BR1  UNL     1      31.183   9.722  48.483  1.00  0.00    -0.051 Br
HETATM   31  C20 UNL     1      28.916   7.946  48.297  1.00  0.00     0.048 A 
ENDBRANCH  23  25
ENDBRANCH   5  23
TORSDOF 4
ENDMDL
MODEL 4
REMARK VINA RESULT:      -8.6      1.861      2.490
REMARK  4 active torsions:
REMARK  status: ('A' for Active; 'I' for Inactive)
REMARK    1  A    between atoms: N1_1  and  C1_2 
REMARK    2  A    between atoms: C10_11  and  N2_12 
REMARK    3  A    between atoms: C14_16  and  N3_17 
REMARK    4  A    between atoms: N3_17  and  C15_18 
ROOT
HETATM    1  N2  UNL     1      24.391   1.727  52.565  1.00  0.00    -0.330 N 
HETATM    2  C11 UNL     1      23.105   2.139  52.640  1.00  0.00     0.095 A 
HETATM    3  C12 UNL     1      22.990   2.985  51.562  1.00  0.00     0.036 A 
HETATM    4  C13 UNL     1      24.172   3.083  50.851  1.00  0.00     0.057 A 
HETATM    5  C14 UNL     1      24.526   3.796  49.724  1.00  0.00     0.143 A 
HETATM    6  N4  UNL     1      25.794   3.631  49.324  1.00  0.00    -0.223 NA
HETATM    7  C21 UNL     1      26.671   2.839  49.957  1.00  0.00     0.237 A 
HETATM    8  N5  UNL     1      26.291   2.164  51.048  1.00  0.00    -0.223 NA
HETATM    9  C22 UNL     1      25.041   2.262  51.529  1.00  0.00     0.145 A 
ENDROOT
BRANCH   1  10
HETATM   10  C10 UNL     1      24.991   0.795  53.520  1.00  0.00     0.144 A 
HETATM   11  C1  UNL     1      26.404   1.241  53.791  1.00  0.00     0.037 A 
HETATM   12  C2  UNL     1      27.525   0.548  53.654  1.00  0.00    -0.002 A 
HETATM   13  C3  UNL     1      28.714   1.175  53.967  1.00  0.00     0.014 A 
HETATM   14  C7  UNL     1      27.459  -0.738  53.216  1.00  0.00    -0.028 A 
HETATM   15  C4  UNL     1      29.861   0.403  53.805  1.00  0.00     0.001 A 
HETATM   16  C5  UNL     1      29.799  -0.903  53.360  1.00  0.00     0.001 A 
HETATM   17  C6  UNL     1      28.599  -1.500  53.057  1.00  0.00     0.012 A 
HETATM   18  C8  UNL     1      26.282  -1.246  52.944  1.00  0.00    -0.012 A 
HETATM   19  C9  UNL     1      24.935  -0.614  53.040  1.00  0.00     0.060 A 
BRANCH  11  20
HETATM   20  N1  UNL     1      26.353   2.609  54.246  1.00  0.00    -0.400 N 
HETATM   21  H1  UNL     1      25.699   3.316  54.650  1.00  0.00     0.156 HD
HETATM   22  H2  UNL     1      27.060   3.373  54.302  1.00  0.00     0.156 HD
ENDBRANCH  11  20
ENDBRANCH   1  10
BRANCH   5  23
HETATM   23  N3  UNL     1      23.553   4.618  49.095  1.00  0.00    -0.340 N 
HETATM   24  H13 UNL     1      22.737   4.122  48.631  1.00  0.00     0.167 HD
BRANCH  23  25
HETATM   25  C15 UNL     1      23.507   6.031  48.997  1.00  0.00     0.035 A 
HETATM   26  C16 UNL     1      22.899   6.808  49.989  1.00  0.00     0.029 A 
HETATM   27  C17 UNL     1      22.850   8.177  49.901  1.00  0.00     0.004 A 
HETATM   28  C18 UNL     1      23.390   8.853  48.843  1.00  0.00     0.019 A 
HETATM   29  C19 UNL     1      23.996   8.137  47.846  1.00  0.00     0.013 A 
HETATM   30 BR1  UNL     1      24.757   9.058  46.358  1.00  0.00    -0.051 Br
HETATM   31  C20 UNL     1      24.030   6.770  47.961  1.00  0.00     0.048 A 
ENDBRANCH  23  25
ENDBRANCH   5  23
TORSDOF 4
ENDMDL
MODEL 5
REMARK VINA RESULT:      -8.5      2.719      3.619
REMARK  4 active torsions:
REMARK  status: ('A' for Active; 'I' for Inactive)
REMARK    1  A    between atoms: N1_1  and  C1_2 
REMARK    2  A    between atoms: C10_11  and  N2_12 
REMARK    3  A    between atoms: C14_16  and  N3_17 
REMARK    4  A    between atoms: N3_17  and  C15_18 
ROOT
HETATM    1  N2  UNL     1      24.419   1.876  52.596  1.00  0.00    -0.330 N 
HETATM    2  C11 UNL     1      23.159   2.354  52.704  1.00  0.00     0.095 A 
HETATM    3  C12 UNL     1      23.071   3.231  51.649  1.00  0.00     0.036 A 
HETATM    4  C13 UNL     1      24.244   3.283  50.919  1.00  0.00     0.057 A 
HETATM    5  C14 UNL     1      24.616   4.004  49.802  1.00  0.00     0.143 A 
HETATM    6  N4  UNL     1      25.867   3.782  49.375  1.00  0.00    -0.223 NA
HETATM    7  C21 UNL     1      26.711   2.929  49.974  1.00  0.00     0.237 A 
HETATM    8  N5  UNL     1      26.314   2.249  51.055  1.00  0.00    -0.223 NA
HETATM    9  C22 UNL     1      25.079   2.401  51.561  1.00  0.00     0.145 A 
ENDROOT
BRANCH   1  10
HETATM   10  C10 UNL     1      24.984   0.891  53.518  1.00  0.00     0.144 A 
HETATM   11  C1  UNL     1      26.418   1.263  53.787  1.00  0.00     0.037 A 
HETATM   12  C2  UNL     1      27.505   0.525  53.619  1.00  0.00    -0.002 A 
HETATM   13  C3  UNL     1      28.724   1.087  53.937  1.00  0.00     0.014 A 
HETATM   14  C7  UNL     1      27.377  -0.744  53.145  1.00  0.00    -0.028 A 
HETATM   15  C4  UNL     1      29.833   0.269  53.742  1.00  0.00     0.001 A 
HETATM   16  C5  UNL     1      29.708  -1.018  53.261  1.00  0.00     0.001 A 
HETATM   17  C6  UNL     1      28.479  -1.552  52.953  1.00  0.00     0.012 A 
HETATM   18  C8  UNL     1      26.176  -1.189  52.870  1.00  0.00    -0.012 A 
HETATM   19  C9  UNL     1      24.860  -0.500  52.998  1.00  0.00     0.060 A 
BRANCH  11  20
HETATM   20  N1  UNL     1      26.434   2.619  54.282  1.00  0.00    -0.400 N 
HETATM   21  H1  UNL     1      26.964   3.515  54.202  1.00  0.00     0.156 HD
HETATM   22  H2  UNL     1      25.833   3.145  54.950  1.00  0.00     0.156 HD
ENDBRANCH  11  20
ENDBRANCH   1  10
BRANCH   5  23
HETATM   23  N3  UNL     1      23.678   4.892  49.211  1.00  0.00    -0.340 N 
HETATM   24  H13 UNL     1      23.483   5.796  49.732  1.00  0.00     0.167 HD
BRANCH  23  25
HETATM   25  C15 UNL     1      22.951   4.748  48.003  1.00  0.00     0.035 A 
HETATM   26  C16 UNL     1      22.410   3.514  47.625  1.00  0.00     0.029 A 
HETATM   27  C17 UNL     1      21.706   3.366  46.457  1.00  0.00     0.004 A 
HETATM   28  C18 UNL     1      21.495   4.412  45.602  1.00  0.00     0.019 A 
HETATM   29  C19 UNL     1      22.004   5.640  45.928  1.00  0.00     0.013 A 
HETATM   30 BR1  UNL     1      21.724   7.116  44.751  1.00  0.00    -0.051 Br
HETATM   31  C20 UNL     1      22.705   5.758  47.102  1.00  0.00     0.048 A 
ENDBRANCH  23  25
ENDBRANCH   5  23
TORSDOF 4
ENDMDL
MODEL 6
REMARK VINA RESULT:      -8.5      3.575      5.126
REMARK  4 active torsions:
REMARK  status: ('A' for Active; 'I' for Inactive)
REMARK    1  A    between atoms: N1_1  and  C1_2 
REMARK    2  A    between atoms: C10_11  and  N2_12 
REMARK    3  A    between atoms: C14_16  and  N3_17 
REMARK    4  A    between atoms: N3_17  and  C15_18 
ROOT
HETATM    1  N2  UNL     1      24.813   4.160  49.688  1.00  0.00    -0.330 N 
HETATM    2  C11 UNL     1      25.818   3.267  49.830  1.00  0.00     0.095 A 
HETATM    3  C12 UNL     1      26.899   3.933  49.302  1.00  0.00     0.036 A 
HETATM    4  C13 UNL     1      26.561   5.196  48.853  1.00  0.00     0.057 A 
HETATM    5  C14 UNL     1      27.296   6.204  48.262  1.00  0.00     0.143 A 
HETATM    6  N4  UNL     1      26.601   7.310  47.961  1.00  0.00    -0.223 NA
HETATM    7  C21 UNL     1      25.291   7.449  48.206  1.00  0.00     0.237 A 
HETATM    8  N5  UNL     1      24.612   6.449  48.780  1.00  0.00    -0.223 NA
HETATM    9  C22 UNL     1      25.217   5.299  49.119  1.00  0.00     0.145 A 
ENDROOT
BRANCH   1  10
HETATM   10  C10 UNL     1      23.440   3.896  50.116  1.00  0.00     0.144 A 
HETATM   11  C1  UNL     1      23.487   3.213  51.457  1.00  0.00     0.037 A 
HETATM   12  C2  UNL     1      22.957   2.050  51.808  1.00  0.00    -0.002 A 
HETATM   13  C3  UNL     1      23.133   1.625  53.109  1.00  0.00     0.014 A 
HETATM   14  C7  UNL     1      22.268   1.331  50.882  1.00  0.00    -0.028 A 
HETATM   15  C4  UNL     1      22.556   0.398  53.424  1.00  0.00     0.001 A 
HETATM   16  C5  UNL     1      21.857  -0.335  52.487  1.00  0.00     0.001 A 
HETATM   17  C6  UNL     1      21.697   0.115  51.198  1.00  0.00     0.012 A 
HETATM   18  C8  UNL     1      22.155   1.818  49.670  1.00  0.00    -0.012 A 
HETATM   19  C9  UNL     1      22.684   3.095  49.112  1.00  0.00     0.060 A 
BRANCH  11  20
HETATM   20  N1  UNL     1      24.237   4.059  52.354  1.00  0.00    -0.400 N 
HETATM   21  H1  UNL     1      25.119   4.084  52.913  1.00  0.00     0.156 HD
HETATM   22  H2  UNL     1      24.076   5.012  52.743  1.00  0.00     0.156 HD
ENDBRANCH  11  20
ENDBRANCH   1  10
BRANCH   5  23
HETATM   23  N3  UNL     1      28.682   5.999  48.029  1.00  0.00    -0.340 N 
HETATM   24  H13 UNL     1      28.946   5.165  47.428  1.00  0.00     0.167 HD
BRANCH  23  25
HETATM   25  C15 UNL     1      29.786   6.761  48.486  1.00  0.00     0.035 A 
HETATM   26  C16 UNL     1      30.974   6.142  48.893  1.00  0.00     0.029 A 
HETATM   27  C17 UNL     1      32.048   6.872  49.338  1.00  0.00     0.004 A 
HETATM   28  C18 UNL     1      32.016   8.237  49.407  1.00  0.00     0.019 A 
HETATM   29  C19 UNL     1      30.876   8.888  49.020  1.00  0.00     0.013 A 
HETATM   30 BR1  UNL     1      30.807  10.793  49.108  1.00  0.00    -0.051 Br
HETATM   31  C20 UNL     1      29.818   8.133  48.580  1.00  0.00     0.048 A 
ENDBRANCH  23  25
ENDBRANCH   5  23
TORSDOF 4
ENDMDL
MODEL 7
REMARK VINA RESULT:      -8.4      5.799      8.845
REMARK  4 active torsions:
REMARK  status: ('A' for Active; 'I' for Inactive)
REMARK    1  A    between atoms: N1_1  and  C1_2 
REMARK    2  A    between atoms: C10_11  and  N2_12 
REMARK    3  A    between atoms: C14_16  and  N3_17 
REMARK    4  A    between atoms: N3_17  and  C15_18 
ROOT
HETATM    1  N2  UNL     1      28.137   7.331  48.285  1.00  0.00    -0.330 N 
HETATM    2  C11 UNL     1      27.999   6.000  48.092  1.00  0.00     0.095 A 
HETATM    3  C12 UNL     1      29.274   5.526  48.288  1.00  0.00     0.036 A 
HETATM    4  C13 UNL     1      30.163   6.540  48.594  1.00  0.00     0.057 A 
HETATM    5  C14 UNL     1      31.516   6.544  48.865  1.00  0.00     0.143 A 
HETATM    6  N4  UNL     1      32.039   7.751  49.121  1.00  0.00    -0.223 NA
HETATM    7  C21 UNL     1      31.321   8.882  49.118  1.00  0.00     0.237 A 
HETATM    8  N5  UNL     1      30.011   8.839  48.850  1.00  0.00    -0.223 NA
HETATM    9  C22 UNL     1      29.393   7.677  48.580  1.00  0.00     0.145 A 
ENDROOT
BRANCH   1  10
HETATM   10  C10 UNL     1      27.026   8.276  48.180  1.00  0.00     0.144 A 
HETATM   11  C1  UNL     1      26.150   8.110  49.394  1.00  0.00     0.037 A 
HETATM   12  C2  UNL     1      24.853   7.845  49.443  1.00  0.00    -0.002 A 
HETATM   13  C3  UNL     1      24.261   7.738  50.685  1.00  0.00     0.014 A 
HETATM   14  C7  UNL     1      24.165   7.689  48.280  1.00  0.00    -0.028 A 
HETATM   15  C4  UNL     1      22.897   7.458  50.679  1.00  0.00     0.001 A 
HETATM   16  C5  UNL     1      22.195   7.299  49.501  1.00  0.00     0.001 A 
HETATM   17  C6  UNL     1      22.813   7.412  48.278  1.00  0.00     0.012 A 
HETATM   18  C8  UNL     1      24.815   7.809  47.149  1.00  0.00    -0.012 A 
HETATM   19  C9  UNL     1      26.258   8.101  46.915  1.00  0.00     0.060 A 
BRANCH  11  20
HETATM   20  N1  UNL     1      26.978   8.294  50.562  1.00  0.00    -0.400 N 
HETATM   21  H1  UNL     1      27.145   8.954  51.354  1.00  0.00     0.156 HD
HETATM   22  H2  UNL     1      27.746   7.735  50.991  1.00  0.00     0.156 HD
ENDBRANCH  11  20
ENDBRANCH   1  10
BRANCH   5  23
HETATM   23  N3  UNL     1      32.224   5.313  48.854  1.00  0.00    -0.340 N 
HETATM   24  H13 UNL     1      32.130   4.700  49.716  1.00  0.00     0.167 HD
BRANCH  23  25
HETATM   25  C15 UNL     1      33.053   4.768  47.842  1.00  0.00     0.035 A 
HETATM   26  C16 UNL     1      34.129   3.931  48.158  1.00  0.00     0.029 A 
HETATM   27  C17 UNL     1      34.937   3.400  47.184  1.00  0.00     0.004 A 
HETATM   28  C18 UNL     1      34.735   3.659  45.857  1.00  0.00     0.019 A 
HETATM   29  C19 UNL     1      33.695   4.472  45.497  1.00  0.00     0.013 A 
HETATM   30 BR1  UNL     1      33.393   4.849  43.650  1.00  0.00    -0.051 Br
HETATM   31  C20 UNL     1      32.904   4.989  46.492  1.00  0.00     0.048 A 
ENDBRANCH  23  25
ENDBRANCH   5  23
TORSDOF 4
ENDMDL
MODEL 8
REMARK VINA RESULT:      -8.2      3.256      4.912
REMARK  4 active torsions:
REMARK  status: ('A' for Active; 'I' for Inactive)
REMARK    1  A    between atoms: N1_1  and  C1_2 
REMARK    2  A    between atoms: C10_11  and  N2_12 
REMARK    3  A    between atoms: C14_16  and  N3_17 
REMARK    4  A    between atoms: N3_17  and  C15_18 
ROOT
HETATM    1  N2  UNL     1      24.362   3.124  51.319  1.00  0.00    -0.330 N 
HETATM    2  C11 UNL     1      23.494   3.886  52.023  1.00  0.00     0.095 A 
HETATM    3  C12 UNL     1      23.804   5.161  51.616  1.00  0.00     0.036 A 
HETATM    4  C13 UNL     1      24.830   5.175  50.689  1.00  0.00     0.057 A 
HETATM    5  C14 UNL     1      25.465   6.198  50.015  1.00  0.00     0.143 A 
HETATM    6  N4  UNL     1      26.437   5.809  49.178  1.00  0.00    -0.223 NA
HETATM    7  C21 UNL     1      26.783   4.527  48.995  1.00  0.00     0.237 A 
HETATM    8  N5  UNL     1      26.145   3.562  49.667  1.00  0.00    -0.223 NA
HETATM    9  C22 UNL     1      25.156   3.850  50.530  1.00  0.00     0.145 A 
ENDROOT
BRANCH   1  10
HETATM   10  C10 UNL     1      24.411   1.665  51.421  1.00  0.00     0.144 A 
HETATM   11  C1  UNL     1      23.001   1.153  51.552  1.00  0.00     0.037 A 
HETATM   12  C2  UNL     1      22.489   0.389  52.505  1.00  0.00    -0.002 A 
HETATM   13  C3  UNL     1      21.157   0.043  52.411  1.00  0.00     0.014 A 
HETATM   14  C7  UNL     1      23.289  -0.021  53.527  1.00  0.00    -0.028 A 
HETATM   15  C4  UNL     1      20.669  -0.761  53.438  1.00  0.00     0.001 A 
HETATM   16  C5  UNL     1      21.477  -1.178  54.477  1.00  0.00     0.001 A 
HETATM   17  C6  UNL     1      22.802  -0.818  54.543  1.00  0.00     0.012 A 
HETATM   18  C8  UNL     1      24.543   0.360  53.530  1.00  0.00    -0.012 A 
HETATM   19  C9  UNL     1      25.274   1.210  52.547  1.00  0.00     0.060 A 
BRANCH  11  20
HETATM   20  N1  UNL     1      22.248   1.645  50.424  1.00  0.00    -0.400 N 
HETATM   21  H1  UNL     1      21.673   2.460  50.113  1.00  0.00     0.156 HD
HETATM   22  H2  UNL     1      22.046   1.264  49.475  1.00  0.00     0.156 HD
ENDBRANCH  11  20
ENDBRANCH   1  10
BRANCH   5  23
HETATM   23  N3  UNL     1      25.053   7.537  50.250  1.00  0.00    -0.340 N 
HETATM   24  H13 UNL     1      25.563   8.066  51.016  1.00  0.00     0.167 HD
BRANCH  23  25
HETATM   25  C15 UNL     1      24.043   8.288  49.598  1.00  0.00     0.035 A 
HETATM   26  C16 UNL     1      24.356   9.190  48.574  1.00  0.00     0.029 A 
HETATM   27  C17 UNL     1      23.385   9.921  47.939  1.00  0.00     0.004 A 
HETATM   28  C18 UNL     1      22.063   9.809  48.270  1.00  0.00     0.019 A 
HETATM   29  C19 UNL     1      21.706   8.941  49.265  1.00  0.00     0.013 A 
HETATM   30 BR1  UNL     1      19.867   8.768  49.746  1.00  0.00    -0.051 Br
HETATM   31  C20 UNL     1      22.698   8.223  49.883  1.00  0.00     0.048 A 
ENDBRANCH  23  25
ENDBRANCH   5  23
TORSDOF 4
ENDMDL
MODEL 9
REMARK VINA RESULT:      -8.1      4.249      5.767
REMARK  4 active torsions:
REMARK  status: ('A' for Active; 'I' for Inactive)
REMARK    1  A    between atoms: N1_1  and  C1_2 
REMARK    2  A    between atoms: C10_11  and  N2_12 
REMARK    3  A    between atoms: C14_16  and  N3_17 
REMARK    4  A    between atoms: N3_17  and  C15_18 
ROOT
HETATM    1  N2  UNL     1      24.067   4.271  49.190  1.00  0.00    -0.330 N 
HETATM    2  C11 UNL     1      25.034   3.577  49.832  1.00  0.00     0.095 A 
HETATM    3  C12 UNL     1      26.132   4.395  49.711  1.00  0.00     0.036 A 
HETATM    4  C13 UNL     1      25.840   5.555  49.016  1.00  0.00     0.057 A 
HETATM    5  C14 UNL     1      26.607   6.645  48.658  1.00  0.00     0.143 A 
HETATM    6  N4  UNL     1      25.956   7.595  47.971  1.00  0.00    -0.223 NA
HETATM    7  C21 UNL     1      24.658   7.512  47.647  1.00  0.00     0.237 A 
HETATM    8  N5  UNL     1      23.948   6.439  48.012  1.00  0.00    -0.223 NA
HETATM    9  C22 UNL     1      24.509   5.432  48.702  1.00  0.00     0.145 A 
ENDROOT
BRANCH   1  10
HETATM   10  C10 UNL     1      22.692   3.790  49.054  1.00  0.00     0.144 A 
HETATM   11  C1  UNL     1      22.086   3.699  50.430  1.00  0.00     0.037 A 
HETATM   12  C2  UNL     1      21.533   2.648  51.017  1.00  0.00    -0.002 A 
HETATM   13  C3  UNL     1      21.040   2.807  52.296  1.00  0.00     0.014 A 
HETATM   14  C7  UNL     1      21.474   1.468  50.343  1.00  0.00    -0.028 A 
HETATM   15  C4  UNL     1      20.470   1.673  52.866  1.00  0.00     0.001 A 
HETATM   16  C5  UNL     1      20.408   0.473  52.186  1.00  0.00     0.001 A 
HETATM   17  C6  UNL     1      20.908   0.345  50.912  1.00  0.00     0.012 A 
HETATM   18  C8  UNL     1      21.970   1.415  49.131  1.00  0.00    -0.012 A 
HETATM   19  C9  UNL     1      22.622   2.490  48.329  1.00  0.00     0.060 A 
BRANCH  11  20
HETATM   20  N1  UNL     1      22.204   4.998  51.048  1.00  0.00    -0.400 N 
HETATM   21  H1  UNL     1      22.755   5.883  50.999  1.00  0.00     0.156 HD
HETATM   22  H2  UNL     1      21.695   5.471  51.824  1.00  0.00     0.156 HD
ENDBRANCH  11  20
ENDBRANCH   1  10
BRANCH   5  23
HETATM   23  N3  UNL     1      27.977   6.676  49.031  1.00  0.00    -0.340 N 
HETATM   24  H13 UNL     1      28.187   6.748  50.069  1.00  0.00     0.167 HD
BRANCH  23  25
HETATM   25  C15 UNL     1      29.129   6.622  48.206  1.00  0.00     0.035 A 
HETATM   26  C16 UNL     1      29.419   7.647  47.299  1.00  0.00     0.029 A 
HETATM   27  C17 UNL     1      30.531   7.603  46.496  1.00  0.00     0.004 A 
HETATM   28  C18 UNL     1      31.413   6.559  46.540  1.00  0.00     0.019 A 
HETATM   29  C19 UNL     1      31.173   5.532  47.412  1.00  0.00     0.013 A 
HETATM   30 BR1  UNL     1      32.389   4.063  47.491  1.00  0.00    -0.051 Br
HETATM   31  C20 UNL     1      30.053   5.603  48.201  1.00  0.00     0.048 A 
ENDBRANCH  23  25
ENDBRANCH   5  23
TORSDOF 4
ENDMDL
