MODEL 1
REMARK VINA RESULT:      -8.7      0.000      0.000
REMARK  7 active torsions:
REMARK  status: ('A' for Active; 'I' for Inactive)
REMARK    1  A    between atoms: O1_2  and  C2_3 
REMARK    2  A    between atoms: C6_9  and  N3_10 
REMARK    3  A    between atoms: N3_10  and  C7_11 
REMARK    4  A    between atoms: C15_21  and  C16_22 
REMARK    5  A    between atoms: C16_22  and  C17_23 
REMARK    6  A    between atoms: C17_23  and  C18_24 
REMARK    7  A    between atoms: C18_24  and  N4_25 
ROOT
HETATM    1  C2  UNL     1      22.360  -0.370  52.748  1.00  0.00     0.076 A 
HETATM    2  C3  UNL     1      21.591   0.213  51.783  1.00  0.00     0.070 A 
HETATM    3  C4  UNL     1      22.010   1.334  51.123  1.00  0.00     0.074 A 
HETATM    4  N1  UNL     1      21.177   1.829  50.191  1.00  0.00    -0.241 NA
HETATM    5  C5  UNL     1      21.480   2.913  49.490  1.00  0.00     0.236 A 
HETATM    6  N2  UNL     1      22.655   3.485  49.761  1.00  0.00    -0.224 NA
HETATM    7  C6  UNL     1      23.557   3.084  50.659  1.00  0.00     0.142 A 
HETATM    8  C13 UNL     1      23.208   1.963  51.361  1.00  0.00     0.039 A 
HETATM    9  C14 UNL     1      23.969   1.363  52.335  1.00  0.00     0.027 A 
HETATM   10  C15 UNL     1      23.571   0.232  53.016  1.00  0.00    -0.024 A 
ENDROOT
BRANCH   7  11
HETATM   11  N3  UNL     1      24.797   3.705  50.938  1.00  0.00    -0.340 N 
HETATM   12  H6  UNL     1      25.225   3.674  51.875  1.00  0.00     0.167 HD
BRANCH  11  13
HETATM   13  C7  UNL     1      25.660   4.441  50.087  1.00  0.00     0.035 A 
HETATM   14  C8  UNL     1      26.806   3.942  49.458  1.00  0.00     0.032 A 
HETATM   15  C9  UNL     1      27.596   4.714  48.644  1.00  0.00     0.046 A 
HETATM   16  C10 UNL     1      27.308   6.032  48.397  1.00  0.00     0.138 A 
HETATM   17  F1  UNL     1      28.170   6.671  47.579  1.00  0.00    -0.204 F 
HETATM   18  C11 UNL     1      26.188   6.559  48.999  1.00  0.00     0.074 A 
HETATM   19 CL1  UNL     1      25.866   8.244  48.651  1.00  0.00    -0.081 Cl
HETATM   20  C12 UNL     1      25.410   5.766  49.812  1.00  0.00     0.056 A 
ENDBRANCH  11  13
ENDBRANCH   7  11
BRANCH  10  21
HETATM   21  C16 UNL     1      24.478  -0.375  54.095  1.00  0.00     0.043 C 
BRANCH  21  22
HETATM   22  C17 UNL     1      25.707  -0.929  53.449  1.00  0.00     0.035 C 
BRANCH  22  23
HETATM   23  C18 UNL     1      27.021  -0.398  53.797  1.00  0.00     0.273 C 
BRANCH  23  24
HETATM   24  N4  UNL     1      27.862   0.293  52.910  1.00  0.00     0.092 N 
HETATM   25  C19 UNL     1      29.196   0.422  53.558  1.00  0.00     0.298 C 
HETATM   26  C20 UNL     1      29.292   1.587  54.441  1.00  0.00     0.198 C 
HETATM   27  O2  UNL     1      28.486   2.659  54.248  1.00  0.00    -0.388 OA
HETATM   28  C21 UNL     1      27.243   2.430  53.681  1.00  0.00     0.198 C 
HETATM   29  C22 UNL     1      27.483   1.600  52.442  1.00  0.00     0.298 C 
ENDBRANCH  23  24
ENDBRANCH  22  23
ENDBRANCH  21  22
ENDBRANCH  10  21
BRANCH   1  30
HETATM   30  O1  UNL     1      22.034  -1.501  53.476  1.00  0.00    -0.355 OA
HETATM   31  C1  UNL     1      20.831  -1.654  54.211  1.00  0.00     0.210 C 
ENDBRANCH   1  30
TORSDOF 7
ENDMDL
MODEL 2
REMARK VINA RESULT:      -8.7      3.371      5.953
REMARK  7 active torsions:
REMARK  status: ('A' for Active; 'I' for Inactive)
REMARK    1  A    between atoms: O1_2  and  C2_3 
REMARK    2  A    between atoms: C6_9  and  N3_10 
REMARK    3  A    between atoms: N3_10  and  C7_11 
REMARK    4  A    between atoms: C15_21  and  C16_22 
REMARK    5  A    between atoms: C16_22  and  C17_23 
REMARK    6  A    between atoms: C17_23  and  C18_24 
REMARK    7  A    between atoms: C18_24  and  N4_25 
ROOT
HETATM    1  C2  UNL     1      20.015  -0.089  52.491  1.00  0.00     0.076 A 
HETATM    2  C3  UNL     1      20.368  -0.650  53.684  1.00  0.00     0.070 A 
HETATM    3  C4  UNL     1      21.679  -0.775  54.051  1.00  0.00     0.074 A 
HETATM    4  N1  UNL     1      21.917  -1.343  55.245  1.00  0.00    -0.241 NA
HETATM    5  C5  UNL     1      23.149  -1.514  55.702  1.00  0.00     0.236 A 
HETATM    6  N2  UNL     1      24.139  -1.095  54.911  1.00  0.00    -0.224 NA
HETATM    7  C6  UNL     1      24.022  -0.522  53.711  1.00  0.00     0.142 A 
HETATM    8  C13 UNL     1      22.735  -0.361  53.276  1.00  0.00     0.039 A 
HETATM    9  C14 UNL     1      22.362   0.201  52.079  1.00  0.00     0.027 A 
HETATM   10  C15 UNL     1      21.049   0.340  51.684  1.00  0.00    -0.024 A 
ENDROOT
BRANCH   7  11
HETATM   11  N3  UNL     1      25.082  -0.088  52.882  1.00  0.00    -0.340 N 
HETATM   12  H6  UNL     1      24.913   0.368  51.973  1.00  0.00     0.167 HD
BRANCH  11  13
HETATM   13  C7  UNL     1      26.484  -0.164  53.079  1.00  0.00     0.035 A 
HETATM   14  C8  UNL     1      27.268  -1.314  52.934  1.00  0.00     0.032 A 
HETATM   15  C9  UNL     1      28.624  -1.314  53.141  1.00  0.00     0.046 A 
HETATM   16  C10 UNL     1      29.299  -0.177  53.506  1.00  0.00     0.138 A 
HETATM   17  F1  UNL     1      30.629  -0.321  53.676  1.00  0.00    -0.204 F 
HETATM   18  C11 UNL     1      28.561   0.975  53.658  1.00  0.00     0.074 A 
HETATM   19 CL1  UNL     1      29.471   2.397  54.124  1.00  0.00    -0.081 Cl
HETATM   20  C12 UNL     1      27.201   0.952  53.445  1.00  0.00     0.056 A 
ENDBRANCH  11  13
ENDBRANCH   7  11
BRANCH  10  21
HETATM   21  C16 UNL     1      20.716   0.975  50.328  1.00  0.00     0.043 C 
BRANCH  21  22
HETATM   22  C17 UNL     1      21.924   1.687  49.809  1.00  0.00     0.035 C 
BRANCH  22  23
HETATM   23  C18 UNL     1      22.082   3.121  50.028  1.00  0.00     0.273 C 
BRANCH  23  24
HETATM   24  N4  UNL     1      23.316   3.783  50.120  1.00  0.00     0.092 N 
HETATM   25  C19 UNL     1      24.118   3.102  51.174  1.00  0.00     0.298 C 
HETATM   26  C20 UNL     1      23.834   3.603  52.520  1.00  0.00     0.198 C 
HETATM   27  O2  UNL     1      23.340   4.853  52.694  1.00  0.00    -0.388 OA
HETATM   28  C21 UNL     1      22.565   5.382  51.676  1.00  0.00     0.198 C 
HETATM   29  C22 UNL     1      23.349   5.194  50.398  1.00  0.00     0.298 C 
ENDBRANCH  23  24
ENDBRANCH  22  23
ENDBRANCH  21  22
ENDBRANCH  10  21
BRANCH   1  30
HETATM   30  O1  UNL     1      18.725   0.086  52.022  1.00  0.00    -0.355 OA
HETATM   31  C1  UNL     1      17.664  -0.823  52.260  1.00  0.00     0.210 C 
ENDBRANCH   1  30
TORSDOF 7
ENDMDL
MODEL 3
REMARK VINA RESULT:      -8.1      3.749      6.412
REMARK  7 active torsions:
REMARK  status: ('A' for Active; 'I' for Inactive)
REMARK    1  A    between atoms: O1_2  and  C2_3 
REMARK    2  A    between atoms: C6_9  and  N3_10 
REMARK    3  A    between atoms: N3_10  and  C7_11 
REMARK    4  A    between atoms: C15_21  and  C16_22 
REMARK    5  A    between atoms: C16_22  and  C17_23 
REMARK    6  A    between atoms: C17_23  and  C18_24 
REMARK    7  A    between atoms: C18_24  and  N4_25 
ROOT
HETATM    1  C2  UNL     1      21.389   1.736  49.327  1.00  0.00     0.076 A 
HETATM    2  C3  UNL     1      20.752   0.934  50.228  1.00  0.00     0.070 A 
HETATM    3  C4  UNL     1      21.333   0.606  51.421  1.00  0.00     0.074 A 
HETATM    4  N1  UNL     1      20.623  -0.192  52.237  1.00  0.00    -0.241 NA
HETATM    5  C5  UNL     1      21.087  -0.573  53.418  1.00  0.00     0.236 A 
HETATM    6  N2  UNL     1      22.299  -0.123  53.752  1.00  0.00    -0.224 NA
HETATM    7  C6  UNL     1      23.091   0.668  53.026  1.00  0.00     0.142 A 
HETATM    8  C13 UNL     1      22.576   1.041  51.815  1.00  0.00     0.039 A 
HETATM    9  C14 UNL     1      23.202   1.848  50.896  1.00  0.00     0.027 A 
HETATM   10  C15 UNL     1      22.639   2.194  49.686  1.00  0.00    -0.024 A 
ENDROOT
BRANCH   7  11
HETATM   11  N3  UNL     1      24.377   1.132  53.392  1.00  0.00    -0.340 N 
HETATM   12  H6  UNL     1      24.529   2.080  53.768  1.00  0.00     0.167 HD
BRANCH  11  13
HETATM   13  C7  UNL     1      25.632   0.476  53.339  1.00  0.00     0.035 A 
HETATM   14  C8  UNL     1      25.860  -0.811  52.839  1.00  0.00     0.032 A 
HETATM   15  C9  UNL     1      27.106  -1.384  52.818  1.00  0.00     0.046 A 
HETATM   16  C10 UNL     1      28.213  -0.725  53.290  1.00  0.00     0.138 A 
HETATM   17  F1  UNL     1      29.373  -1.408  53.209  1.00  0.00    -0.204 F 
HETATM   18  C11 UNL     1      28.028   0.544  53.790  1.00  0.00     0.074 A 
HETATM   19 CL1  UNL     1      29.472   1.340  54.379  1.00  0.00    -0.081 Cl
HETATM   20  C12 UNL     1      26.768   1.099  53.801  1.00  0.00     0.056 A 
ENDBRANCH  11  13
ENDBRANCH   7  11
BRANCH  10  21
HETATM   21  C16 UNL     1      23.406   3.097  48.712  1.00  0.00     0.043 C 
BRANCH  21  22
HETATM   22  C17 UNL     1      24.428   3.882  49.470  1.00  0.00     0.035 C 
BRANCH  22  23
HETATM   23  C18 UNL     1      24.306   5.332  49.580  1.00  0.00     0.273 C 
BRANCH  23  24
HETATM   24  N4  UNL     1      24.254   6.038  50.792  1.00  0.00     0.092 N 
HETATM   25  C19 UNL     1      23.359   5.287  51.715  1.00  0.00     0.298 C 
HETATM   26  C20 UNL     1      21.944   5.627  51.541  1.00  0.00     0.198 C 
HETATM   27  O2  UNL     1      21.589   6.827  51.020  1.00  0.00    -0.388 OA
HETATM   28  C21 UNL     1      22.469   7.425  50.132  1.00  0.00     0.198 C 
HETATM   29  C22 UNL     1      23.825   7.412  50.798  1.00  0.00     0.298 C 
ENDBRANCH  23  24
ENDBRANCH  22  23
ENDBRANCH  21  22
ENDBRANCH  10  21
BRANCH   1  30
HETATM   30  O1  UNL     1      20.895   2.129  48.095  1.00  0.00    -0.355 OA
HETATM   31  C1  UNL     1      19.670   2.819  47.913  1.00  0.00     0.210 C 
ENDBRANCH   1  30
TORSDOF 7
ENDMDL
MODEL 4
REMARK VINA RESULT:      -8.0      4.140      6.266
REMARK  7 active torsions:
REMARK  status: ('A' for Active; 'I' for Inactive)
REMARK    1  A    between atoms: O1_2  and  C2_3 
REMARK    2  A    between atoms: C6_9  and  N3_10 
REMARK    3  A    between atoms: N3_10  and  C7_11 
REMARK    4  A    between atoms: C15_21  and  C16_22 
REMARK    5  A    between atoms: C16_22  and  C17_23 
REMARK    6  A    between atoms: C17_23  and  C18_24 
REMARK    7  A    between atoms: C18_24  and  N4_25 
ROOT
HETATM    1  C2  UNL     1      24.954   5.008  49.486  1.00  0.00     0.076 A 
HETATM    2  C3  UNL     1      25.194   6.204  48.875  1.00  0.00     0.070 A 
HETATM    3  C4  UNL     1      26.428   6.511  48.374  1.00  0.00     0.074 A 
HETATM    4  N1  UNL     1      26.558   7.716  47.793  1.00  0.00    -0.241 NA
HETATM    5  C5  UNL     1      27.709   8.119  47.274  1.00  0.00     0.236 A 
HETATM    6  N2  UNL     1      28.730   7.264  47.360  1.00  0.00    -0.224 NA
HETATM    7  C6  UNL     1      28.718   6.049  47.912  1.00  0.00     0.142 A 
HETATM    8  C13 UNL     1      27.512   5.670  48.436  1.00  0.00     0.039 A 
HETATM    9  C14 UNL     1      27.253   4.470  49.054  1.00  0.00     0.027 A 
HETATM   10  C15 UNL     1      26.019   4.135  49.568  1.00  0.00    -0.024 A 
ENDROOT
BRANCH   7  11
HETATM   11  N3  UNL     1      29.812   5.157  48.002  1.00  0.00    -0.340 N 
HETATM   12  H6  UNL     1      29.688   4.135  47.954  1.00  0.00     0.167 HD
BRANCH  11  13
HETATM   13  C7  UNL     1      31.195   5.423  48.159  1.00  0.00     0.035 A 
HETATM   14  C8  UNL     1      31.746   6.597  48.684  1.00  0.00     0.032 A 
HETATM   15  C9  UNL     1      33.099   6.786  48.809  1.00  0.00     0.046 A 
HETATM   16  C10 UNL     1      34.001   5.828  48.422  1.00  0.00     0.138 A 
HETATM   17  F1  UNL     1      35.299   6.147  48.601  1.00  0.00    -0.204 F 
HETATM   18  C11 UNL     1      33.497   4.658  47.901  1.00  0.00     0.074 A 
HETATM   19 CL1  UNL     1      34.690   3.468  47.424  1.00  0.00    -0.081 Cl
HETATM   20  C12 UNL     1      32.135   4.490  47.785  1.00  0.00     0.056 A 
ENDBRANCH  11  13
ENDBRANCH   7  11
BRANCH  10  21
HETATM   21  C16 UNL     1      25.812   2.775  50.248  1.00  0.00     0.043 C 
BRANCH  21  22
HETATM   22  C17 UNL     1      26.854   2.591  51.304  1.00  0.00     0.035 C 
BRANCH  22  23
HETATM   23  C18 UNL     1      26.600   1.708  52.439  1.00  0.00     0.273 C 
BRANCH  23  24
HETATM   24  N4  UNL     1      26.826   0.323  52.438  1.00  0.00     0.092 N 
HETATM   25  C19 UNL     1      25.589  -0.338  52.936  1.00  0.00     0.298 C 
HETATM   26  C20 UNL     1      25.535  -0.423  54.398  1.00  0.00     0.198 C 
HETATM   27  O2  UNL     1      26.679  -0.406  55.126  1.00  0.00    -0.388 OA
HETATM   28  C21 UNL     1      27.762   0.277  54.598  1.00  0.00     0.198 C 
HETATM   29  C22 UNL     1      27.933  -0.219  53.181  1.00  0.00     0.298 C 
ENDBRANCH  23  24
ENDBRANCH  22  23
ENDBRANCH  21  22
ENDBRANCH  10  21
BRANCH   1  30
HETATM   30  O1  UNL     1      23.749   4.596  50.026  1.00  0.00    -0.355 OA
HETATM   31  C1  UNL     1      22.482   5.054  49.583  1.00  0.00     0.210 C 
ENDBRANCH   1  30
TORSDOF 7
ENDMDL
MODEL 5
REMARK VINA RESULT:      -7.9      2.193      5.233
REMARK  7 active torsions:
REMARK  status: ('A' for Active; 'I' for Inactive)
REMARK    1  A    between atoms: O1_2  and  C2_3 
REMARK    2  A    between atoms: C6_9  and  N3_10 
REMARK    3  A    between atoms: N3_10  and  C7_11 
REMARK    4  A    between atoms: C15_21  and  C16_22 
REMARK    5  A    between atoms: C16_22  and  C17_23 
REMARK    6  A    between atoms: C17_23  and  C18_24 
REMARK    7  A    between atoms: C18_24  and  N4_25 
ROOT
HETATM    1  C2  UNL     1      23.543   0.009  53.435  1.00  0.00     0.076 A 
HETATM    2  C3  UNL     1      24.820   0.203  53.876  1.00  0.00     0.070 A 
HETATM    3  C4  UNL     1      25.702   0.981  53.178  1.00  0.00     0.074 A 
HETATM    4  N1  UNL     1      26.934   1.106  53.699  1.00  0.00    -0.241 NA
HETATM    5  C5  UNL     1      27.870   1.836  53.108  1.00  0.00     0.236 A 
HETATM    6  N2  UNL     1      27.522   2.436  51.968  1.00  0.00    -0.224 NA
HETATM    7  C6  UNL     1      26.334   2.383  51.360  1.00  0.00     0.142 A 
HETATM    8  C13 UNL     1      25.396   1.621  52.002  1.00  0.00     0.039 A 
HETATM    9  C14 UNL     1      24.107   1.415  51.572  1.00  0.00     0.027 A 
HETATM   10  C15 UNL     1      23.198   0.636  52.256  1.00  0.00    -0.024 A 
ENDROOT
BRANCH   7  11
HETATM   11  N3  UNL     1      25.982   3.021  50.148  1.00  0.00    -0.340 N 
HETATM   12  H6  UNL     1      25.505   2.519  49.385  1.00  0.00     0.167 HD
BRANCH  11  13
HETATM   13  C7  UNL     1      26.178   4.363  49.734  1.00  0.00     0.035 A 
HETATM   14  C8  UNL     1      27.154   4.806  48.835  1.00  0.00     0.032 A 
HETATM   15  C9  UNL     1      27.284   6.124  48.478  1.00  0.00     0.046 A 
HETATM   16  C10 UNL     1      26.460   7.095  48.986  1.00  0.00     0.138 A 
HETATM   17  F1  UNL     1      26.701   8.348  48.550  1.00  0.00    -0.204 F 
HETATM   18  C11 UNL     1      25.486   6.698  49.875  1.00  0.00     0.074 A 
HETATM   19 CL1  UNL     1      24.462   7.976  50.493  1.00  0.00    -0.081 Cl
HETATM   20  C12 UNL     1      25.374   5.369  50.218  1.00  0.00     0.056 A 
ENDBRANCH  11  13
ENDBRANCH   7  11
BRANCH  10  21
HETATM   21  C16 UNL     1      21.778   0.452  51.706  1.00  0.00     0.043 C 
BRANCH  21  22
HETATM   22  C17 UNL     1      21.645   1.205  50.422  1.00  0.00     0.035 C 
BRANCH  22  23
HETATM   23  C18 UNL     1      20.667   2.282  50.301  1.00  0.00     0.273 C 
BRANCH  23  24
HETATM   24  N4  UNL     1      20.373   3.210  51.312  1.00  0.00     0.092 N 
HETATM   25  C19 UNL     1      19.073   3.851  50.973  1.00  0.00     0.298 C 
HETATM   26  C20 UNL     1      19.219   4.995  50.069  1.00  0.00     0.198 C 
HETATM   27  O2  UNL     1      20.388   5.678  50.014  1.00  0.00    -0.388 OA
HETATM   28  C21 UNL     1      21.550   4.980  50.301  1.00  0.00     0.198 C 
HETATM   29  C22 UNL     1      21.308   4.262  51.608  1.00  0.00     0.298 C 
ENDBRANCH  23  24
ENDBRANCH  22  23
ENDBRANCH  21  22
ENDBRANCH  10  21
BRANCH   1  30
HETATM   30  O1  UNL     1      22.574  -0.755  54.059  1.00  0.00    -0.355 OA
HETATM   31  C1  UNL     1      22.757  -1.410  55.304  1.00  0.00     0.210 C 
ENDBRANCH   1  30
TORSDOF 7
ENDMDL
MODEL 6
REMARK VINA RESULT:      -7.9      3.714      6.513
REMARK  7 active torsions:
REMARK  status: ('A' for Active; 'I' for Inactive)
REMARK    1  A    between atoms: O1_2  and  C2_3 
REMARK    2  A    between atoms: C6_9  and  N3_10 
REMARK    3  A    between atoms: N3_10  and  C7_11 
REMARK    4  A    between atoms: C15_21  and  C16_22 
REMARK    5  A    between atoms: C16_22  and  C17_23 
REMARK    6  A    between atoms: C17_23  and  C18_24 
REMARK    7  A    between atoms: C18_24  and  N4_25 
ROOT
HETATM    1  C2  UNL     1      25.283   5.119  49.236  1.00  0.00     0.076 A 
HETATM    2  C3  UNL     1      24.167   5.547  48.578  1.00  0.00     0.070 A 
HETATM    3  C4  UNL     1      23.070   4.742  48.441  1.00  0.00     0.074 A 
HETATM    4  N1  UNL     1      22.024   5.260  47.775  1.00  0.00    -0.241 NA
HETATM    5  C5  UNL     1      20.909   4.569  47.583  1.00  0.00     0.236 A 
HETATM    6  N2  UNL     1      20.884   3.332  48.084  1.00  0.00    -0.224 NA
HETATM    7  C6  UNL     1      21.858   2.717  48.758  1.00  0.00     0.142 A 
HETATM    8  C13 UNL     1      22.991   3.463  48.937  1.00  0.00     0.039 A 
HETATM    9  C14 UNL     1      24.123   3.049  49.596  1.00  0.00     0.027 A 
HETATM   10  C15 UNL     1      25.242   3.840  49.749  1.00  0.00    -0.024 A 
ENDROOT
BRANCH   7  11
HETATM   11  N3  UNL     1      21.818   1.402  49.278  1.00  0.00    -0.340 N 
HETATM   12  H6  UNL     1      22.313   0.621  48.825  1.00  0.00     0.167 HD
BRANCH  11  13
HETATM   13  C7  UNL     1      21.159   0.897  50.427  1.00  0.00     0.035 A 
HETATM   14  C8  UNL     1      19.775   0.777  50.589  1.00  0.00     0.032 A 
HETATM   15  C9  UNL     1      19.205   0.276  51.732  1.00  0.00     0.046 A 
HETATM   16  C10 UNL     1      19.965  -0.141  52.794  1.00  0.00     0.138 A 
HETATM   17  F1  UNL     1      19.274  -0.611  53.853  1.00  0.00    -0.204 F 
HETATM   18  C11 UNL     1      21.333  -0.039  52.673  1.00  0.00     0.074 A 
HETATM   19 CL1  UNL     1      22.256  -0.586  54.057  1.00  0.00    -0.081 Cl
HETATM   20  C12 UNL     1      21.882   0.467  51.516  1.00  0.00     0.056 A 
ENDBRANCH  11  13
ENDBRANCH   7  11
BRANCH  10  21
HETATM   21  C16 UNL     1      26.469   3.300  50.495  1.00  0.00     0.043 C 
BRANCH  21  22
HETATM   22  C17 UNL     1      26.057   2.140  51.343  1.00  0.00     0.035 C 
BRANCH  22  23
HETATM   23  C18 UNL     1      26.780   1.840  52.575  1.00  0.00     0.273 C 
BRANCH  23  24
HETATM   24  N4  UNL     1      27.541   0.680  52.790  1.00  0.00     0.092 N 
HETATM   25  C19 UNL     1      26.773  -0.473  52.245  1.00  0.00     0.298 C 
HETATM   26  C20 UNL     1      25.807  -1.019  53.201  1.00  0.00     0.198 C 
HETATM   27  O2  UNL     1      25.995  -0.852  54.533  1.00  0.00    -0.388 OA
HETATM   28  C21 UNL     1      26.681   0.279  54.945  1.00  0.00     0.198 C 
HETATM   29  C22 UNL     1      27.950   0.333  54.126  1.00  0.00     0.298 C 
ENDBRANCH  23  24
ENDBRANCH  22  23
ENDBRANCH  21  22
ENDBRANCH  10  21
BRANCH   1  30
HETATM   30  O1  UNL     1      26.442   5.848  49.432  1.00  0.00    -0.355 OA
HETATM   31  C1  UNL     1      27.422   6.067  48.430  1.00  0.00     0.210 C 
ENDBRANCH   1  30
TORSDOF 7
ENDMDL
MODEL 7
REMARK VINA RESULT:      -7.9      2.001      5.354
REMARK  7 active torsions:
REMARK  status: ('A' for Active; 'I' for Inactive)
REMARK    1  A    between atoms: O1_2  and  C2_3 
REMARK    2  A    between atoms: C6_9  and  N3_10 
REMARK    3  A    between atoms: N3_10  and  C7_11 
REMARK    4  A    between atoms: C15_21  and  C16_22 
REMARK    5  A    between atoms: C16_22  and  C17_23 
REMARK    6  A    between atoms: C17_23  and  C18_24 
REMARK    7  A    between atoms: C18_24  and  N4_25 
ROOT
HETATM    1  C2  UNL     1      23.313   0.252  53.147  1.00  0.00     0.076 A 
HETATM    2  C3  UNL     1      24.538   0.408  53.728  1.00  0.00     0.070 A 
HETATM    3  C4  UNL     1      25.534   1.110  53.108  1.00  0.00     0.074 A 
HETATM    4  N1  UNL     1      26.702   1.203  53.766  1.00  0.00    -0.241 NA
HETATM    5  C5  UNL     1      27.736   1.860  53.259  1.00  0.00     0.236 A 
HETATM    6  N2  UNL     1      27.555   2.421  52.063  1.00  0.00    -0.224 NA
HETATM    7  C6  UNL     1      26.445   2.394  51.321  1.00  0.00     0.142 A 
HETATM    8  C13 UNL     1      25.400   1.708  51.878  1.00  0.00     0.039 A 
HETATM    9  C14 UNL     1      24.161   1.541  51.308  1.00  0.00     0.027 A 
HETATM   10  C15 UNL     1      23.140   0.838  51.911  1.00  0.00    -0.024 A 
ENDROOT
BRANCH   7  11
HETATM   11  N3  UNL     1      26.270   2.990  50.050  1.00  0.00    -0.340 N 
HETATM   12  H6  UNL     1      26.066   2.431  49.209  1.00  0.00     0.167 HD
BRANCH  11  13
HETATM   13  C7  UNL     1      26.323   4.354  49.668  1.00  0.00     0.035 A 
HETATM   14  C8  UNL     1      27.219   4.910  48.748  1.00  0.00     0.032 A 
HETATM   15  C9  UNL     1      27.212   6.243  48.425  1.00  0.00     0.046 A 
HETATM   16  C10 UNL     1      26.320   7.119  48.989  1.00  0.00     0.138 A 
HETATM   17  F1  UNL     1      26.427   8.400  48.580  1.00  0.00    -0.204 F 
HETATM   18  C11 UNL     1      25.422   6.609  49.899  1.00  0.00     0.074 A 
HETATM   19 CL1  UNL     1      24.306   7.768  50.589  1.00  0.00    -0.081 Cl
HETATM   20  C12 UNL     1      25.447   5.268  50.209  1.00  0.00     0.056 A 
ENDBRANCH  11  13
ENDBRANCH   7  11
BRANCH  10  21
HETATM   21  C16 UNL     1      21.785   0.694  51.205  1.00  0.00     0.043 C 
BRANCH  21  22
HETATM   22  C17 UNL     1      21.752   1.598  50.015  1.00  0.00     0.035 C 
BRANCH  22  23
HETATM   23  C18 UNL     1      20.475   2.010  49.441  1.00  0.00     0.273 C 
BRANCH  23  24
HETATM   24  N4  UNL     1      19.973   3.321  49.469  1.00  0.00     0.092 N 
HETATM   25  C19 UNL     1      20.827   4.112  50.397  1.00  0.00     0.298 C 
HETATM   26  C20 UNL     1      20.407   4.001  51.796  1.00  0.00     0.198 C 
HETATM   27  O2  UNL     1      19.126   3.683  52.101  1.00  0.00    -0.388 OA
HETATM   28  C21 UNL     1      18.428   2.901  51.195  1.00  0.00     0.198 C 
HETATM   29  C22 UNL     1      18.603   3.551  49.843  1.00  0.00     0.298 C 
ENDBRANCH  23  24
ENDBRANCH  22  23
ENDBRANCH  21  22
ENDBRANCH  10  21
BRANCH   1  30
HETATM   30  O1  UNL     1      22.239  -0.436  53.683  1.00  0.00    -0.355 OA
HETATM   31  C1  UNL     1      22.260  -1.083  54.945  1.00  0.00     0.210 C 
ENDBRANCH   1  30
TORSDOF 7
ENDMDL
MODEL 8
REMARK VINA RESULT:      -7.8      4.701      7.975
REMARK  7 active torsions:
REMARK  status: ('A' for Active; 'I' for Inactive)
REMARK    1  A    between atoms: O1_2  and  C2_3 
REMARK    2  A    between atoms: C6_9  and  N3_10 
REMARK    3  A    between atoms: N3_10  and  C7_11 
REMARK    4  A    between atoms: C15_21  and  C16_22 
REMARK    5  A    between atoms: C16_22  and  C17_23 
REMARK    6  A    between atoms: C17_23  and  C18_24 
REMARK    7  A    between atoms: C18_24  and  N4_25 
ROOT
HETATM    1  C2  UNL     1      26.943   7.233  47.789  1.00  0.00     0.076 A 
HETATM    2  C3  UNL     1      25.632   7.004  48.089  1.00  0.00     0.070 A 
HETATM    3  C4  UNL     1      25.245   5.884  48.771  1.00  0.00     0.074 A 
HETATM    4  N1  UNL     1      23.929   5.753  49.014  1.00  0.00    -0.241 NA
HETATM    5  C5  UNL     1      23.442   4.708  49.667  1.00  0.00     0.236 A 
HETATM    6  N2  UNL     1      24.327   3.793  50.068  1.00  0.00    -0.224 NA
HETATM    7  C6  UNL     1      25.648   3.817  49.883  1.00  0.00     0.142 A 
HETATM    8  C13 UNL     1      26.113   4.912  49.206  1.00  0.00     0.039 A 
HETATM    9  C14 UNL     1      27.428   5.159  48.896  1.00  0.00     0.027 A 
HETATM   10  C15 UNL     1      27.846   6.279  48.210  1.00  0.00    -0.024 A 
ENDROOT
BRANCH   7  11
HETATM   11  N3  UNL     1      26.573   2.835  50.309  1.00  0.00    -0.340 N 
HETATM   12  H6  UNL     1      27.335   2.502  49.700  1.00  0.00     0.167 HD
BRANCH  11  13
HETATM   13  C7  UNL     1      26.668   2.148  51.545  1.00  0.00     0.035 A 
HETATM   14  C8  UNL     1      27.687   2.304  52.491  1.00  0.00     0.032 A 
HETATM   15  C9  UNL     1      27.714   1.604  53.670  1.00  0.00     0.046 A 
HETATM   16  C10 UNL     1      26.735   0.699  53.995  1.00  0.00     0.138 A 
HETATM   17  F1  UNL     1      26.887   0.082  55.185  1.00  0.00    -0.204 F 
HETATM   18  C11 UNL     1      25.715   0.517  53.089  1.00  0.00     0.074 A 
HETATM   19 CL1  UNL     1      24.493  -0.647  53.553  1.00  0.00    -0.081 Cl
HETATM   20  C12 UNL     1      25.709   1.232  51.912  1.00  0.00     0.056 A 
ENDBRANCH  11  13
ENDBRANCH   7  11
BRANCH  10  21
HETATM   21  C16 UNL     1      29.335   6.479  47.899  1.00  0.00     0.043 C 
BRANCH  21  22
HETATM   22  C17 UNL     1      30.015   5.148  47.875  1.00  0.00     0.035 C 
BRANCH  22  23
HETATM   23  C18 UNL     1      31.473   5.069  47.864  1.00  0.00     0.273 C 
BRANCH  23  24
HETATM   24  N4  UNL     1      32.241   4.664  46.760  1.00  0.00     0.092 N 
HETATM   25  C19 UNL     1      32.158   3.181  46.671  1.00  0.00     0.298 C 
HETATM   26  C20 UNL     1      33.146   2.502  47.514  1.00  0.00     0.198 C 
HETATM   27  O2  UNL     1      34.292   3.134  47.867  1.00  0.00    -0.388 OA
HETATM   28  C21 UNL     1      34.255   4.515  47.970  1.00  0.00     0.198 C 
HETATM   29  C22 UNL     1      33.632   5.024  46.691  1.00  0.00     0.298 C 
ENDBRANCH  23  24
ENDBRANCH  22  23
ENDBRANCH  21  22
ENDBRANCH  10  21
BRANCH   1  30
HETATM   30  O1  UNL     1      27.443   8.328  47.107  1.00  0.00    -0.355 OA
HETATM   31  C1  UNL     1      26.840   9.611  47.113  1.00  0.00     0.210 C 
ENDBRANCH   1  30
TORSDOF 7
ENDMDL
MODEL 9
REMARK VINA RESULT:      -7.8      1.809      2.263
REMARK  7 active torsions:
REMARK  status: ('A' for Active; 'I' for Inactive)
REMARK    1  A    between atoms: O1_2  and  C2_3 
REMARK    2  A    between atoms: C6_9  and  N3_10 
REMARK    3  A    between atoms: N3_10  and  C7_11 
REMARK    4  A    between atoms: C15_21  and  C16_22 
REMARK    5  A    between atoms: C16_22  and  C17_23 
REMARK    6  A    between atoms: C17_23  and  C18_24 
REMARK    7  A    between atoms: C18_24  and  N4_25 
ROOT
HETATM    1  C2  UNL     1      22.110   0.056  52.891  1.00  0.00     0.076 A 
HETATM    2  C3  UNL     1      20.949   0.666  52.516  1.00  0.00     0.070 A 
HETATM    3  C4  UNL     1      20.917   1.992  52.186  1.00  0.00     0.074 A 
HETATM    4  N1  UNL     1      19.722   2.495  51.832  1.00  0.00    -0.241 NA
HETATM    5  C5  UNL     1      19.574   3.767  51.492  1.00  0.00     0.236 A 
HETATM    6  N2  UNL     1      20.675   4.521  51.522  1.00  0.00    -0.224 NA
HETATM    7  C6  UNL     1      21.908   4.132  51.856  1.00  0.00     0.142 A 
HETATM    8  C13 UNL     1      22.019   2.812  52.199  1.00  0.00     0.039 A 
HETATM    9  C14 UNL     1      23.179   2.182  52.579  1.00  0.00     0.027 A 
HETATM   10  C15 UNL     1      23.239   0.847  52.917  1.00  0.00    -0.024 A 
ENDROOT
BRANCH   7  11
HETATM   11  N3  UNL     1      23.065   4.945  51.888  1.00  0.00    -0.340 N 
HETATM   12  H6  UNL     1      23.473   5.279  52.774  1.00  0.00     0.167 HD
BRANCH  11  13
HETATM   13  C7  UNL     1      23.859   5.444  50.825  1.00  0.00     0.035 A 
HETATM   14  C8  UNL     1      23.592   6.594  50.076  1.00  0.00     0.032 A 
HETATM   15  C9  UNL     1      24.407   7.019  49.058  1.00  0.00     0.046 A 
HETATM   16  C10 UNL     1      25.544   6.334  48.710  1.00  0.00     0.138 A 
HETATM   17  F1  UNL     1      26.252   6.864  47.691  1.00  0.00    -0.204 F 
HETATM   18  C11 UNL     1      25.841   5.196  49.425  1.00  0.00     0.074 A 
HETATM   19 CL1  UNL     1      27.302   4.361  48.941  1.00  0.00    -0.081 Cl
HETATM   20  C12 UNL     1      25.008   4.789  50.442  1.00  0.00     0.056 A 
ENDBRANCH  11  13
ENDBRANCH   7  11
BRANCH  10  21
HETATM   21  C16 UNL     1      24.575   0.219  53.334  1.00  0.00     0.043 C 
BRANCH  21  22
HETATM   22  C17 UNL     1      25.583   0.442  52.253  1.00  0.00     0.035 C 
BRANCH  22  23
HETATM   23  C18 UNL     1      26.993   0.154  52.493  1.00  0.00     0.273 C 
BRANCH  23  24
HETATM   24  N4  UNL     1      27.481  -0.598  53.574  1.00  0.00     0.092 N 
HETATM   25  C19 UNL     1      27.679   0.331  54.719  1.00  0.00     0.298 C 
HETATM   26  C20 UNL     1      28.982   1.001  54.693  1.00  0.00     0.198 C 
HETATM   27  O2  UNL     1      30.028   0.435  54.044  1.00  0.00    -0.388 OA
HETATM   28  C21 UNL     1      29.743  -0.378  52.959  1.00  0.00     0.198 C 
HETATM   29  C22 UNL     1      28.693  -1.360  53.422  1.00  0.00     0.298 C 
ENDBRANCH  23  24
ENDBRANCH  22  23
ENDBRANCH  21  22
ENDBRANCH  10  21
BRANCH   1  30
HETATM   30  O1  UNL     1      22.254  -1.274  53.245  1.00  0.00    -0.355 OA
HETATM   31  C1  UNL     1      21.818  -1.820  54.479  1.00  0.00     0.210 C 
ENDBRANCH   1  30
TORSDOF 7
ENDMDL
