MODEL 1
REMARK VINA RESULT:      -9.3      0.000      0.000
REMARK  5 active torsions:
REMARK  status: ('A' for Active; 'I' for Inactive)
REMARK    1  A    between atoms: O1_1  and  C1_2 
REMARK    2  A    between atoms: C1_2  and  C2_3 
REMARK    3  A    between atoms: C2_3  and  C3_4 
REMARK    4  A    between atoms: C2_3  and  N1_10 
REMARK    5  A    between atoms: C12_16  and  C13_17 
ROOT
HETATM    1  N1  UNL     1      24.658   0.011  53.948  1.00  0.00    -0.328 N 
HETATM    2  C9  UNL     1      24.849  -0.948  54.980  1.00  0.00     0.204 A 
HETATM    3  N2  UNL     1      23.936  -1.619  55.573  1.00  0.00    -0.278 NA
HETATM    4  C10 UNL     1      22.557  -1.443  55.216  1.00  0.00     0.217 A 
HETATM    5  C11 UNL     1      22.387  -0.443  54.145  1.00  0.00     0.101 A 
HETATM    6  O2  UNL     1      21.260  -0.085  53.630  1.00  0.00    -0.309 OA
HETATM    7  C12 UNL     1      21.436   0.836  52.684  1.00  0.00     0.097 A 
HETATM    8  C18 UNL     1      22.779   1.102  52.569  1.00  0.00     0.038 A 
HETATM    9  C19 UNL     1      23.429   2.035  51.682  1.00  0.00    -0.021 A 
HETATM   10  C20 UNL     1      23.571   3.284  52.311  1.00  0.00     0.012 A 
HETATM   11  C21 UNL     1      24.168   4.359  51.645  1.00  0.00     0.001 A 
HETATM   12  C22 UNL     1      24.631   4.227  50.360  1.00  0.00     0.000 A 
HETATM   13  C23 UNL     1      24.489   3.003  49.753  1.00  0.00     0.001 A 
HETATM   14  C24 UNL     1      23.912   1.924  50.366  1.00  0.00     0.012 A 
HETATM   15  C25 UNL     1      23.364   0.282  53.502  1.00  0.00     0.082 A 
ENDROOT
BRANCH   1  16
HETATM   16  C2  UNL     1      25.807   0.685  53.384  1.00  0.00     0.147 C 
BRANCH  16  17
HETATM   17  C1  UNL     1      26.426   1.646  54.385  1.00  0.00     0.194 C 
BRANCH  17  18
HETATM   18  O1  UNL     1      26.746   2.878  53.851  1.00  0.00    -0.398 OA
HETATM   19  H1  UNL     1      27.448   2.895  53.185  1.00  0.00     0.209 HD
ENDBRANCH  17  18
ENDBRANCH  16  17
BRANCH  16  20
HETATM   20  C3  UNL     1      26.815  -0.432  53.193  1.00  0.00    -0.033 A 
HETATM   21  C4  UNL     1      28.035  -0.081  53.742  1.00  0.00     0.009 A 
HETATM   22  C5  UNL     1      29.161  -0.919  53.716  1.00  0.00     0.001 A 
HETATM   23  C6  UNL     1      29.055  -2.154  53.113  1.00  0.00     0.000 A 
HETATM   24  C7  UNL     1      27.838  -2.492  52.569  1.00  0.00     0.001 A 
HETATM   25  C8  UNL     1      26.740  -1.669  52.599  1.00  0.00     0.009 A 
ENDBRANCH  16  20
ENDBRANCH   1  16
BRANCH   7  26
HETATM   26  C13 UNL     1      20.307   1.392  51.963  1.00  0.00     0.001 A 
HETATM   27  C14 UNL     1      19.684   0.640  51.067  1.00  0.00     0.014 A 
HETATM   28  C15 UNL     1      18.545   1.048  50.269  1.00  0.00     0.025 A 
HETATM   29  C16 UNL     1      18.078   2.257  50.435  1.00  0.00     0.135 A 
HETATM   30  O3  UNL     1      18.692   3.060  51.349  1.00  0.00    -0.358 OA
HETATM   31  C17 UNL     1      19.794   2.769  52.145  1.00  0.00     0.216 A 
ENDBRANCH   7  26
TORSDOF 5
ENDMDL
MODEL 2
REMARK VINA RESULT:      -8.5      3.028      4.420
REMARK  5 active torsions:
REMARK  status: ('A' for Active; 'I' for Inactive)
REMARK    1  A    between atoms: O1_1  and  C1_2 
REMARK    2  A    between atoms: C1_2  and  C2_3 
REMARK    3  A    between atoms: C2_3  and  C3_4 
REMARK    4  A    between atoms: C2_3  and  N1_10 
REMARK    5  A    between atoms: C12_16  and  C13_17 
ROOT
HETATM    1  N1  UNL     1      23.597   2.055  51.589  1.00  0.00    -0.328 N 
HETATM    2  C9  UNL     1      22.989   0.966  52.272  1.00  0.00     0.204 A 
HETATM    3  N2  UNL     1      21.982   0.286  51.876  1.00  0.00    -0.278 NA
HETATM    4  C10 UNL     1      21.346   0.590  50.625  1.00  0.00     0.217 A 
HETATM    5  C11 UNL     1      21.995   1.723  49.938  1.00  0.00     0.101 A 
HETATM    6  O2  UNL     1      21.633   2.212  48.801  1.00  0.00    -0.309 OA
HETATM    7  C12 UNL     1      22.414   3.229  48.445  1.00  0.00     0.097 A 
HETATM    8  C18 UNL     1      23.361   3.423  49.422  1.00  0.00     0.038 A 
HETATM    9  C19 UNL     1      24.406   4.416  49.465  1.00  0.00    -0.021 A 
HETATM   10  C20 UNL     1      23.955   5.566  50.135  1.00  0.00     0.012 A 
HETATM   11  C21 UNL     1      24.790   6.676  50.297  1.00  0.00     0.001 A 
HETATM   12  C22 UNL     1      26.073   6.675  49.807  1.00  0.00     0.000 A 
HETATM   13  C23 UNL     1      26.505   5.547  49.155  1.00  0.00     0.001 A 
HETATM   14  C24 UNL     1      25.723   4.438  48.973  1.00  0.00     0.012 A 
HETATM   15  C25 UNL     1      23.079   2.459  50.358  1.00  0.00     0.082 A 
ENDROOT
BRANCH   1  16
HETATM   16  C2  UNL     1      24.735   2.721  52.183  1.00  0.00     0.147 C 
BRANCH  16  17
HETATM   17  C1  UNL     1      24.364   3.366  53.508  1.00  0.00     0.194 C 
BRANCH  17  18
HETATM   18  O1  UNL     1      24.094   4.716  53.415  1.00  0.00    -0.398 OA
HETATM   19  H1  UNL     1      24.463   5.182  52.650  1.00  0.00     0.209 HD
ENDBRANCH  17  18
ENDBRANCH  16  17
BRANCH  16  20
HETATM   20  C3  UNL     1      25.677   1.580  52.519  1.00  0.00    -0.033 A 
HETATM   21  C4  UNL     1      25.992   1.594  53.866  1.00  0.00     0.009 A 
HETATM   22  C5  UNL     1      26.846   0.656  54.466  1.00  0.00     0.001 A 
HETATM   23  C6  UNL     1      27.405  -0.331  53.682  1.00  0.00     0.000 A 
HETATM   24  C7  UNL     1      27.085  -0.335  52.345  1.00  0.00     0.001 A 
HETATM   25  C8  UNL     1      26.248   0.584  51.763  1.00  0.00     0.009 A 
ENDBRANCH  16  20
ENDBRANCH   1  16
BRANCH   7  26
HETATM   26  C13 UNL     1      22.197   3.939  47.200  1.00  0.00     0.001 A 
HETATM   27  C14 UNL     1      22.063   5.258  47.226  1.00  0.00     0.014 A 
HETATM   28  C15 UNL     1      21.842   6.107  46.072  1.00  0.00     0.025 A 
HETATM   29  C16 UNL     1      21.769   5.542  44.897  1.00  0.00     0.135 A 
HETATM   30  O3  UNL     1      21.904   4.187  44.828  1.00  0.00    -0.358 OA
HETATM   31  C17 UNL     1      22.098   3.290  45.872  1.00  0.00     0.216 A 
ENDBRANCH   7  26
TORSDOF 5
ENDMDL
MODEL 3
REMARK VINA RESULT:      -8.3      3.487      7.962
REMARK  5 active torsions:
REMARK  status: ('A' for Active; 'I' for Inactive)
REMARK    1  A    between atoms: O1_1  and  C1_2 
REMARK    2  A    between atoms: C1_2  and  C2_3 
REMARK    3  A    between atoms: C2_3  and  C3_4 
REMARK    4  A    between atoms: C2_3  and  N1_10 
REMARK    5  A    between atoms: C12_16  and  C13_17 
ROOT
HETATM    1  N1  UNL     1      24.397   5.258  49.168  1.00  0.00    -0.328 N 
HETATM    2  C9  UNL     1      24.991   6.281  48.381  1.00  0.00     0.204 A 
HETATM    3  N2  UNL     1      26.242   6.472  48.198  1.00  0.00    -0.278 NA
HETATM    4  C10 UNL     1      27.207   5.607  48.816  1.00  0.00     0.217 A 
HETATM    5  C11 UNL     1      26.565   4.555  49.627  1.00  0.00     0.101 A 
HETATM    6  O2  UNL     1      27.187   3.643  50.295  1.00  0.00    -0.309 OA
HETATM    7  C12 UNL     1      26.330   2.842  50.925  1.00  0.00     0.097 A 
HETATM    8  C18 UNL     1      25.050   3.258  50.651  1.00  0.00     0.038 A 
HETATM    9  C19 UNL     1      23.810   2.695  51.126  1.00  0.00    -0.021 A 
HETATM   10  C20 UNL     1      23.411   3.331  52.313  1.00  0.00     0.012 A 
HETATM   11  C21 UNL     1      22.238   2.952  52.972  1.00  0.00     0.001 A 
HETATM   12  C22 UNL     1      21.442   1.948  52.478  1.00  0.00     0.000 A 
HETATM   13  C23 UNL     1      21.839   1.332  51.317  1.00  0.00     0.001 A 
HETATM   14  C24 UNL     1      22.979   1.670  50.639  1.00  0.00     0.012 A 
HETATM   15  C25 UNL     1      25.220   4.344  49.828  1.00  0.00     0.082 A 
ENDROOT
BRANCH   1  16
HETATM   16  C2  UNL     1      22.956   5.186  49.270  1.00  0.00     0.147 C 
BRANCH  16  17
HETATM   17  C1  UNL     1      22.371   6.511  49.730  1.00  0.00     0.194 C 
BRANCH  17  18
HETATM   18  O1  UNL     1      22.528   6.752  51.079  1.00  0.00    -0.398 OA
HETATM   19  H1  UNL     1      23.013   7.554  51.324  1.00  0.00     0.209 HD
ENDBRANCH  17  18
ENDBRANCH  16  17
BRANCH  16  20
HETATM   20  C3  UNL     1      22.508   5.003  47.833  1.00  0.00    -0.033 A 
HETATM   21  C4  UNL     1      22.342   3.660  47.545  1.00  0.00     0.009 A 
HETATM   22  C5  UNL     1      21.933   3.186  46.290  1.00  0.00     0.001 A 
HETATM   23  C6  UNL     1      21.683   4.098  45.285  1.00  0.00     0.000 A 
HETATM   24  C7  UNL     1      21.853   5.429  45.582  1.00  0.00     0.001 A 
HETATM   25  C8  UNL     1      22.252   5.887  46.812  1.00  0.00     0.009 A 
ENDBRANCH  16  20
ENDBRANCH   1  16
BRANCH   7  26
HETATM   26  C13 UNL     1      26.801   1.739  51.741  1.00  0.00     0.001 A 
HETATM   27  C14 UNL     1      26.355   0.517  51.488  1.00  0.00     0.014 A 
HETATM   28  C15 UNL     1      26.729  -0.683  52.210  1.00  0.00     0.025 A 
HETATM   29  C16 UNL     1      27.578  -0.570  53.196  1.00  0.00     0.135 A 
HETATM   30  O3  UNL     1      28.061   0.672  53.485  1.00  0.00    -0.358 OA
HETATM   31  C17 UNL     1      27.751   1.878  52.868  1.00  0.00     0.216 A 
ENDBRANCH   7  26
TORSDOF 5
ENDMDL
MODEL 4
REMARK VINA RESULT:      -8.3      9.199     11.896
REMARK  5 active torsions:
REMARK  status: ('A' for Active; 'I' for Inactive)
REMARK    1  A    between atoms: O1_1  and  C1_2 
REMARK    2  A    between atoms: C1_2  and  C2_3 
REMARK    3  A    between atoms: C2_3  and  C3_4 
REMARK    4  A    between atoms: C2_3  and  N1_10 
REMARK    5  A    between atoms: C12_16  and  C13_17 
ROOT
HETATM    1  N1  UNL     1      33.441   6.404  47.652  1.00  0.00    -0.328 N 
HETATM    2  C9  UNL     1      34.326   5.301  47.512  1.00  0.00     0.204 A 
HETATM    3  N2  UNL     1      34.002   4.065  47.475  1.00  0.00    -0.278 NA
HETATM    4  C10 UNL     1      32.625   3.671  47.578  1.00  0.00     0.217 A 
HETATM    5  C11 UNL     1      31.729   4.834  47.723  1.00  0.00     0.101 A 
HETATM    6  O2  UNL     1      30.445   4.777  47.839  1.00  0.00    -0.309 OA
HETATM    7  C12 UNL     1      29.919   5.995  47.954  1.00  0.00     0.097 A 
HETATM    8  C18 UNL     1      30.933   6.922  47.910  1.00  0.00     0.038 A 
HETATM    9  C19 UNL     1      30.832   8.357  48.007  1.00  0.00    -0.021 A 
HETATM   10  C20 UNL     1      30.962   8.762  49.346  1.00  0.00     0.012 A 
HETATM   11  C21 UNL     1      30.890  10.114  49.696  1.00  0.00     0.001 A 
HETATM   12  C22 UNL     1      30.690  11.083  48.744  1.00  0.00     0.000 A 
HETATM   13  C23 UNL     1      30.564  10.677  47.438  1.00  0.00     0.001 A 
HETATM   14  C24 UNL     1      30.628   9.366  47.050  1.00  0.00     0.012 A 
HETATM   15  C25 UNL     1      32.070   6.166  47.764  1.00  0.00     0.082 A 
ENDROOT
BRANCH   1  16
HETATM   16  C2  UNL     1      33.977   7.747  47.678  1.00  0.00     0.147 C 
BRANCH  16  17
HETATM   17  C1  UNL     1      35.441   7.746  48.085  1.00  0.00     0.194 C 
BRANCH  17  18
HETATM   18  O1  UNL     1      35.832   8.881  48.766  1.00  0.00    -0.398 OA
HETATM   19  H1  UNL     1      35.839   9.708  48.264  1.00  0.00     0.209 HD
ENDBRANCH  17  18
ENDBRANCH  16  17
BRANCH  16  20
HETATM   20  C3  UNL     1      33.946   8.169  46.222  1.00  0.00    -0.033 A 
HETATM   21  C4  UNL     1      33.981   9.548  46.117  1.00  0.00     0.009 A 
HETATM   22  C5  UNL     1      33.962  10.228  44.890  1.00  0.00     0.001 A 
HETATM   23  C6  UNL     1      33.904   9.492  43.724  1.00  0.00     0.000 A 
HETATM   24  C7  UNL     1      33.868   8.123  43.840  1.00  0.00     0.001 A 
HETATM   25  C8  UNL     1      33.887   7.463  45.044  1.00  0.00     0.009 A 
ENDBRANCH  16  20
ENDBRANCH   1  16
BRANCH   7  26
HETATM   26  C13 UNL     1      28.488   6.180  48.096  1.00  0.00     0.001 A 
HETATM   27  C14 UNL     1      27.777   5.248  48.715  1.00  0.00     0.014 A 
HETATM   28  C15 UNL     1      26.346   5.288  48.938  1.00  0.00     0.025 A 
HETATM   29  C16 UNL     1      25.682   6.323  48.499  1.00  0.00     0.135 A 
HETATM   30  O3  UNL     1      26.379   7.305  47.858  1.00  0.00    -0.358 OA
HETATM   31  C17 UNL     1      27.740   7.350  47.581  1.00  0.00     0.216 A 
ENDBRANCH   7  26
TORSDOF 5
ENDMDL
MODEL 5
REMARK VINA RESULT:      -8.1      5.520      9.300
REMARK  5 active torsions:
REMARK  status: ('A' for Active; 'I' for Inactive)
REMARK    1  A    between atoms: O1_1  and  C1_2 
REMARK    2  A    between atoms: C1_2  and  C2_3 
REMARK    3  A    between atoms: C2_3  and  C3_4 
REMARK    4  A    between atoms: C2_3  and  N1_10 
REMARK    5  A    between atoms: C12_16  and  C13_17 
ROOT
HETATM    1  N1  UNL     1      27.564   7.426  47.812  1.00  0.00    -0.328 N 
HETATM    2  C9  UNL     1      28.888   7.555  47.311  1.00  0.00     0.204 A 
HETATM    3  N2  UNL     1      29.813   6.675  47.370  1.00  0.00    -0.278 NA
HETATM    4  C10 UNL     1      29.568   5.403  47.988  1.00  0.00     0.217 A 
HETATM    5  C11 UNL     1      28.188   5.295  48.500  1.00  0.00     0.101 A 
HETATM    6  O2  UNL     1      27.694   4.268  49.103  1.00  0.00    -0.309 OA
HETATM    7  C12 UNL     1      26.424   4.476  49.444  1.00  0.00     0.097 A 
HETATM    8  C18 UNL     1      26.056   5.736  49.036  1.00  0.00     0.038 A 
HETATM    9  C19 UNL     1      24.781   6.389  49.201  1.00  0.00    -0.021 A 
HETATM   10  C20 UNL     1      24.768   7.130  50.395  1.00  0.00     0.012 A 
HETATM   11  C21 UNL     1      23.632   7.849  50.781  1.00  0.00     0.001 A 
HETATM   12  C22 UNL     1      22.499   7.851  50.007  1.00  0.00     0.000 A 
HETATM   13  C23 UNL     1      22.521   7.125  48.842  1.00  0.00     0.001 A 
HETATM   14  C24 UNL     1      23.610   6.407  48.425  1.00  0.00     0.012 A 
HETATM   15  C25 UNL     1      27.187   6.238  48.440  1.00  0.00     0.082 A 
ENDROOT
BRANCH   1  16
HETATM   16  C2  UNL     1      26.637   8.526  47.663  1.00  0.00     0.147 C 
BRANCH  16  17
HETATM   17  C1  UNL     1      27.306   9.854  47.977  1.00  0.00     0.194 C 
BRANCH  17  18
HETATM   18  O1  UNL     1      26.984  10.362  49.219  1.00  0.00    -0.398 OA
HETATM   19  H1  UNL     1      26.131  10.094  49.591  1.00  0.00     0.209 HD
ENDBRANCH  17  18
ENDBRANCH  16  17
BRANCH  16  20
HETATM   20  C3  UNL     1      26.343   8.543  46.176  1.00  0.00    -0.033 A 
HETATM   21  C4  UNL     1      25.020   8.214  45.940  1.00  0.00     0.009 A 
HETATM   22  C5  UNL     1      24.461   8.148  44.655  1.00  0.00     0.001 A 
HETATM   23  C6  UNL     1      25.262   8.421  43.567  1.00  0.00     0.000 A 
HETATM   24  C7  UNL     1      26.575   8.745  43.812  1.00  0.00     0.001 A 
HETATM   25  C8  UNL     1      27.118   8.810  45.071  1.00  0.00     0.009 A 
ENDBRANCH  16  20
ENDBRANCH   1  16
BRANCH   7  26
HETATM   26  C13 UNL     1      25.658   3.457  50.135  1.00  0.00     0.001 A 
HETATM   27  C14 UNL     1      26.244   2.752  51.092  1.00  0.00     0.014 A 
HETATM   28  C15 UNL     1      25.616   1.704  51.872  1.00  0.00     0.025 A 
HETATM   29  C16 UNL     1      24.366   1.417  51.626  1.00  0.00     0.135 A 
HETATM   30  O3  UNL     1      23.728   2.123  50.649  1.00  0.00    -0.358 OA
HETATM   31  C17 UNL     1      24.245   3.126  49.838  1.00  0.00     0.216 A 
ENDBRANCH   7  26
TORSDOF 5
ENDMDL
MODEL 6
REMARK VINA RESULT:      -7.9     10.001     13.581
REMARK  5 active torsions:
REMARK  status: ('A' for Active; 'I' for Inactive)
REMARK    1  A    between atoms: O1_1  and  C1_2 
REMARK    2  A    between atoms: C1_2  and  C2_3 
REMARK    3  A    between atoms: C2_3  and  C3_4 
REMARK    4  A    between atoms: C2_3  and  N1_10 
REMARK    5  A    between atoms: C12_16  and  C13_17 
ROOT
HETATM    1  N1  UNL     1      31.268   8.094  46.691  1.00  0.00    -0.328 N 
HETATM    2  C9  UNL     1      30.665   9.380  46.747  1.00  0.00     0.204 A 
HETATM    3  N2  UNL     1      30.565  10.217  45.786  1.00  0.00    -0.278 NA
HETATM    4  C10 UNL     1      31.091   9.899  44.488  1.00  0.00     0.217 A 
HETATM    5  C11 UNL     1      31.712   8.561  44.458  1.00  0.00     0.101 A 
HETATM    6  O2  UNL     1      32.264   8.018  43.426  1.00  0.00    -0.309 OA
HETATM    7  C12 UNL     1      32.733   6.806  43.715  1.00  0.00     0.097 A 
HETATM    8  C18 UNL     1      32.469   6.532  45.036  1.00  0.00     0.038 A 
HETATM    9  C19 UNL     1      32.803   5.344  45.783  1.00  0.00    -0.021 A 
HETATM   10  C20 UNL     1      34.053   5.499  46.406  1.00  0.00     0.012 A 
HETATM   11  C21 UNL     1      34.599   4.473  47.184  1.00  0.00     0.001 A 
HETATM   12  C22 UNL     1      33.930   3.287  47.361  1.00  0.00     0.000 A 
HETATM   13  C23 UNL     1      32.710   3.145  46.749  1.00  0.00     0.001 A 
HETATM   14  C24 UNL     1      32.137   4.121  45.979  1.00  0.00     0.012 A 
HETATM   15  C25 UNL     1      31.822   7.655  45.488  1.00  0.00     0.082 A 
ENDROOT
BRANCH   1  16
HETATM   16  C2  UNL     1      31.298   7.270  47.879  1.00  0.00     0.147 C 
BRANCH  16  17
HETATM   17  C1  UNL     1      31.759   8.067  49.089  1.00  0.00     0.194 C 
BRANCH  17  18
HETATM   18  O1  UNL     1      31.660   7.379  50.281  1.00  0.00    -0.398 OA
HETATM   19  H1  UNL     1      31.189   6.534  50.257  1.00  0.00     0.209 HD
ENDBRANCH  17  18
ENDBRANCH  16  17
BRANCH  16  20
HETATM   20  C3  UNL     1      29.836   6.946  48.122  1.00  0.00    -0.033 A 
HETATM   21  C4  UNL     1      29.638   5.577  48.125  1.00  0.00     0.009 A 
HETATM   22  C5  UNL     1      28.384   4.981  48.325  1.00  0.00     0.001 A 
HETATM   23  C6  UNL     1      27.287   5.792  48.527  1.00  0.00     0.000 A 
HETATM   24  C7  UNL     1      27.495   7.151  48.520  1.00  0.00     0.001 A 
HETATM   25  C8  UNL     1      28.725   7.730  48.325  1.00  0.00     0.009 A 
ENDBRANCH  16  20
ENDBRANCH   1  16
BRANCH   7  26
HETATM   26  C13 UNL     1      33.399   6.002  42.708  1.00  0.00     0.001 A 
HETATM   27  C14 UNL     1      32.787   4.924  42.240  1.00  0.00     0.014 A 
HETATM   28  C15 UNL     1      33.317   4.023  41.236  1.00  0.00     0.025 A 
HETATM   29  C16 UNL     1      34.497   4.280  40.738  1.00  0.00     0.135 A 
HETATM   30  O3  UNL     1      35.157   5.382  41.194  1.00  0.00    -0.358 OA
HETATM   31  C17 UNL     1      34.744   6.292  42.161  1.00  0.00     0.216 A 
ENDBRANCH   7  26
TORSDOF 5
ENDMDL
MODEL 7
REMARK VINA RESULT:      -7.9      2.838      7.732
REMARK  5 active torsions:
REMARK  status: ('A' for Active; 'I' for Inactive)
REMARK    1  A    between atoms: O1_1  and  C1_2 
REMARK    2  A    between atoms: C1_2  and  C2_3 
REMARK    3  A    between atoms: C2_3  and  C3_4 
REMARK    4  A    between atoms: C2_3  and  N1_10 
REMARK    5  A    between atoms: C12_16  and  C13_17 
ROOT
HETATM    1  N1  UNL     1      18.222  -0.147  51.775  1.00  0.00    -0.328 N 
HETATM    2  C9  UNL     1      17.275  -0.993  52.415  1.00  0.00     0.204 A 
HETATM    3  N2  UNL     1      17.490  -1.752  53.421  1.00  0.00    -0.278 NA
HETATM    4  C10 UNL     1      18.793  -1.808  54.023  1.00  0.00     0.217 A 
HETATM    5  C11 UNL     1      19.755  -0.923  53.340  1.00  0.00     0.101 A 
HETATM    6  O2  UNL     1      20.994  -0.775  53.665  1.00  0.00    -0.309 OA
HETATM    7  C12 UNL     1      21.602   0.093  52.860  1.00  0.00     0.097 A 
HETATM    8  C18 UNL     1      20.694   0.551  51.936  1.00  0.00     0.038 A 
HETATM    9  C19 UNL     1      20.910   1.493  50.866  1.00  0.00    -0.021 A 
HETATM   10  C20 UNL     1      21.270   0.816  49.689  1.00  0.00     0.012 A 
HETATM   11  C21 UNL     1      21.541   1.519  48.510  1.00  0.00     0.001 A 
HETATM   12  C22 UNL     1      21.463   2.889  48.469  1.00  0.00     0.000 A 
HETATM   13  C23 UNL     1      21.110   3.542  49.624  1.00  0.00     0.001 A 
HETATM   14  C24 UNL     1      20.836   2.896  50.799  1.00  0.00     0.012 A 
HETATM   15  C25 UNL     1      19.530  -0.104  52.257  1.00  0.00     0.082 A 
ENDROOT
BRANCH   1  16
HETATM   16  C2  UNL     1      17.810   0.648  50.639  1.00  0.00     0.147 C 
BRANCH  16  17
HETATM   17  C1  UNL     1      16.940  -0.158  49.690  1.00  0.00     0.194 C 
BRANCH  17  18
HETATM   18  O1  UNL     1      16.555   0.535  48.561  1.00  0.00    -0.398 OA
HETATM   19  H1  UNL     1      16.819   1.465  48.510  1.00  0.00     0.209 HD
ENDBRANCH  17  18
ENDBRANCH  16  17
BRANCH  16  20
HETATM   20  C3  UNL     1      16.903   1.698  51.252  1.00  0.00    -0.033 A 
HETATM   21  C4  UNL     1      17.484   2.951  51.164  1.00  0.00     0.009 A 
HETATM   22  C5  UNL     1      16.876   4.117  51.650  1.00  0.00     0.001 A 
HETATM   23  C6  UNL     1      15.637   4.021  52.249  1.00  0.00     0.000 A 
HETATM   24  C7  UNL     1      15.070   2.772  52.332  1.00  0.00     0.001 A 
HETATM   25  C8  UNL     1      15.669   1.633  51.854  1.00  0.00     0.009 A 
ENDBRANCH  16  20
ENDBRANCH   1  16
BRANCH   7  26
HETATM   26  C13 UNL     1      23.004   0.419  53.033  1.00  0.00     0.001 A 
HETATM   27  C14 UNL     1      23.867  -0.559  53.271  1.00  0.00     0.014 A 
HETATM   28  C15 UNL     1      25.294  -0.396  53.465  1.00  0.00     0.025 A 
HETATM   29  C16 UNL     1      25.791   0.810  53.403  1.00  0.00     0.135 A 
HETATM   30  O3  UNL     1      24.935   1.842  53.158  1.00  0.00    -0.358 OA
HETATM   31  C17 UNL     1      23.558   1.792  52.978  1.00  0.00     0.216 A 
ENDBRANCH   7  26
TORSDOF 5
ENDMDL
MODEL 8
REMARK VINA RESULT:      -7.7      9.450     13.179
REMARK  5 active torsions:
REMARK  status: ('A' for Active; 'I' for Inactive)
REMARK    1  A    between atoms: O1_1  and  C1_2 
REMARK    2  A    between atoms: C1_2  and  C2_3 
REMARK    3  A    between atoms: C2_3  and  C3_4 
REMARK    4  A    between atoms: C2_3  and  N1_10 
REMARK    5  A    between atoms: C12_16  and  C13_17 
ROOT
HETATM    1  N1  UNL     1      29.579   8.779  46.988  1.00  0.00    -0.328 N 
HETATM    2  C9  UNL     1      28.480   9.636  46.709  1.00  0.00     0.204 A 
HETATM    3  N2  UNL     1      28.171  10.133  45.572  1.00  0.00    -0.278 NA
HETATM    4  C10 UNL     1      28.966   9.842  44.412  1.00  0.00     0.217 A 
HETATM    5  C11 UNL     1      30.099   8.953  44.729  1.00  0.00     0.101 A 
HETATM    6  O2  UNL     1      30.976   8.530  43.882  1.00  0.00    -0.309 OA
HETATM    7  C12 UNL     1      31.874   7.744  44.473  1.00  0.00     0.097 A 
HETATM    8  C18 UNL     1      31.564   7.642  45.808  1.00  0.00     0.038 A 
HETATM    9  C19 UNL     1      32.264   6.905  46.831  1.00  0.00    -0.021 A 
HETATM   10  C20 UNL     1      33.219   7.726  47.452  1.00  0.00     0.012 A 
HETATM   11  C21 UNL     1      34.033   7.232  48.476  1.00  0.00     0.001 A 
HETATM   12  C22 UNL     1      33.923   5.931  48.903  1.00  0.00     0.000 A 
HETATM   13  C23 UNL     1      32.987   5.136  48.290  1.00  0.00     0.001 A 
HETATM   14  C24 UNL     1      32.169   5.578  47.285  1.00  0.00     0.012 A 
HETATM   15  C25 UNL     1      30.437   8.414  45.950  1.00  0.00     0.082 A 
ENDROOT
BRANCH   1  16
HETATM   16  C2  UNL     1      29.787   8.307  48.339  1.00  0.00     0.147 C 
BRANCH  16  17
HETATM   17  C1  UNL     1      29.331   9.338  49.358  1.00  0.00     0.194 C 
BRANCH  17  18
HETATM   18  O1  UNL     1      30.355   9.855  50.124  1.00  0.00    -0.398 OA
HETATM   19  H1  UNL     1      31.171   9.336  50.169  1.00  0.00     0.209 HD
ENDBRANCH  17  18
ENDBRANCH  16  17
BRANCH  16  20
HETATM   20  C3  UNL     1      28.823   7.142  48.458  1.00  0.00    -0.033 A 
HETATM   21  C4  UNL     1      27.570   7.587  48.836  1.00  0.00     0.009 A 
HETATM   22  C5  UNL     1      26.474   6.733  49.027  1.00  0.00     0.001 A 
HETATM   23  C6  UNL     1      26.645   5.378  48.831  1.00  0.00     0.000 A 
HETATM   24  C7  UNL     1      27.895   4.946  48.457  1.00  0.00     0.001 A 
HETATM   25  C8  UNL     1      28.965   5.787  48.271  1.00  0.00     0.009 A 
ENDBRANCH  16  20
ENDBRANCH   1  16
BRANCH   7  26
HETATM   26  C13 UNL     1      32.960   7.150  43.717  1.00  0.00     0.001 A 
HETATM   27  C14 UNL     1      32.831   5.907  43.276  1.00  0.00     0.014 A 
HETATM   28  C15 UNL     1      33.822   5.177  42.510  1.00  0.00     0.025 A 
HETATM   29  C16 UNL     1      34.942   5.781  42.218  1.00  0.00     0.135 A 
HETATM   30  O3  UNL     1      35.111   7.062  42.652  1.00  0.00    -0.358 OA
HETATM   31  C17 UNL     1      34.234   7.836  43.404  1.00  0.00     0.216 A 
ENDBRANCH   7  26
TORSDOF 5
ENDMDL
MODEL 9
REMARK VINA RESULT:      -7.5      4.778      6.903
REMARK  5 active torsions:
REMARK  status: ('A' for Active; 'I' for Inactive)
REMARK    1  A    between atoms: O1_1  and  C1_2 
REMARK    2  A    between atoms: C1_2  and  C2_3 
REMARK    3  A    between atoms: C2_3  and  C3_4 
REMARK    4  A    between atoms: C2_3  and  N1_10 
REMARK    5  A    between atoms: C12_16  and  C13_17 
ROOT
HETATM    1  N1  UNL     1      23.608   4.609  49.914  1.00  0.00    -0.328 N 
HETATM    2  C9  UNL     1      23.930   3.676  50.937  1.00  0.00     0.204 A 
HETATM    3  N2  UNL     1      23.523   2.467  51.021  1.00  0.00    -0.278 NA
HETATM    4  C10 UNL     1      22.652   1.923  50.018  1.00  0.00     0.217 A 
HETATM    5  C11 UNL     1      22.333   2.911  48.969  1.00  0.00     0.101 A 
HETATM    6  O2  UNL     1      21.573   2.697  47.949  1.00  0.00    -0.309 OA
HETATM    7  C12 UNL     1      21.479   3.783  47.185  1.00  0.00     0.097 A 
HETATM    8  C18 UNL     1      22.235   4.785  47.744  1.00  0.00     0.038 A 
HETATM    9  C19 UNL     1      22.420   6.133  47.266  1.00  0.00    -0.021 A 
HETATM   10  C20 UNL     1      21.461   6.986  47.838  1.00  0.00     0.012 A 
HETATM   11  C21 UNL     1      21.432   8.348  47.520  1.00  0.00     0.001 A 
HETATM   12  C22 UNL     1      22.338   8.890  46.642  1.00  0.00     0.000 A 
HETATM   13  C23 UNL     1      23.272   8.048  46.089  1.00  0.00     0.001 A 
HETATM   14  C24 UNL     1      23.338   6.711  46.371  1.00  0.00     0.012 A 
HETATM   15  C25 UNL     1      22.767   4.213  48.873  1.00  0.00     0.082 A 
ENDROOT
BRANCH   1  16
HETATM   16  C2  UNL     1      24.155   5.946  49.973  1.00  0.00     0.147 C 
BRANCH  16  17
HETATM   17  C1  UNL     1      24.363   6.391  51.411  1.00  0.00     0.194 C 
BRANCH  17  18
HETATM   18  O1  UNL     1      24.036   7.712  51.640  1.00  0.00    -0.398 OA
HETATM   19  H1  UNL     1      24.768   8.345  51.659  1.00  0.00     0.209 HD
ENDBRANCH  17  18
ENDBRANCH  16  17
BRANCH  16  20
HETATM   20  C3  UNL     1      25.541   5.788  49.377  1.00  0.00    -0.033 A 
HETATM   21  C4  UNL     1      25.993   6.996  48.877  1.00  0.00     0.009 A 
HETATM   22  C5  UNL     1      27.244   7.155  48.263  1.00  0.00     0.001 A 
HETATM   23  C6  UNL     1      28.072   6.058  48.147  1.00  0.00     0.000 A 
HETATM   24  C7  UNL     1      27.612   4.863  48.646  1.00  0.00     0.001 A 
HETATM   25  C8  UNL     1      26.387   4.712  49.246  1.00  0.00     0.009 A 
ENDBRANCH  16  20
ENDBRANCH   1  16
BRANCH   7  26
HETATM   26  C13 UNL     1      20.675   3.781  45.978  1.00  0.00     0.001 A 
HETATM   27  C14 UNL     1      21.272   3.964  44.808  1.00  0.00     0.014 A 
HETATM   28  C15 UNL     1      20.610   3.987  43.519  1.00  0.00     0.025 A 
HETATM   29  C16 UNL     1      19.316   3.813  43.487  1.00  0.00     0.135 A 
HETATM   30  O3  UNL     1      18.667   3.620  44.670  1.00  0.00    -0.358 OA
HETATM   31  C17 UNL     1      19.206   3.600  45.952  1.00  0.00     0.216 A 
ENDBRANCH   7  26
TORSDOF 5
ENDMDL
