MODEL 1
REMARK VINA RESULT:      -7.3      0.000      0.000
REMARK  3 active torsions:
REMARK  status: ('A' for Active; 'I' for Inactive)
REMARK    1  A    between atoms: O1_2  and  C2_3 
REMARK    2  A    between atoms: C7_11  and  N3_12 
REMARK    3  A    between atoms: N3_12  and  C8_13 
ROOT
HETATM    1  C2  UNL     1      22.222   1.309  52.124  1.00  0.00     0.183 C 
HETATM    2  C3  UNL     1      20.925   1.990  52.588  1.00  0.00     0.205 C 
HETATM    3  O2  UNL     1      19.915   1.079  52.804  1.00  0.00    -0.382 OA
HETATM    4  C4  UNL     1      20.154   0.260  53.902  1.00  0.00     0.227 C 
HETATM    5  C5  UNL     1      21.588  -0.065  54.002  1.00  0.00     0.072 A 
HETATM    6  N1  UNL     1      21.840  -0.922  55.030  1.00  0.00    -0.243 NA
HETATM    7  C6  UNL     1      23.111  -1.334  55.271  1.00  0.00     0.235 A 
HETATM    8  N2  UNL     1      24.086  -0.885  54.487  1.00  0.00    -0.224 NA
HETATM    9  C7  UNL     1      23.921  -0.044  53.460  1.00  0.00     0.140 A 
HETATM   10  C14 UNL     1      22.622   0.381  53.208  1.00  0.00     0.045 A 
ENDROOT
BRANCH   9  11
HETATM   11  N3  UNL     1      24.943   0.446  52.610  1.00  0.00    -0.340 N 
HETATM   12  H10 UNL     1      24.720   0.599  51.602  1.00  0.00     0.167 HD
BRANCH  11  13
HETATM   13  C8  UNL     1      26.276   0.765  52.967  1.00  0.00     0.035 A 
HETATM   14  C9  UNL     1      26.769   2.015  53.241  1.00  0.00     0.029 A 
HETATM   15  C10 UNL     1      28.067   2.314  53.587  1.00  0.00     0.004 A 
HETATM   16  C11 UNL     1      28.974   1.290  53.674  1.00  0.00     0.019 A 
HETATM   17  C12 UNL     1      28.549   0.013  53.413  1.00  0.00     0.013 A 
HETATM   18 BR1  UNL     1      29.784  -1.426  53.525  1.00  0.00    -0.051 Br
HETATM   19  C13 UNL     1      27.237  -0.221  53.070  1.00  0.00     0.048 A 
ENDBRANCH  11  13
ENDBRANCH   9  11
BRANCH   1  20
HETATM   20  O1  UNL     1      21.870   0.544  51.040  1.00  0.00    -0.384 OA
HETATM   21  C1  UNL     1      21.845   1.202  49.836  1.00  0.00     0.202 C 
ENDBRANCH   1  20
TORSDOF 3
ENDMDL
MODEL 2
REMARK VINA RESULT:      -7.2      3.628      6.640
REMARK  3 active torsions:
REMARK  status: ('A' for Active; 'I' for Inactive)
REMARK    1  A    between atoms: O1_2  and  C2_3 
REMARK    2  A    between atoms: C7_11  and  N3_12 
REMARK    3  A    between atoms: N3_12  and  C8_13 
ROOT
HETATM    1  C2  UNL     1      27.156  -0.442  54.021  1.00  0.00     0.183 C 
HETATM    2  C3  UNL     1      28.197   0.168  54.972  1.00  0.00     0.205 C 
HETATM    3  O2  UNL     1      29.330   0.573  54.302  1.00  0.00    -0.382 OA
HETATM    4  C4  UNL     1      29.103   1.666  53.473  1.00  0.00     0.227 C 
HETATM    5  C5  UNL     1      27.770   1.575  52.851  1.00  0.00     0.072 A 
HETATM    6  N1  UNL     1      27.550   2.599  51.980  1.00  0.00    -0.243 NA
HETATM    7  C6  UNL     1      26.370   2.676  51.312  1.00  0.00     0.235 A 
HETATM    8  N2  UNL     1      25.453   1.737  51.527  1.00  0.00    -0.224 NA
HETATM    9  C7  UNL     1      25.593   0.702  52.363  1.00  0.00     0.140 A 
HETATM   10  C14 UNL     1      26.798   0.619  53.050  1.00  0.00     0.045 A 
ENDROOT
BRANCH   9  11
HETATM   11  N3  UNL     1      24.632  -0.309  52.607  1.00  0.00    -0.340 N 
HETATM   12  H10 UNL     1      24.867  -1.291  52.342  1.00  0.00     0.167 HD
BRANCH  11  13
HETATM   13  C8  UNL     1      23.348  -0.152  53.184  1.00  0.00     0.035 A 
HETATM   14  C9  UNL     1      22.860  -0.819  54.279  1.00  0.00     0.029 A 
HETATM   15  C10 UNL     1      21.610  -0.659  54.832  1.00  0.00     0.004 A 
HETATM   16  C11 UNL     1      20.752   0.243  54.258  1.00  0.00     0.019 A 
HETATM   17  C12 UNL     1      21.175   0.946  53.160  1.00  0.00     0.013 A 
HETATM   18 BR1  UNL     1      20.007   2.202  52.345  1.00  0.00    -0.051 Br
HETATM   19  C13 UNL     1      22.438   0.739  52.654  1.00  0.00     0.048 A 
ENDBRANCH  11  13
ENDBRANCH   9  11
BRANCH   1  20
HETATM   20  O1  UNL     1      27.820  -1.424  53.328  1.00  0.00    -0.384 OA
HETATM   21  C1  UNL     1      27.022  -2.332  52.678  1.00  0.00     0.202 C 
ENDBRANCH   1  20
TORSDOF 3
ENDMDL
MODEL 3
REMARK VINA RESULT:      -7.1      4.341      5.903
REMARK  3 active torsions:
REMARK  status: ('A' for Active; 'I' for Inactive)
REMARK    1  A    between atoms: O1_2  and  C2_3 
REMARK    2  A    between atoms: C7_11  and  N3_12 
REMARK    3  A    between atoms: N3_12  and  C8_13 
ROOT
HETATM    1  C2  UNL     1      27.405   0.955  52.897  1.00  0.00     0.183 C 
HETATM    2  C3  UNL     1      27.565  -0.356  53.682  1.00  0.00     0.205 C 
HETATM    3  O2  UNL     1      26.799  -0.365  54.827  1.00  0.00    -0.382 OA
HETATM    4  C4  UNL     1      25.435  -0.417  54.561  1.00  0.00     0.227 C 
HETATM    5  C5  UNL     1      25.111   0.379  53.364  1.00  0.00     0.072 A 
HETATM    6  N1  UNL     1      23.771   0.401  53.121  1.00  0.00    -0.243 NA
HETATM    7  C6  UNL     1      23.288   1.090  52.055  1.00  0.00     0.235 A 
HETATM    8  N2  UNL     1      24.147   1.732  51.270  1.00  0.00    -0.224 NA
HETATM    9  C7  UNL     1      25.473   1.759  51.440  1.00  0.00     0.140 A 
HETATM   10  C14 UNL     1      25.973   1.056  52.529  1.00  0.00     0.045 A 
ENDROOT
BRANCH   9  11
HETATM   11  N3  UNL     1      26.407   2.437  50.618  1.00  0.00    -0.340 N 
HETATM   12  H10 UNL     1      27.286   1.942  50.352  1.00  0.00     0.167 HD
BRANCH  11  13
HETATM   13  C8  UNL     1      26.295   3.748  50.093  1.00  0.00     0.035 A 
HETATM   14  C9  UNL     1      27.094   4.311  49.130  1.00  0.00     0.029 A 
HETATM   15  C10 UNL     1      26.976   5.586  48.627  1.00  0.00     0.004 A 
HETATM   16  C11 UNL     1      25.979   6.392  49.113  1.00  0.00     0.019 A 
HETATM   17  C12 UNL     1      25.143   5.893  50.077  1.00  0.00     0.013 A 
HETATM   18 BR1  UNL     1      23.753   6.988  50.768  1.00  0.00    -0.051 Br
HETATM   19  C13 UNL     1      25.313   4.609  50.540  1.00  0.00     0.048 A 
ENDBRANCH  11  13
ENDBRANCH   9  11
BRANCH   1  20
HETATM   20  O1  UNL     1      27.669   1.959  53.796  1.00  0.00    -0.384 OA
HETATM   21  C1  UNL     1      28.967   2.400  53.827  1.00  0.00     0.202 C 
ENDBRANCH   1  20
TORSDOF 3
ENDMDL
MODEL 4
REMARK VINA RESULT:      -6.9      3.194      4.801
REMARK  3 active torsions:
REMARK  status: ('A' for Active; 'I' for Inactive)
REMARK    1  A    between atoms: O1_2  and  C2_3 
REMARK    2  A    between atoms: C7_11  and  N3_12 
REMARK    3  A    between atoms: N3_12  and  C8_13 
ROOT
HETATM    1  C2  UNL     1      24.987   0.231  53.167  1.00  0.00     0.183 C 
HETATM    2  C3  UNL     1      25.841  -0.871  53.813  1.00  0.00     0.205 C 
HETATM    3  O2  UNL     1      25.681  -0.909  55.180  1.00  0.00    -0.382 OA
HETATM    4  C4  UNL     1      24.416  -1.340  55.563  1.00  0.00     0.227 C 
HETATM    5  C5  UNL     1      23.393  -0.833  54.630  1.00  0.00     0.072 A 
HETATM    6  N1  UNL     1      22.137  -1.185  55.021  1.00  0.00    -0.243 NA
HETATM    7  C6  UNL     1      21.066  -0.800  54.280  1.00  0.00     0.235 A 
HETATM    8  N2  UNL     1      21.276  -0.082  53.182  1.00  0.00    -0.224 NA
HETATM    9  C7  UNL     1      22.476   0.304  52.732  1.00  0.00     0.140 A 
HETATM   10  C14 UNL     1      23.576  -0.087  53.487  1.00  0.00     0.045 A 
ENDROOT
BRANCH   9  11
HETATM   11  N3  UNL     1      22.724   1.070  51.567  1.00  0.00    -0.340 N 
HETATM   12  H10 UNL     1      22.698   0.588  50.641  1.00  0.00     0.167 HD
BRANCH  11  13
HETATM   13  C8  UNL     1      23.012   2.455  51.496  1.00  0.00     0.035 A 
HETATM   14  C9  UNL     1      22.365   3.458  52.170  1.00  0.00     0.029 A 
HETATM   15  C10 UNL     1      22.654   4.801  52.094  1.00  0.00     0.004 A 
HETATM   16  C11 UNL     1      23.678   5.205  51.276  1.00  0.00     0.019 A 
HETATM   17  C12 UNL     1      24.369   4.254  50.572  1.00  0.00     0.013 A 
HETATM   18 BR1  UNL     1      25.793   4.784  49.432  1.00  0.00    -0.051 Br
HETATM   19  C13 UNL     1      24.031   2.925  50.691  1.00  0.00     0.048 A 
ENDBRANCH  11  13
ENDBRANCH   9  11
BRANCH   1  20
HETATM   20  O1  UNL     1      25.308   1.386  53.835  1.00  0.00    -0.384 OA
HETATM   21  C1  UNL     1      26.435   2.032  53.393  1.00  0.00     0.202 C 
ENDBRANCH   1  20
TORSDOF 3
ENDMDL
MODEL 5
REMARK VINA RESULT:      -6.7      1.887      2.967
REMARK  3 active torsions:
REMARK  status: ('A' for Active; 'I' for Inactive)
REMARK    1  A    between atoms: O1_2  and  C2_3 
REMARK    2  A    between atoms: C7_11  and  N3_12 
REMARK    3  A    between atoms: N3_12  and  C8_13 
ROOT
HETATM    1  C2  UNL     1      22.905   0.121  52.649  1.00  0.00     0.183 C 
HETATM    2  C3  UNL     1      21.401  -0.123  52.446  1.00  0.00     0.205 C 
HETATM    3  O2  UNL     1      20.636   0.720  53.221  1.00  0.00    -0.382 OA
HETATM    4  C4  UNL     1      20.714   2.047  52.812  1.00  0.00     0.227 C 
HETATM    5  C5  UNL     1      22.078   2.366  52.353  1.00  0.00     0.072 A 
HETATM    6  N1  UNL     1      22.199   3.679  52.010  1.00  0.00    -0.243 NA
HETATM    7  C6  UNL     1      23.391   4.154  51.565  1.00  0.00     0.235 A 
HETATM    8  N2  UNL     1      24.418   3.315  51.475  1.00  0.00    -0.224 NA
HETATM    9  C7  UNL     1      24.380   2.016  51.792  1.00  0.00     0.140 A 
HETATM   10  C14 UNL     1      23.163   1.524  52.248  1.00  0.00     0.045 A 
ENDROOT
BRANCH   9  11
HETATM   11  N3  UNL     1      25.461   1.104  51.706  1.00  0.00    -0.340 N 
HETATM   12  H10 UNL     1      25.369   0.285  51.066  1.00  0.00     0.167 HD
BRANCH  11  13
HETATM   13  C8  UNL     1      26.692   1.165  52.404  1.00  0.00     0.035 A 
HETATM   14  C9  UNL     1      27.278   2.289  52.926  1.00  0.00     0.029 A 
HETATM   15  C10 UNL     1      28.475   2.337  53.603  1.00  0.00     0.004 A 
HETATM   16  C11 UNL     1      29.170   1.169  53.787  1.00  0.00     0.019 A 
HETATM   17  C12 UNL     1      28.642   0.006  53.290  1.00  0.00     0.013 A 
HETATM   18 BR1  UNL     1      29.582  -1.627  53.530  1.00  0.00    -0.051 Br
HETATM   19  C13 UNL     1      27.439   0.025  52.621  1.00  0.00     0.048 A 
ENDBRANCH  11  13
ENDBRANCH   9  11
BRANCH   1  20
HETATM   20  O1  UNL     1      23.113   0.037  54.003  1.00  0.00    -0.384 OA
HETATM   21  C1  UNL     1      24.134  -0.793  54.394  1.00  0.00     0.202 C 
ENDBRANCH   1  20
TORSDOF 3
ENDMDL
MODEL 6
REMARK VINA RESULT:      -6.6      3.549      6.064
REMARK  3 active torsions:
REMARK  status: ('A' for Active; 'I' for Inactive)
REMARK    1  A    between atoms: O1_2  and  C2_3 
REMARK    2  A    between atoms: C7_11  and  N3_12 
REMARK    3  A    between atoms: N3_12  and  C8_13 
ROOT
HETATM    1  C2  UNL     1      25.585   0.687  52.350  1.00  0.00     0.183 C 
HETATM    2  C3  UNL     1      27.073   0.336  52.496  1.00  0.00     0.205 C 
HETATM    3  O2  UNL     1      27.579   0.739  53.712  1.00  0.00    -0.382 OA
HETATM    4  C4  UNL     1      27.062   0.011  54.778  1.00  0.00     0.227 C 
HETATM    5  C5  UNL     1      25.642  -0.309  54.545  1.00  0.00     0.072 A 
HETATM    6  N1  UNL     1      25.093  -0.963  55.606  1.00  0.00    -0.243 NA
HETATM    7  C6  UNL     1      23.788  -1.336  55.568  1.00  0.00     0.235 A 
HETATM    8  N2  UNL     1      23.074  -1.049  54.484  1.00  0.00    -0.224 NA
HETATM    9  C7  UNL     1      23.539  -0.411  53.404  1.00  0.00     0.140 A 
HETATM   10  C14 UNL     1      24.874  -0.026  53.437  1.00  0.00     0.045 A 
ENDROOT
BRANCH   9  11
HETATM   11  N3  UNL     1      22.797  -0.092  52.240  1.00  0.00    -0.340 N 
HETATM   12  H10 UNL     1      23.109  -0.493  51.328  1.00  0.00     0.167 HD
BRANCH  11  13
HETATM   13  C8  UNL     1      21.647   0.730  52.152  1.00  0.00     0.035 A 
HETATM   14  C9  UNL     1      21.562   2.052  52.509  1.00  0.00     0.029 A 
HETATM   15  C10 UNL     1      20.439   2.842  52.420  1.00  0.00     0.004 A 
HETATM   16  C11 UNL     1      19.284   2.285  51.934  1.00  0.00     0.019 A 
HETATM   17  C12 UNL     1      19.298   0.967  51.557  1.00  0.00     0.013 A 
HETATM   18 BR1  UNL     1      17.713   0.170  50.880  1.00  0.00    -0.051 Br
HETATM   19  C13 UNL     1      20.454   0.230  51.672  1.00  0.00     0.048 A 
ENDBRANCH  11  13
ENDBRANCH   9  11
BRANCH   1  20
HETATM   20  O1  UNL     1      25.495   2.031  52.615  1.00  0.00    -0.384 OA
HETATM   21  C1  UNL     1      25.126   2.820  51.554  1.00  0.00     0.202 C 
ENDBRANCH   1  20
TORSDOF 3
ENDMDL
MODEL 7
REMARK VINA RESULT:      -6.6      3.740      6.103
REMARK  3 active torsions:
REMARK  status: ('A' for Active; 'I' for Inactive)
REMARK    1  A    between atoms: O1_2  and  C2_3 
REMARK    2  A    between atoms: C7_11  and  N3_12 
REMARK    3  A    between atoms: N3_12  and  C8_13 
ROOT
HETATM    1  C2  UNL     1      23.767   3.583  50.755  1.00  0.00     0.183 C 
HETATM    2  C3  UNL     1      24.232   3.820  49.310  1.00  0.00     0.205 C 
HETATM    3  O2  UNL     1      25.484   4.391  49.262  1.00  0.00    -0.382 OA
HETATM    4  C4  UNL     1      26.487   3.528  49.691  1.00  0.00     0.227 C 
HETATM    5  C5  UNL     1      26.007   2.695  50.808  1.00  0.00     0.072 A 
HETATM    6  N1  UNL     1      26.992   1.887  51.292  1.00  0.00    -0.243 NA
HETATM    7  C6  UNL     1      26.730   1.049  52.328  1.00  0.00     0.235 A 
HETATM    8  N2  UNL     1      25.506   1.040  52.846  1.00  0.00    -0.224 NA
HETATM    9  C7  UNL     1      24.487   1.800  52.429  1.00  0.00     0.140 A 
HETATM   10  C14 UNL     1      24.750   2.660  51.369  1.00  0.00     0.045 A 
ENDROOT
BRANCH   9  11
HETATM   11  N3  UNL     1      23.177   1.809  52.966  1.00  0.00    -0.340 N 
HETATM   12  H10 UNL     1      22.697   2.727  53.090  1.00  0.00     0.167 HD
BRANCH  11  13
HETATM   13  C8  UNL     1      22.408   0.690  53.373  1.00  0.00     0.035 A 
HETATM   14  C9  UNL     1      22.823  -0.329  54.192  1.00  0.00     0.029 A 
HETATM   15  C10 UNL     1      22.067  -1.411  54.581  1.00  0.00     0.004 A 
HETATM   16  C11 UNL     1      20.778  -1.507  54.123  1.00  0.00     0.019 A 
HETATM   17  C12 UNL     1      20.298  -0.522  53.300  1.00  0.00     0.013 A 
HETATM   18 BR1  UNL     1      18.516  -0.630  52.652  1.00  0.00    -0.051 Br
HETATM   19  C13 UNL     1      21.105   0.535  52.947  1.00  0.00     0.048 A 
ENDBRANCH  11  13
ENDBRANCH   9  11
BRANCH   1  20
HETATM   20  O1  UNL     1      23.891   4.795  51.387  1.00  0.00    -0.384 OA
HETATM   21  C1  UNL     1      22.784   5.604  51.339  1.00  0.00     0.202 C 
ENDBRANCH   1  20
TORSDOF 3
ENDMDL
MODEL 8
REMARK VINA RESULT:      -6.6      3.533      4.360
REMARK  3 active torsions:
REMARK  status: ('A' for Active; 'I' for Inactive)
REMARK    1  A    between atoms: O1_2  and  C2_3 
REMARK    2  A    between atoms: C7_11  and  N3_12 
REMARK    3  A    between atoms: N3_12  and  C8_13 
ROOT
HETATM    1  C2  UNL     1      21.676   0.622  53.276  1.00  0.00     0.183 C 
HETATM    2  C3  UNL     1      21.149   0.182  54.651  1.00  0.00     0.205 C 
HETATM    3  O2  UNL     1      21.421  -1.143  54.904  1.00  0.00    -0.382 OA
HETATM    4  C4  UNL     1      22.777  -1.389  55.085  1.00  0.00     0.227 C 
HETATM    5  C5  UNL     1      23.581  -0.545  54.183  1.00  0.00     0.072 A 
HETATM    6  N1  UNL     1      24.911  -0.816  54.293  1.00  0.00    -0.243 NA
HETATM    7  C6  UNL     1      25.804  -0.132  53.532  1.00  0.00     0.235 A 
HETATM    8  N2  UNL     1      25.350   0.793  52.692  1.00  0.00    -0.224 NA
HETATM    9  C7  UNL     1      24.063   1.116  52.527  1.00  0.00     0.140 A 
HETATM   10  C14 UNL     1      23.144   0.420  53.302  1.00  0.00     0.045 A 
ENDROOT
BRANCH   9  11
HETATM   11  N3  UNL     1      23.555   2.095  51.637  1.00  0.00    -0.340 N 
HETATM   12  H10 UNL     1      22.535   2.086  51.418  1.00  0.00     0.167 HD
BRANCH  11  13
HETATM   13  C8  UNL     1      24.282   3.121  50.985  1.00  0.00     0.035 A 
HETATM   14  C9  UNL     1      25.352   2.953  50.144  1.00  0.00     0.029 A 
HETATM   15  C10 UNL     1      26.051   3.958  49.514  1.00  0.00     0.004 A 
HETATM   16  C11 UNL     1      25.667   5.256  49.729  1.00  0.00     0.019 A 
HETATM   17  C12 UNL     1      24.604   5.498  50.560  1.00  0.00     0.013 A 
HETATM   18 BR1  UNL     1      24.049   7.287  50.875  1.00  0.00    -0.051 Br
HETATM   19  C13 UNL     1      23.946   4.449  51.160  1.00  0.00     0.048 A 
ENDBRANCH  11  13
ENDBRANCH   9  11
BRANCH   1  20
HETATM   20  O1  UNL     1      21.155  -0.274  52.376  1.00  0.00    -0.384 OA
HETATM   21  C1  UNL     1      20.305   0.256  51.438  1.00  0.00     0.202 C 
ENDBRANCH   1  20
TORSDOF 3
ENDMDL
MODEL 9
REMARK VINA RESULT:      -6.5      4.824      5.772
REMARK  3 active torsions:
REMARK  status: ('A' for Active; 'I' for Inactive)
REMARK    1  A    between atoms: O1_2  and  C2_3 
REMARK    2  A    between atoms: C7_11  and  N3_12 
REMARK    3  A    between atoms: N3_12  and  C8_13 
ROOT
HETATM    1  C2  UNL     1      23.749   3.294  50.311  1.00  0.00     0.183 C 
HETATM    2  C3  UNL     1      22.668   3.631  51.350  1.00  0.00     0.205 C 
HETATM    3  O2  UNL     1      22.351   2.542  52.131  1.00  0.00    -0.382 OA
HETATM    4  C4  UNL     1      23.385   2.171  52.983  1.00  0.00     0.227 C 
HETATM    5  C5  UNL     1      24.690   2.354  52.322  1.00  0.00     0.072 A 
HETATM    6  N1  UNL     1      25.717   1.933  53.111  1.00  0.00    -0.243 NA
HETATM    7  C6  UNL     1      26.995   2.025  52.662  1.00  0.00     0.235 A 
HETATM    8  N2  UNL     1      27.211   2.529  51.451  1.00  0.00    -0.224 NA
HETATM    9  C7  UNL     1      26.259   2.962  50.617  1.00  0.00     0.140 A 
HETATM   10  C14 UNL     1      24.948   2.871  51.071  1.00  0.00     0.045 A 
ENDROOT
BRANCH   9  11
HETATM   11  N3  UNL     1      26.464   3.500  49.323  1.00  0.00    -0.340 N 
HETATM   12  H10 UNL     1      26.214   2.914  48.496  1.00  0.00     0.167 HD
BRANCH  11  13
HETATM   13  C8  UNL     1      26.984   4.776  48.996  1.00  0.00     0.035 A 
HETATM   14  C9  UNL     1      28.215   5.039  48.452  1.00  0.00     0.029 A 
HETATM   15  C10 UNL     1      28.711   6.284  48.138  1.00  0.00     0.004 A 
HETATM   16  C11 UNL     1      27.926   7.381  48.380  1.00  0.00     0.019 A 
HETATM   17  C12 UNL     1      26.682   7.191  48.924  1.00  0.00     0.013 A 
HETATM   18 BR1  UNL     1      25.573   8.694  49.270  1.00  0.00    -0.051 Br
HETATM   19  C13 UNL     1      26.244   5.920  49.216  1.00  0.00     0.048 A 
ENDBRANCH  11  13
ENDBRANCH   9  11
BRANCH   1  20
HETATM   20  O1  UNL     1      23.283   2.194  49.635  1.00  0.00    -0.384 OA
HETATM   21  C1  UNL     1      22.472   2.460  48.561  1.00  0.00     0.202 C 
ENDBRANCH   1  20
TORSDOF 3
ENDMDL
