MODEL 1
REMARK VINA RESULT:      -8.6      0.000      0.000
REMARK  5 active torsions:
REMARK  status: ('A' for Active; 'I' for Inactive)
REMARK    1  A    between atoms: C6_6  and  C7_7 
REMARK    2  A    between atoms: C7_7  and  O1_9 
REMARK    3  A    between atoms: C7_7  and  C9_12 
REMARK    4  A    between atoms: O1_9  and  O2_10 
REMARK    5  A    between atoms: O2_10  and  N1_11 
ROOT
HETATM    1  C7  UNL     1      25.982   0.971  52.540  1.00  0.00     0.149 C 
HETATM    2  C8  UNL     1      26.380   1.944  53.647  1.00  0.00     0.060 C 
ENDROOT
BRANCH   1   3
HETATM    3  C6  UNL     1      26.865  -0.203  52.676  1.00  0.00    -0.016 A 
HETATM    4  C5  UNL     1      26.439  -1.437  52.255  1.00  0.00     0.011 A 
HETATM    5  C4  UNL     1      27.325  -2.506  52.413  1.00  0.00     0.001 A 
HETATM    6  C3  UNL     1      28.592  -2.327  52.975  1.00  0.00     0.007 A 
HETATM    7  C2  UNL     1      29.015  -1.100  53.392  1.00  0.00    -0.061 A 
HETATM    8  C1  UNL     1      30.343  -0.842  53.995  1.00  0.00     0.048 C 
HETATM    9  C17 UNL     1      28.123  -0.064  53.226  1.00  0.00     0.017 A 
ENDBRANCH   1   3
BRANCH   1  10
HETATM   10  O1  UNL     1      26.239   1.649  51.345  1.00  0.00    -0.202 OA
BRANCH  10  11
HETATM   11  O2  UNL     1      27.059   2.625  51.581  1.00  0.00    -0.143 OA
BRANCH  11  12
HETATM   12  N1  UNL     1      27.057   3.583  50.625  1.00  0.00    -0.182 NA
HETATM   13  H10 UNL     1      27.983   4.003  50.451  1.00  0.00     0.153 HD
HETATM   14  H11 UNL     1      26.293   4.251  50.791  1.00  0.00     0.153 HD
ENDBRANCH  11  12
ENDBRANCH  10  11
ENDBRANCH   1  10
BRANCH   1  15
HETATM   15  C9  UNL     1      24.546   0.682  52.714  1.00  0.00    -0.005 A 
HETATM   16  C10 UNL     1      23.496   1.067  51.971  1.00  0.00     0.012 A 
HETATM   17  C11 UNL     1      22.245   0.546  52.512  1.00  0.00     0.013 A 
HETATM   18  C12 UNL     1      22.507  -0.162  53.588  1.00  0.00    -0.025 A 
HETATM   19  C13 UNL     1      21.997  -0.986  54.699  1.00  0.00     0.012 A 
HETATM   20  C16 UNL     1      23.958  -0.124  53.784  1.00  0.00    -0.016 A 
HETATM   21  C14 UNL     1      23.016  -1.369  55.435  1.00  0.00     0.002 A 
HETATM   22  C15 UNL     1      24.252  -0.828  54.861  1.00  0.00     0.013 A 
ENDBRANCH   1  15
TORSDOF 5
ENDMDL
MODEL 2
REMARK VINA RESULT:      -8.1      1.175      2.079
REMARK  5 active torsions:
REMARK  status: ('A' for Active; 'I' for Inactive)
REMARK    1  A    between atoms: C6_6  and  C7_7 
REMARK    2  A    between atoms: C7_7  and  O1_9 
REMARK    3  A    between atoms: C7_7  and  C9_12 
REMARK    4  A    between atoms: O1_9  and  O2_10 
REMARK    5  A    between atoms: O2_10  and  N1_11 
ROOT
HETATM    1  C7  UNL     1      24.673   1.814  52.218  1.00  0.00     0.149 C 
HETATM    2  C8  UNL     1      24.454   3.044  53.094  1.00  0.00     0.060 C 
ENDROOT
BRANCH   1   3
HETATM    3  C6  UNL     1      25.744   1.027  52.859  1.00  0.00    -0.016 A 
HETATM    4  C5  UNL     1      26.449   1.554  53.911  1.00  0.00     0.011 A 
HETATM    5  C4  UNL     1      27.450   0.757  54.471  1.00  0.00     0.001 A 
HETATM    6  C3  UNL     1      27.722  -0.525  53.984  1.00  0.00     0.007 A 
HETATM    7  C2  UNL     1      27.021  -1.048  52.939  1.00  0.00    -0.061 A 
HETATM    8  C1  UNL     1      27.258  -2.396  52.374  1.00  0.00     0.048 C 
HETATM    9  C17 UNL     1      26.041  -0.242  52.404  1.00  0.00     0.017 A 
ENDBRANCH   1   3
BRANCH   1  10
HETATM   10  O1  UNL     1      25.097   2.313  50.983  1.00  0.00    -0.202 OA
BRANCH  10  11
HETATM   11  O2  UNL     1      25.669   3.461  51.164  1.00  0.00    -0.143 OA
BRANCH  11  12
HETATM   12  N1  UNL     1      26.897   3.555  50.605  1.00  0.00    -0.182 NA
HETATM   13  H10 UNL     1      27.672   3.382  51.263  1.00  0.00     0.153 HD
HETATM   14  H11 UNL     1      26.972   4.420  50.052  1.00  0.00     0.153 HD
ENDBRANCH  11  12
ENDBRANCH  10  11
ENDBRANCH   1  10
BRANCH   1  15
HETATM   15  C9  UNL     1      23.377   1.117  52.118  1.00  0.00    -0.005 A 
HETATM   16  C10 UNL     1      22.482   1.106  51.116  1.00  0.00     0.012 A 
HETATM   17  C11 UNL     1      21.329   0.275  51.445  1.00  0.00     0.013 A 
HETATM   18  C12 UNL     1      21.497  -0.232  52.647  1.00  0.00    -0.025 A 
HETATM   19  C13 UNL     1      20.972  -1.081  53.731  1.00  0.00     0.012 A 
HETATM   20  C16 UNL     1      22.784   0.259  53.144  1.00  0.00    -0.016 A 
HETATM   21  C14 UNL     1      21.838  -1.078  54.719  1.00  0.00     0.002 A 
HETATM   22  C15 UNL     1      22.980  -0.235  54.352  1.00  0.00     0.013 A 
ENDBRANCH   1  15
TORSDOF 5
ENDMDL
MODEL 3
REMARK VINA RESULT:      -8.0      0.750      1.964
REMARK  5 active torsions:
REMARK  status: ('A' for Active; 'I' for Inactive)
REMARK    1  A    between atoms: C6_6  and  C7_7 
REMARK    2  A    between atoms: C7_7  and  O1_9 
REMARK    3  A    between atoms: C7_7  and  C9_12 
REMARK    4  A    between atoms: O1_9  and  O2_10 
REMARK    5  A    between atoms: O2_10  and  N1_11 
ROOT
HETATM    1  C7  UNL     1      25.707   0.771  52.761  1.00  0.00     0.149 C 
HETATM    2  C8  UNL     1      26.032   1.786  53.854  1.00  0.00     0.060 C 
ENDROOT
BRANCH   1   3
HETATM    3  C6  UNL     1      26.748  -0.272  52.834  1.00  0.00    -0.016 A 
HETATM    4  C5  UNL     1      26.457  -1.562  52.468  1.00  0.00     0.011 A 
HETATM    5  C4  UNL     1      27.488  -2.500  52.562  1.00  0.00     0.001 A 
HETATM    6  C3  UNL     1      28.764  -2.140  53.008  1.00  0.00     0.007 A 
HETATM    7  C2  UNL     1      29.053  -0.859  53.370  1.00  0.00    -0.061 A 
HETATM    8  C1  UNL     1      30.380  -0.413  53.850  1.00  0.00     0.048 C 
HETATM    9  C17 UNL     1      28.019   0.046  53.269  1.00  0.00     0.017 A 
ENDBRANCH   1   3
BRANCH   1  10
HETATM   10  O1  UNL     1      25.802   1.482  51.561  1.00  0.00    -0.202 OA
BRANCH  10  11
HETATM   11  O2  UNL     1      26.124   2.710  51.821  1.00  0.00    -0.143 OA
BRANCH  11  12
HETATM   12  N1  UNL     1      27.014   3.239  50.950  1.00  0.00    -0.182 NA
HETATM   13  H10 UNL     1      27.880   2.687  50.849  1.00  0.00     0.153 HD
HETATM   14  H11 UNL     1      27.150   4.240  51.141  1.00  0.00     0.153 HD
ENDBRANCH  11  12
ENDBRANCH  10  11
ENDBRANCH   1  10
BRANCH   1  15
HETATM   15  C9  UNL     1      24.337   0.288  53.011  1.00  0.00    -0.005 A 
HETATM   16  C10 UNL     1      23.870  -0.503  53.991  1.00  0.00     0.012 A 
HETATM   17  C11 UNL     1      22.435  -0.726  53.852  1.00  0.00     0.013 A 
HETATM   18  C12 UNL     1      22.002  -0.080  52.792  1.00  0.00    -0.025 A 
HETATM   19  C13 UNL     1      20.868   0.277  51.921  1.00  0.00     0.012 A 
HETATM   20  C16 UNL     1      23.159   0.594  52.198  1.00  0.00    -0.016 A 
HETATM   21  C14 UNL     1      21.312   1.051  50.956  1.00  0.00     0.002 A 
HETATM   22  C15 UNL     1      22.754   1.253  51.129  1.00  0.00     0.013 A 
ENDBRANCH   1  15
TORSDOF 5
ENDMDL
MODEL 4
REMARK VINA RESULT:      -7.9      1.850      5.365
REMARK  5 active torsions:
REMARK  status: ('A' for Active; 'I' for Inactive)
REMARK    1  A    between atoms: C6_6  and  C7_7 
REMARK    2  A    between atoms: C7_7  and  O1_9 
REMARK    3  A    between atoms: C7_7  and  C9_12 
REMARK    4  A    between atoms: O1_9  and  O2_10 
REMARK    5  A    between atoms: O2_10  and  N1_11 
ROOT
HETATM    1  C7  UNL     1      24.701   1.865  52.359  1.00  0.00     0.149 C 
HETATM    2  C8  UNL     1      24.938   2.508  50.995  1.00  0.00     0.060 C 
ENDROOT
BRANCH   1   3
HETATM    3  C6  UNL     1      23.391   1.189  52.282  1.00  0.00    -0.016 A 
HETATM    4  C5  UNL     1      22.665   1.225  51.118  1.00  0.00     0.011 A 
HETATM    5  C4  UNL     1      21.434   0.565  51.114  1.00  0.00     0.001 A 
HETATM    6  C3  UNL     1      20.961  -0.106  52.245  1.00  0.00     0.007 A 
HETATM    7  C2  UNL     1      21.682  -0.142  53.401  1.00  0.00    -0.061 A 
HETATM    8  C1  UNL     1      21.240  -0.833  54.633  1.00  0.00     0.048 C 
HETATM    9  C17 UNL     1      22.892   0.517  53.379  1.00  0.00     0.017 A 
ENDBRANCH   1   3
BRANCH   1  10
HETATM   10  O1  UNL     1      24.656   2.929  53.264  1.00  0.00    -0.202 OA
BRANCH  10  11
HETATM   11  O2  UNL     1      24.171   3.971  52.667  1.00  0.00    -0.143 OA
BRANCH  11  12
HETATM   12  N1  UNL     1      23.959   5.024  53.491  1.00  0.00    -0.182 NA
HETATM   13  H10 UNL     1      24.172   4.830  54.482  1.00  0.00     0.153 HD
HETATM   14  H11 UNL     1      23.034   5.437  53.312  1.00  0.00     0.153 HD
ENDBRANCH  11  12
ENDBRANCH  10  11
ENDBRANCH   1  10
BRANCH   1  15
HETATM   15  C9  UNL     1      25.841   0.965  52.618  1.00  0.00    -0.005 A 
HETATM   16  C10 UNL     1      25.949  -0.361  52.433  1.00  0.00     0.012 A 
HETATM   17  C11 UNL     1      27.268  -0.844  52.825  1.00  0.00     0.013 A 
HETATM   18  C12 UNL     1      27.985   0.171  53.254  1.00  0.00    -0.025 A 
HETATM   19  C13 UNL     1      29.267   0.658  53.795  1.00  0.00     0.012 A 
HETATM   20  C16 UNL     1      27.143   1.365  53.152  1.00  0.00    -0.016 A 
HETATM   21  C14 UNL     1      29.175   1.955  53.981  1.00  0.00     0.002 A 
HETATM   22  C15 UNL     1      27.839   2.403  53.576  1.00  0.00     0.013 A 
ENDBRANCH   1  15
TORSDOF 5
ENDMDL
MODEL 5
REMARK VINA RESULT:      -7.6      2.409      4.589
REMARK  5 active torsions:
REMARK  status: ('A' for Active; 'I' for Inactive)
REMARK    1  A    between atoms: C6_6  and  C7_7 
REMARK    2  A    between atoms: C7_7  and  O1_9 
REMARK    3  A    between atoms: C7_7  and  C9_12 
REMARK    4  A    between atoms: O1_9  and  O2_10 
REMARK    5  A    between atoms: O2_10  and  N1_11 
ROOT
HETATM    1  C7  UNL     1      25.449   0.935  53.407  1.00  0.00     0.149 C 
HETATM    2  C8  UNL     1      26.149   0.129  52.315  1.00  0.00     0.060 C 
ENDROOT
BRANCH   1   3
HETATM    3  C6  UNL     1      24.792   2.071  52.733  1.00  0.00    -0.016 A 
HETATM    4  C5  UNL     1      24.360   3.149  53.464  1.00  0.00     0.011 A 
HETATM    5  C4  UNL     1      23.745   4.189  52.763  1.00  0.00     0.001 A 
HETATM    6  C3  UNL     1      23.579   4.138  51.376  1.00  0.00     0.007 A 
HETATM    7  C2  UNL     1      24.008   3.068  50.650  1.00  0.00    -0.061 A 
HETATM    8  C1  UNL     1      23.863   2.950  49.182  1.00  0.00     0.048 C 
HETATM    9  C17 UNL     1      24.609   2.055  51.364  1.00  0.00     0.017 A 
ENDBRANCH   1   3
BRANCH   1  10
HETATM   10  O1  UNL     1      26.473   1.382  54.246  1.00  0.00    -0.202 OA
BRANCH  10  11
HETATM   11  O2  UNL     1      27.570   0.764  53.942  1.00  0.00    -0.143 OA
BRANCH  11  12
HETATM   12  N1  UNL     1      28.489   0.761  54.935  1.00  0.00    -0.182 NA
HETATM   13  H10 UNL     1      28.084   0.821  55.882  1.00  0.00     0.153 HD
HETATM   14  H11 UNL     1      29.237   1.438  54.731  1.00  0.00     0.153 HD
ENDBRANCH  11  12
ENDBRANCH  10  11
ENDBRANCH   1  10
BRANCH   1  15
HETATM   15  C9  UNL     1      24.526   0.016  54.099  1.00  0.00    -0.005 A 
HETATM   16  C10 UNL     1      24.751  -0.808  55.136  1.00  0.00     0.012 A 
HETATM   17  C11 UNL     1      23.543  -1.540  55.502  1.00  0.00     0.013 A 
HETATM   18  C12 UNL     1      22.566  -1.179  54.700  1.00  0.00    -0.025 A 
HETATM   19  C13 UNL     1      21.153  -1.323  54.307  1.00  0.00     0.012 A 
HETATM   20  C16 UNL     1      23.114  -0.187  53.774  1.00  0.00    -0.016 A 
HETATM   21  C14 UNL     1      20.919  -0.523  53.292  1.00  0.00     0.002 A 
HETATM   22  C15 UNL     1      22.152   0.195  52.954  1.00  0.00     0.013 A 
ENDBRANCH   1  15
TORSDOF 5
ENDMDL
MODEL 6
REMARK VINA RESULT:      -7.6      2.581      4.202
REMARK  5 active torsions:
REMARK  status: ('A' for Active; 'I' for Inactive)
REMARK    1  A    between atoms: C6_6  and  C7_7 
REMARK    2  A    between atoms: C7_7  and  O1_9 
REMARK    3  A    between atoms: C7_7  and  C9_12 
REMARK    4  A    between atoms: O1_9  and  O2_10 
REMARK    5  A    between atoms: O2_10  and  N1_11 
ROOT
HETATM    1  C7  UNL     1      25.223   1.640  52.452  1.00  0.00     0.149 C 
HETATM    2  C8  UNL     1      26.224   0.701  51.783  1.00  0.00     0.060 C 
ENDROOT
BRANCH   1   3
HETATM    3  C6  UNL     1      25.178   2.862  51.626  1.00  0.00    -0.016 A 
HETATM    4  C5  UNL     1      24.170   3.776  51.803  1.00  0.00     0.011 A 
HETATM    5  C4  UNL     1      24.187   4.910  50.987  1.00  0.00     0.001 A 
HETATM    6  C3  UNL     1      25.189   5.108  50.033  1.00  0.00     0.007 A 
HETATM    7  C2  UNL     1      26.190   4.201  49.858  1.00  0.00    -0.061 A 
HETATM    8  C1  UNL     1      27.279   4.349  48.866  1.00  0.00     0.048 C 
HETATM    9  C17 UNL     1      26.150   3.091  50.673  1.00  0.00     0.017 A 
ENDBRANCH   1   3
BRANCH   1  10
HETATM   10  O1  UNL     1      25.761   1.914  53.712  1.00  0.00    -0.202 OA
BRANCH  10  11
HETATM   11  O2  UNL     1      27.036   1.683  53.686  1.00  0.00    -0.143 OA
BRANCH  11  12
HETATM   12  N1  UNL     1      27.789   2.723  54.114  1.00  0.00    -0.182 NA
HETATM   13  H10 UNL     1      27.382   3.648  53.906  1.00  0.00     0.153 HD
HETATM   14  H11 UNL     1      28.768   2.597  53.826  1.00  0.00     0.153 HD
ENDBRANCH  11  12
ENDBRANCH  10  11
ENDBRANCH   1  10
BRANCH   1  15
HETATM   15  C9  UNL     1      23.942   0.914  52.543  1.00  0.00    -0.005 A 
HETATM   16  C10 UNL     1      22.868   0.962  51.738  1.00  0.00     0.012 A 
HETATM   17  C11 UNL     1      21.814   0.069  52.207  1.00  0.00     0.013 A 
HETATM   18  C12 UNL     1      22.223  -0.536  53.301  1.00  0.00    -0.025 A 
HETATM   19  C13 UNL     1      21.933  -1.493  54.384  1.00  0.00     0.012 A 
HETATM   20  C16 UNL     1      23.575  -0.049  53.581  1.00  0.00    -0.016 A 
HETATM   21  C14 UNL     1      22.977  -1.548  55.180  1.00  0.00     0.002 A 
HETATM   22  C15 UNL     1      24.012  -0.641  54.677  1.00  0.00     0.013 A 
ENDBRANCH   1  15
TORSDOF 5
ENDMDL
MODEL 7
REMARK VINA RESULT:      -7.3      2.862      5.669
REMARK  5 active torsions:
REMARK  status: ('A' for Active; 'I' for Inactive)
REMARK    1  A    between atoms: C6_6  and  C7_7 
REMARK    2  A    between atoms: C7_7  and  O1_9 
REMARK    3  A    between atoms: C7_7  and  C9_12 
REMARK    4  A    between atoms: O1_9  and  O2_10 
REMARK    5  A    between atoms: O2_10  and  N1_11 
ROOT
HETATM    1  C7  UNL     1      24.030   3.079  51.129  1.00  0.00     0.149 C 
HETATM    2  C8  UNL     1      24.786   4.202  50.423  1.00  0.00     0.060 C 
ENDROOT
BRANCH   1   3
HETATM    3  C6  UNL     1      23.061   2.547  50.152  1.00  0.00    -0.016 A 
HETATM    4  C5  UNL     1      23.305   2.665  48.807  1.00  0.00     0.011 A 
HETATM    5  C4  UNL     1      22.347   2.140  47.936  1.00  0.00     0.001 A 
HETATM    6  C3  UNL     1      21.190   1.518  48.413  1.00  0.00     0.007 A 
HETATM    7  C2  UNL     1      20.948   1.400  49.749  1.00  0.00    -0.061 A 
HETATM    8  C1  UNL     1      19.744   0.755  50.320  1.00  0.00     0.048 C 
HETATM    9  C17 UNL     1      21.907   1.927  50.586  1.00  0.00     0.017 A 
ENDBRANCH   1   3
BRANCH   1  10
HETATM   10  O1  UNL     1      23.369   3.695  52.195  1.00  0.00    -0.202 OA
BRANCH  10  11
HETATM   11  O2  UNL     1      23.771   4.923  52.290  1.00  0.00    -0.143 OA
BRANCH  11  12
HETATM   12  N1  UNL     1      23.881   5.366  53.564  1.00  0.00    -0.182 NA
HETATM   13  H10 UNL     1      24.797   5.789  53.783  1.00  0.00     0.153 HD
HETATM   14  H11 UNL     1      23.559   4.644  54.222  1.00  0.00     0.153 HD
ENDBRANCH  11  12
ENDBRANCH  10  11
ENDBRANCH   1  10
BRANCH   1  15
HETATM   15  C9  UNL     1      25.036   2.104  51.590  1.00  0.00    -0.005 A 
HETATM   16  C10 UNL     1      26.333   1.986  51.262  1.00  0.00     0.012 A 
HETATM   17  C11 UNL     1      26.957   0.870  51.963  1.00  0.00     0.013 A 
HETATM   18  C12 UNL     1      26.059   0.289  52.727  1.00  0.00    -0.025 A 
HETATM   19  C13 UNL     1      25.739  -0.776  53.694  1.00  0.00     0.012 A 
HETATM   20  C16 UNL     1      24.803   1.020  52.545  1.00  0.00    -0.016 A 
HETATM   21  C14 UNL     1      24.472  -0.673  54.024  1.00  0.00     0.002 A 
HETATM   22  C15 UNL     1      23.880   0.457  53.302  1.00  0.00     0.013 A 
ENDBRANCH   1  15
TORSDOF 5
ENDMDL
MODEL 8
REMARK VINA RESULT:      -7.3      4.568      7.056
REMARK  5 active torsions:
REMARK  status: ('A' for Active; 'I' for Inactive)
REMARK    1  A    between atoms: C6_6  and  C7_7 
REMARK    2  A    between atoms: C7_7  and  O1_9 
REMARK    3  A    between atoms: C7_7  and  C9_12 
REMARK    4  A    between atoms: O1_9  and  O2_10 
REMARK    5  A    between atoms: O2_10  and  N1_11 
ROOT
HETATM    1  C7  UNL     1      24.541   3.286  50.782  1.00  0.00     0.149 C 
HETATM    2  C8  UNL     1      24.066   3.551  52.208  1.00  0.00     0.060 C 
ENDROOT
BRANCH   1   3
HETATM    3  C6  UNL     1      23.442   2.577  50.099  1.00  0.00    -0.016 A 
HETATM    4  C5  UNL     1      23.289   2.690  48.740  1.00  0.00     0.011 A 
HETATM    5  C4  UNL     1      22.227   1.994  48.157  1.00  0.00     0.001 A 
HETATM    6  C3  UNL     1      21.359   1.212  48.923  1.00  0.00     0.007 A 
HETATM    7  C2  UNL     1      21.511   1.099  50.273  1.00  0.00    -0.061 A 
HETATM    8  C1  UNL     1      20.627   0.289  51.142  1.00  0.00     0.048 C 
HETATM    9  C17 UNL     1      22.564   1.796  50.823  1.00  0.00     0.017 A 
ENDBRANCH   1   3
BRANCH   1  10
HETATM   10  O1  UNL     1      25.658   2.456  50.916  1.00  0.00    -0.202 OA
BRANCH  10  11
HETATM   11  O2  UNL     1      26.159   2.609  52.101  1.00  0.00    -0.143 OA
BRANCH  11  12
HETATM   12  N1  UNL     1      27.512   2.643  52.122  1.00  0.00    -0.182 NA
HETATM   13  H10 UNL     1      27.908   2.986  53.010  1.00  0.00     0.153 HD
HETATM   14  H11 UNL     1      27.871   3.100  51.273  1.00  0.00     0.153 HD
ENDBRANCH  11  12
ENDBRANCH  10  11
ENDBRANCH   1  10
BRANCH   1  15
HETATM   15  C9  UNL     1      24.889   4.591  50.192  1.00  0.00    -0.005 A 
HETATM   16  C10 UNL     1      24.200   5.744  50.188  1.00  0.00     0.012 A 
HETATM   17  C11 UNL     1      24.927   6.793  49.483  1.00  0.00     0.013 A 
HETATM   18  C12 UNL     1      26.066   6.304  49.045  1.00  0.00    -0.025 A 
HETATM   19  C13 UNL     1      27.329   6.531  48.320  1.00  0.00     0.012 A 
HETATM   20  C16 UNL     1      26.117   4.900  49.458  1.00  0.00    -0.016 A 
HETATM   21  C14 UNL     1      28.013   5.410  48.315  1.00  0.00     0.002 A 
HETATM   22  C15 UNL     1      27.253   4.381  49.032  1.00  0.00     0.013 A 
ENDBRANCH   1  15
TORSDOF 5
ENDMDL
MODEL 9
REMARK VINA RESULT:      -7.2      8.721     11.138
REMARK  5 active torsions:
REMARK  status: ('A' for Active; 'I' for Inactive)
REMARK    1  A    between atoms: C6_6  and  C7_7 
REMARK    2  A    between atoms: C7_7  and  O1_9 
REMARK    3  A    between atoms: C7_7  and  C9_12 
REMARK    4  A    between atoms: O1_9  and  O2_10 
REMARK    5  A    between atoms: O2_10  and  N1_11 
ROOT
HETATM    1  C7  UNL     1      31.648   6.254  48.152  1.00  0.00     0.149 C 
HETATM    2  C8  UNL     1      32.295   7.547  48.641  1.00  0.00     0.060 C 
ENDROOT
BRANCH   1   3
HETATM    3  C6  UNL     1      30.213   6.545  47.972  1.00  0.00    -0.016 A 
HETATM    4  C5  UNL     1      29.818   7.701  47.347  1.00  0.00     0.011 A 
HETATM    5  C4  UNL     1      28.445   7.915  47.210  1.00  0.00     0.001 A 
HETATM    6  C3  UNL     1      27.511   6.991  47.686  1.00  0.00     0.007 A 
HETATM    7  C2  UNL     1      27.903   5.842  48.306  1.00  0.00    -0.061 A 
HETATM    8  C1  UNL     1      26.967   4.823  48.833  1.00  0.00     0.048 C 
HETATM    9  C17 UNL     1      29.262   5.656  48.429  1.00  0.00     0.017 A 
ENDBRANCH   1   3
BRANCH   1  10
HETATM   10  O1  UNL     1      31.841   5.334  49.186  1.00  0.00    -0.202 OA
BRANCH  10  11
HETATM   11  O2  UNL     1      31.984   5.976  50.303  1.00  0.00    -0.143 OA
BRANCH  11  12
HETATM   12  N1  UNL     1      31.537   5.298  51.385  1.00  0.00    -0.182 NA
HETATM   13  H10 UNL     1      31.828   4.308  51.409  1.00  0.00     0.153 HD
HETATM   14  H11 UNL     1      30.531   5.465  51.521  1.00  0.00     0.153 HD
ENDBRANCH  11  12
ENDBRANCH  10  11
ENDBRANCH   1  10
BRANCH   1  15
HETATM   15  C9  UNL     1      32.353   5.857  46.919  1.00  0.00    -0.005 A 
HETATM   16  C10 UNL     1      32.185   6.284  45.657  1.00  0.00     0.012 A 
HETATM   17  C11 UNL     1      33.107   5.616  44.745  1.00  0.00     0.013 A 
HETATM   18  C12 UNL     1      33.850   4.774  45.428  1.00  0.00    -0.025 A 
HETATM   19  C13 UNL     1      34.926   3.768  45.424  1.00  0.00     0.012 A 
HETATM   20  C16 UNL     1      33.429   4.869  46.828  1.00  0.00    -0.016 A 
HETATM   21  C14 UNL     1      35.101   3.340  46.654  1.00  0.00     0.002 A 
HETATM   22  C15 UNL     1      34.160   4.033  47.540  1.00  0.00     0.013 A 
ENDBRANCH   1  15
TORSDOF 5
ENDMDL
