MODEL 1
REMARK VINA RESULT:      -8.5      0.000      0.000
REMARK  5 active torsions:
REMARK  status: ('A' for Active; 'I' for Inactive)
REMARK    1  A    between atoms: C2_2  and  C3_3 
REMARK    2  A    between atoms: C2_2  and  N1_11 
REMARK    3  A    between atoms: C3_3  and  C4_4 
REMARK    4  A    between atoms: C4_4  and  C5_5 
REMARK    5  A    between atoms: N1_11  and  C11_12 
ROOT
HETATM    1  C11 UNL     1      26.964   1.342  52.331  1.00  0.00     0.716 C 
HETATM    2  N2  UNL     1      27.636   2.307  52.649  1.00  0.00    -0.105 NA
HETATM    3  C12 UNL     1      28.698   2.601  53.498  1.00  0.00     0.174 C 
HETATM    4  C13 UNL     1      29.473   1.428  53.973  1.00  0.00     0.021 C 
HETATM    5  C14 UNL     1      29.025   0.228  53.568  1.00  0.00     0.026 C 
HETATM    6  C15 UNL     1      29.588  -1.091  53.874  1.00  0.00     0.026 C 
HETATM    7  C16 UNL     1      28.963  -2.136  53.366  1.00  0.00     0.172 C 
HETATM    8  F1  UNL     1      28.873  -3.469  53.208  1.00  0.00    -0.201 F 
HETATM    9  C17 UNL     1      27.697  -1.980  52.661  1.00  0.00     0.264 A 
HETATM   10  F2  UNL     1      26.688  -2.573  51.985  1.00  0.00    -0.207 F 
HETATM   11  N3  UNL     1      26.683  -1.355  52.182  1.00  0.00    -0.102 N 
HETATM   12  N4  UNL     1      26.545   0.001  52.343  1.00  0.00    -0.100 N 
HETATM   13  H18 UNL     1      25.572  -0.276  52.618  1.00  0.00     0.208 HD
ENDROOT
BRANCH   1  14
HETATM   14  N1  UNL     1      26.045   1.924  51.360  1.00  0.00    -0.193 N 
HETATM   15  H12 UNL     1      25.960   1.884  50.292  1.00  0.00     0.184 HD
BRANCH  14  16
HETATM   16  C2  UNL     1      24.898   2.783  51.502  1.00  0.00     0.017 C 
HETATM   17  C1  UNL     1      24.826   3.586  50.430  1.00  0.00     0.038 C 
BRANCH  16  18
HETATM   18  C3  UNL     1      23.910   2.850  52.604  1.00  0.00     0.061 C 
BRANCH  18  19
HETATM   19  C4  UNL     1      22.539   2.373  52.159  1.00  0.00     0.044 C 
BRANCH  19  20
HETATM   20  C5  UNL     1      22.206   1.167  52.957  1.00  0.00    -0.058 A 
HETATM   21  C6  UNL     1      23.193   0.267  53.350  1.00  0.00     0.007 A 
HETATM   22  C7  UNL     1      22.913  -0.840  54.085  1.00  0.00     0.001 A 
HETATM   23  C8  UNL     1      21.607  -1.110  54.471  1.00  0.00     0.000 A 
HETATM   24  C9  UNL     1      20.567  -0.243  54.106  1.00  0.00     0.001 A 
HETATM   25  C10 UNL     1      20.919   0.873  53.354  1.00  0.00     0.007 A 
ENDBRANCH  19  20
ENDBRANCH  18  19
ENDBRANCH  16  18
ENDBRANCH  14  16
ENDBRANCH   1  14
TORSDOF 5
ENDMDL
MODEL 2
REMARK VINA RESULT:      -8.3      2.051      5.990
REMARK  5 active torsions:
REMARK  status: ('A' for Active; 'I' for Inactive)
REMARK    1  A    between atoms: C2_2  and  C3_3 
REMARK    2  A    between atoms: C2_2  and  N1_11 
REMARK    3  A    between atoms: C3_3  and  C4_4 
REMARK    4  A    between atoms: C4_4  and  C5_5 
REMARK    5  A    between atoms: N1_11  and  C11_12 
ROOT
HETATM    1  C11 UNL     1      23.134   2.236  52.272  1.00  0.00     0.716 C 
HETATM    2  N2  UNL     1      22.265   3.065  52.066  1.00  0.00    -0.105 NA
HETATM    3  C12 UNL     1      20.875   3.137  52.061  1.00  0.00     0.174 C 
HETATM    4  C13 UNL     1      20.181   2.028  52.763  1.00  0.00     0.021 C 
HETATM    5  C14 UNL     1      20.974   1.069  53.269  1.00  0.00     0.026 C 
HETATM    6  C15 UNL     1      20.572  -0.131  54.010  1.00  0.00     0.026 C 
HETATM    7  C16 UNL     1      21.538  -0.939  54.403  1.00  0.00     0.172 C 
HETATM    8  F1  UNL     1      21.927  -2.061  55.036  1.00  0.00    -0.201 F 
HETATM    9  C17 UNL     1      22.917  -0.711  53.989  1.00  0.00     0.264 A 
HETATM   10  F2  UNL     1      24.207  -1.113  54.048  1.00  0.00    -0.207 F 
HETATM   11  N3  UNL     1      23.885  -0.126  53.381  1.00  0.00    -0.102 N 
HETATM   12  N4  UNL     1      23.664   0.976  52.593  1.00  0.00    -0.100 N 
HETATM   13  H18 UNL     1      24.274   0.442  51.927  1.00  0.00     0.208 HD
ENDROOT
BRANCH   1  14
HETATM   14  N1  UNL     1      24.347   3.016  52.059  1.00  0.00    -0.193 N 
HETATM   15  H12 UNL     1      24.752   3.905  52.499  1.00  0.00     0.184 HD
BRANCH  14  16
HETATM   16  C2  UNL     1      25.456   2.859  51.153  1.00  0.00     0.017 C 
HETATM   17  C1  UNL     1      25.114   3.371  49.961  1.00  0.00     0.038 C 
BRANCH  16  18
HETATM   18  C3  UNL     1      26.784   2.248  51.397  1.00  0.00     0.061 C 
BRANCH  18  19
HETATM   19  C4  UNL     1      27.054   2.063  52.880  1.00  0.00     0.044 C 
BRANCH  19  20
HETATM   20  C5  UNL     1      27.801   0.792  53.042  1.00  0.00    -0.058 A 
HETATM   21  C6  UNL     1      29.110   0.779  53.516  1.00  0.00     0.007 A 
HETATM   22  C7  UNL     1      29.812  -0.372  53.677  1.00  0.00     0.001 A 
HETATM   23  C8  UNL     1      29.229  -1.594  53.366  1.00  0.00     0.000 A 
HETATM   24  C9  UNL     1      27.913  -1.649  52.884  1.00  0.00     0.001 A 
HETATM   25  C10 UNL     1      27.249  -0.435  52.741  1.00  0.00     0.007 A 
ENDBRANCH  19  20
ENDBRANCH  18  19
ENDBRANCH  16  18
ENDBRANCH  14  16
ENDBRANCH   1  14
TORSDOF 5
ENDMDL
MODEL 3
REMARK VINA RESULT:      -8.2      2.495      5.183
REMARK  5 active torsions:
REMARK  status: ('A' for Active; 'I' for Inactive)
REMARK    1  A    between atoms: C2_2  and  C3_3 
REMARK    2  A    between atoms: C2_2  and  N1_11 
REMARK    3  A    between atoms: C3_3  and  C4_4 
REMARK    4  A    between atoms: C4_4  and  C5_5 
REMARK    5  A    between atoms: N1_11  and  C11_12 
ROOT
HETATM    1  C11 UNL     1      25.335   1.966  53.031  1.00  0.00     0.716 C 
HETATM    2  N2  UNL     1      24.443   1.145  53.146  1.00  0.00    -0.105 NA
HETATM    3  C12 UNL     1      24.293  -0.238  53.131  1.00  0.00     0.174 C 
HETATM    4  C13 UNL     1      25.545  -1.013  53.318  1.00  0.00     0.021 C 
HETATM    5  C14 UNL     1      26.671  -0.287  53.425  1.00  0.00     0.026 C 
HETATM    6  C15 UNL     1      28.040  -0.777  53.619  1.00  0.00     0.026 C 
HETATM    7  C16 UNL     1      28.993   0.133  53.688  1.00  0.00     0.172 C 
HETATM    8  F1  UNL     1      30.294   0.441  53.835  1.00  0.00    -0.201 F 
HETATM    9  C17 UNL     1      28.702   1.539  53.435  1.00  0.00     0.264 A 
HETATM   10  F2  UNL     1      29.170   2.806  53.366  1.00  0.00    -0.207 F 
HETATM   11  N3  UNL     1      27.983   2.559  53.136  1.00  0.00    -0.102 N 
HETATM   12  N4  UNL     1      26.649   2.425  52.842  1.00  0.00    -0.100 N 
HETATM   13  H18 UNL     1      26.913   3.043  52.036  1.00  0.00     0.208 HD
ENDROOT
BRANCH   1  14
HETATM   14  N1  UNL     1      24.608   3.221  53.177  1.00  0.00    -0.193 N 
HETATM   15  H12 UNL     1      24.478   3.923  53.977  1.00  0.00     0.184 HD
BRANCH  14  16
HETATM   16  C2  UNL     1      23.783   3.977  52.270  1.00  0.00     0.017 C 
HETATM   17  C1  UNL     1      23.445   5.134  52.857  1.00  0.00     0.038 C 
BRANCH  16  18
HETATM   18  C3  UNL     1      23.328   3.624  50.904  1.00  0.00     0.061 C 
BRANCH  18  19
HETATM   19  C4  UNL     1      24.428   2.955  50.099  1.00  0.00     0.044 C 
BRANCH  19  20
HETATM   20  C5  UNL     1      25.289   4.028  49.545  1.00  0.00    -0.058 A 
HETATM   21  C6  UNL     1      26.660   3.844  49.387  1.00  0.00     0.007 A 
HETATM   22  C7  UNL     1      27.468   4.810  48.878  1.00  0.00     0.001 A 
HETATM   23  C8  UNL     1      26.935   6.034  48.493  1.00  0.00     0.000 A 
HETATM   24  C9  UNL     1      25.561   6.282  48.627  1.00  0.00     0.001 A 
HETATM   25  C10 UNL     1      24.789   5.253  49.156  1.00  0.00     0.007 A 
ENDBRANCH  19  20
ENDBRANCH  18  19
ENDBRANCH  16  18
ENDBRANCH  14  16
ENDBRANCH   1  14
TORSDOF 5
ENDMDL
MODEL 4
REMARK VINA RESULT:      -8.1      3.108      6.214
REMARK  5 active torsions:
REMARK  status: ('A' for Active; 'I' for Inactive)
REMARK    1  A    between atoms: C2_2  and  C3_3 
REMARK    2  A    between atoms: C2_2  and  N1_11 
REMARK    3  A    between atoms: C3_3  and  C4_4 
REMARK    4  A    between atoms: C4_4  and  C5_5 
REMARK    5  A    between atoms: N1_11  and  C11_12 
ROOT
HETATM    1  C11 UNL     1      24.820   2.503  52.462  1.00  0.00     0.716 C 
HETATM    2  N2  UNL     1      23.703   2.017  52.492  1.00  0.00    -0.105 NA
HETATM    3  C12 UNL     1      23.111   0.785  52.750  1.00  0.00     0.174 C 
HETATM    4  C13 UNL     1      23.966  -0.190  53.471  1.00  0.00     0.021 C 
HETATM    5  C14 UNL     1      25.218   0.216  53.738  1.00  0.00     0.026 C 
HETATM    6  C15 UNL     1      26.274  -0.526  54.435  1.00  0.00     0.026 C 
HETATM    7  C16 UNL     1      27.437   0.081  54.573  1.00  0.00     0.172 C 
HETATM    8  F1  UNL     1      28.704   0.072  55.024  1.00  0.00    -0.201 F 
HETATM    9  C17 UNL     1      27.689   1.366  53.931  1.00  0.00     0.264 A 
HETATM   10  F2  UNL     1      28.553   2.383  53.716  1.00  0.00    -0.207 F 
HETATM   11  N3  UNL     1      27.429   2.394  53.207  1.00  0.00    -0.102 N 
HETATM   12  N4  UNL     1      26.220   2.525  52.571  1.00  0.00    -0.100 N 
HETATM   13  H18 UNL     1      26.838   2.775  51.760  1.00  0.00     0.208 HD
ENDROOT
BRANCH   1  14
HETATM   14  N1  UNL     1      24.535   3.885  52.095  1.00  0.00    -0.193 N 
HETATM   15  H12 UNL     1      24.425   4.798  52.646  1.00  0.00     0.184 HD
BRANCH  14  16
HETATM   16  C2  UNL     1      24.293   4.523  50.827  1.00  0.00     0.017 C 
HETATM   17  C1  UNL     1      23.473   5.567  51.019  1.00  0.00     0.038 C 
BRANCH  16  18
HETATM   18  C3  UNL     1      24.811   4.164  49.485  1.00  0.00     0.061 C 
BRANCH  18  19
HETATM   19  C4  UNL     1      26.315   3.962  49.498  1.00  0.00     0.044 C 
BRANCH  19  20
HETATM   20  C5  UNL     1      26.929   5.138  48.836  1.00  0.00    -0.058 A 
HETATM   21  C6  UNL     1      28.281   5.156  48.505  1.00  0.00     0.007 A 
HETATM   22  C7  UNL     1      28.864   6.220  47.894  1.00  0.00     0.001 A 
HETATM   23  C8  UNL     1      28.110   7.342  47.576  1.00  0.00     0.000 A 
HETATM   24  C9  UNL     1      26.742   7.386  47.882  1.00  0.00     0.001 A 
HETATM   25  C10 UNL     1      26.206   6.265  48.509  1.00  0.00     0.007 A 
ENDBRANCH  19  20
ENDBRANCH  18  19
ENDBRANCH  16  18
ENDBRANCH  14  16
ENDBRANCH   1  14
TORSDOF 5
ENDMDL
MODEL 5
REMARK VINA RESULT:      -7.7      2.035      3.721
REMARK  5 active torsions:
REMARK  status: ('A' for Active; 'I' for Inactive)
REMARK    1  A    between atoms: C2_2  and  C3_3 
REMARK    2  A    between atoms: C2_2  and  N1_11 
REMARK    3  A    between atoms: C3_3  and  C4_4 
REMARK    4  A    between atoms: C4_4  and  C5_5 
REMARK    5  A    between atoms: N1_11  and  C11_12 
ROOT
HETATM    1  C11 UNL     1      25.222  -0.071  53.377  1.00  0.00     0.716 C 
HETATM    2  N2  UNL     1      24.931   1.110  53.439  1.00  0.00    -0.105 NA
HETATM    3  C12 UNL     1      25.539   2.316  53.774  1.00  0.00     0.174 C 
HETATM    4  C13 UNL     1      27.023   2.291  53.800  1.00  0.00     0.021 C 
HETATM    5  C14 UNL     1      27.592   1.100  53.549  1.00  0.00     0.026 C 
HETATM    6  C15 UNL     1      29.022   0.779  53.503  1.00  0.00     0.026 C 
HETATM    7  C16 UNL     1      29.343  -0.474  53.244  1.00  0.00     0.172 C 
HETATM    8  F1  UNL     1      30.287  -1.414  53.056  1.00  0.00    -0.201 F 
HETATM    9  C17 UNL     1      28.317  -1.505  53.154  1.00  0.00     0.264 A 
HETATM   10  F2  UNL     1      28.023  -2.806  52.935  1.00  0.00    -0.207 F 
HETATM   11  N3  UNL     1      27.130  -1.994  53.192  1.00  0.00    -0.102 N 
HETATM   12  N4  UNL     1      26.046  -1.204  53.481  1.00  0.00    -0.100 N 
HETATM   13  H18 UNL     1      25.820  -2.000  54.125  1.00  0.00     0.208 HD
ENDROOT
BRANCH   1  14
HETATM   14  N1  UNL     1      23.969  -0.665  52.926  1.00  0.00    -0.193 N 
HETATM   15  H12 UNL     1      23.715  -1.451  52.243  1.00  0.00     0.184 HD
BRANCH  14  16
HETATM   16  C2  UNL     1      22.592  -0.391  53.252  1.00  0.00     0.017 C 
HETATM   17  C1  UNL     1      22.211  -1.215  54.239  1.00  0.00     0.038 C 
BRANCH  16  18
HETATM   18  C3  UNL     1      21.670   0.604  52.656  1.00  0.00     0.061 C 
BRANCH  18  19
HETATM   19  C4  UNL     1      21.182   0.170  51.285  1.00  0.00     0.044 C 
BRANCH  19  20
HETATM   20  C5  UNL     1      21.802   1.073  50.285  1.00  0.00    -0.058 A 
HETATM   21  C6  UNL     1      22.757   2.016  50.657  1.00  0.00     0.007 A 
HETATM   22  C7  UNL     1      23.341   2.850  49.759  1.00  0.00     0.001 A 
HETATM   23  C8  UNL     1      22.994   2.782  48.416  1.00  0.00     0.000 A 
HETATM   24  C9  UNL     1      22.038   1.855  47.977  1.00  0.00     0.001 A 
HETATM   25  C10 UNL     1      21.477   1.030  48.947  1.00  0.00     0.007 A 
ENDBRANCH  19  20
ENDBRANCH  18  19
ENDBRANCH  16  18
ENDBRANCH  14  16
ENDBRANCH   1  14
TORSDOF 5
ENDMDL
MODEL 6
REMARK VINA RESULT:      -7.7      3.446      7.093
REMARK  5 active torsions:
REMARK  status: ('A' for Active; 'I' for Inactive)
REMARK    1  A    between atoms: C2_2  and  C3_3 
REMARK    2  A    between atoms: C2_2  and  N1_11 
REMARK    3  A    between atoms: C3_3  and  C4_4 
REMARK    4  A    between atoms: C4_4  and  C5_5 
REMARK    5  A    between atoms: N1_11  and  C11_12 
ROOT
HETATM    1  C11 UNL     1      22.575   0.647  52.645  1.00  0.00     0.716 C 
HETATM    2  N2  UNL     1      23.164  -0.098  53.407  1.00  0.00    -0.105 NA
HETATM    3  C12 UNL     1      22.865  -0.980  54.441  1.00  0.00     0.174 C 
HETATM    4  C13 UNL     1      21.447  -1.412  54.514  1.00  0.00     0.021 C 
HETATM    5  C14 UNL     1      20.621  -0.860  53.610  1.00  0.00     0.026 C 
HETATM    6  C15 UNL     1      19.183  -1.099  53.442  1.00  0.00     0.026 C 
HETATM    7  C16 UNL     1      18.577  -0.429  52.481  1.00  0.00     0.172 C 
HETATM    8  F1  UNL     1      17.454  -0.143  51.798  1.00  0.00    -0.201 F 
HETATM    9  C17 UNL     1      19.282   0.601  51.729  1.00  0.00     0.264 A 
HETATM   10  F2  UNL     1      19.238   1.524  50.742  1.00  0.00    -0.207 F 
HETATM   11  N3  UNL     1      20.267   1.357  51.403  1.00  0.00    -0.102 N 
HETATM   12  N4  UNL     1      21.466   1.286  52.067  1.00  0.00    -0.100 N 
HETATM   13  H18 UNL     1      21.359   2.330  52.073  1.00  0.00     0.208 HD
ENDROOT
BRANCH   1  14
HETATM   14  N1  UNL     1      23.672   1.209  51.867  1.00  0.00    -0.193 N 
HETATM   15  H12 UNL     1      23.886   1.286  50.820  1.00  0.00     0.184 HD
BRANCH  14  16
HETATM   16  C2  UNL     1      24.889   1.879  52.249  1.00  0.00     0.017 C 
HETATM   17  C1  UNL     1      24.576   2.952  52.990  1.00  0.00     0.038 C 
BRANCH  16  18
HETATM   18  C3  UNL     1      26.292   1.525  51.928  1.00  0.00     0.061 C 
BRANCH  18  19
HETATM   19  C4  UNL     1      27.131   1.356  53.183  1.00  0.00     0.044 C 
BRANCH  19  20
HETATM   20  C5  UNL     1      27.720  -0.004  53.145  1.00  0.00    -0.058 A 
HETATM   21  C6  UNL     1      26.959  -1.110  52.773  1.00  0.00     0.007 A 
HETATM   22  C7  UNL     1      27.478  -2.364  52.727  1.00  0.00     0.001 A 
HETATM   23  C8  UNL     1      28.809  -2.582  53.057  1.00  0.00     0.000 A 
HETATM   24  C9  UNL     1      29.628  -1.510  53.441  1.00  0.00     0.001 A 
HETATM   25  C10 UNL     1      29.037  -0.251  53.469  1.00  0.00     0.007 A 
ENDBRANCH  19  20
ENDBRANCH  18  19
ENDBRANCH  16  18
ENDBRANCH  14  16
ENDBRANCH   1  14
TORSDOF 5
ENDMDL
MODEL 7
REMARK VINA RESULT:      -7.7      2.928      6.191
REMARK  5 active torsions:
REMARK  status: ('A' for Active; 'I' for Inactive)
REMARK    1  A    between atoms: C2_2  and  C3_3 
REMARK    2  A    between atoms: C2_2  and  N1_11 
REMARK    3  A    between atoms: C3_3  and  C4_4 
REMARK    4  A    between atoms: C4_4  and  C5_5 
REMARK    5  A    between atoms: N1_11  and  C11_12 
ROOT
HETATM    1  C11 UNL     1      23.135   1.829  52.424  1.00  0.00     0.716 C 
HETATM    2  N2  UNL     1      22.126   1.148  52.435  1.00  0.00    -0.105 NA
HETATM    3  C12 UNL     1      21.758  -0.164  52.721  1.00  0.00     0.174 C 
HETATM    4  C13 UNL     1      22.747  -0.941  53.508  1.00  0.00     0.021 C 
HETATM    5  C14 UNL     1      23.893  -0.303  53.801  1.00  0.00     0.026 C 
HETATM    6  C15 UNL     1      25.037  -0.815  54.562  1.00  0.00     0.026 C 
HETATM    7  C16 UNL     1      26.063  -0.000  54.714  1.00  0.00     0.172 C 
HETATM    8  F1  UNL     1      27.292   0.239  55.208  1.00  0.00    -0.201 F 
HETATM    9  C17 UNL     1      26.102   1.287  54.032  1.00  0.00     0.264 A 
HETATM   10  F2  UNL     1      26.774   2.439  53.807  1.00  0.00    -0.207 F 
HETATM   11  N3  UNL     1      25.688   2.226  53.260  1.00  0.00    -0.102 N 
HETATM   12  N4  UNL     1      24.502   2.112  52.579  1.00  0.00    -0.100 N 
HETATM   13  H18 UNL     1      25.096   2.445  51.780  1.00  0.00     0.208 HD
ENDROOT
BRANCH   1  14
HETATM   14  N1  UNL     1      22.617   3.123  51.994  1.00  0.00    -0.193 N 
HETATM   15  H12 UNL     1      21.656   3.595  52.034  1.00  0.00     0.184 HD
BRANCH  14  16
HETATM   16  C2  UNL     1      23.237   4.250  51.346  1.00  0.00     0.017 C 
HETATM   17  C1  UNL     1      23.494   5.189  52.268  1.00  0.00     0.038 C 
BRANCH  16  18
HETATM   18  C3  UNL     1      23.572   4.438  49.914  1.00  0.00     0.061 C 
BRANCH  18  19
HETATM   19  C4  UNL     1      24.823   3.672  49.523  1.00  0.00     0.044 C 
BRANCH  19  20
HETATM   20  C5  UNL     1      25.835   4.664  49.087  1.00  0.00    -0.058 A 
HETATM   21  C6  UNL     1      25.478   5.977  48.791  1.00  0.00     0.007 A 
HETATM   22  C7  UNL     1      26.388   6.904  48.395  1.00  0.00     0.001 A 
HETATM   23  C8  UNL     1      27.727   6.559  48.272  1.00  0.00     0.000 A 
HETATM   24  C9  UNL     1      28.152   5.253  48.555  1.00  0.00     0.001 A 
HETATM   25  C10 UNL     1      27.171   4.351  48.955  1.00  0.00     0.007 A 
ENDBRANCH  19  20
ENDBRANCH  18  19
ENDBRANCH  16  18
ENDBRANCH  14  16
ENDBRANCH   1  14
TORSDOF 5
ENDMDL
MODEL 8
REMARK VINA RESULT:      -7.7      2.630      4.208
REMARK  5 active torsions:
REMARK  status: ('A' for Active; 'I' for Inactive)
REMARK    1  A    between atoms: C2_2  and  C3_3 
REMARK    2  A    between atoms: C2_2  and  N1_11 
REMARK    3  A    between atoms: C3_3  and  C4_4 
REMARK    4  A    between atoms: C4_4  and  C5_5 
REMARK    5  A    between atoms: N1_11  and  C11_12 
ROOT
HETATM    1  C11 UNL     1      25.217   2.210  52.908  1.00  0.00     0.716 C 
HETATM    2  N2  UNL     1      24.264   1.463  53.039  1.00  0.00    -0.105 NA
HETATM    3  C12 UNL     1      24.013   0.096  53.097  1.00  0.00     0.174 C 
HETATM    4  C13 UNL     1      25.199  -0.754  53.368  1.00  0.00     0.021 C 
HETATM    5  C14 UNL     1      26.372  -0.107  53.471  1.00  0.00     0.026 C 
HETATM    6  C15 UNL     1      27.695  -0.681  53.736  1.00  0.00     0.026 C 
HETATM    7  C16 UNL     1      28.710   0.161  53.784  1.00  0.00     0.172 C 
HETATM    8  F1  UNL     1      30.026   0.383  53.956  1.00  0.00    -0.201 F 
HETATM    9  C17 UNL     1      28.531   1.567  53.443  1.00  0.00     0.264 A 
HETATM   10  F2  UNL     1      29.092   2.791  53.318  1.00  0.00    -0.207 F 
HETATM   11  N3  UNL     1      27.897   2.617  53.064  1.00  0.00    -0.102 N 
HETATM   12  N4  UNL     1      26.566   2.562  52.735  1.00  0.00    -0.100 N 
HETATM   13  H18 UNL     1      26.897   3.111  51.905  1.00  0.00     0.208 HD
ENDROOT
BRANCH   1  14
HETATM   14  N1  UNL     1      24.579   3.520  52.959  1.00  0.00    -0.193 N 
HETATM   15  H12 UNL     1      24.453   4.262  53.722  1.00  0.00     0.184 HD
BRANCH  14  16
HETATM   16  C2  UNL     1      23.874   4.296  51.972  1.00  0.00     0.017 C 
HETATM   17  C1  UNL     1      22.712   4.710  52.499  1.00  0.00     0.038 C 
BRANCH  16  18
HETATM   18  C3  UNL     1      24.275   4.634  50.586  1.00  0.00     0.061 C 
BRANCH  18  19
HETATM   19  C4  UNL     1      24.567   3.390  49.765  1.00  0.00     0.044 C 
BRANCH  19  20
HETATM   20  C5  UNL     1      23.268   2.855  49.290  1.00  0.00    -0.058 A 
HETATM   21  C6  UNL     1      22.667   1.763  49.910  1.00  0.00     0.007 A 
HETATM   22  C7  UNL     1      21.476   1.259  49.495  1.00  0.00     0.001 A 
HETATM   23  C8  UNL     1      20.812   1.832  48.419  1.00  0.00     0.000 A 
HETATM   24  C9  UNL     1      21.365   2.934  47.751  1.00  0.00     0.001 A 
HETATM   25  C10 UNL     1      22.587   3.402  48.224  1.00  0.00     0.007 A 
ENDBRANCH  19  20
ENDBRANCH  18  19
ENDBRANCH  16  18
ENDBRANCH  14  16
ENDBRANCH   1  14
TORSDOF 5
ENDMDL
MODEL 9
REMARK VINA RESULT:      -7.6      3.994      6.584
REMARK  5 active torsions:
REMARK  status: ('A' for Active; 'I' for Inactive)
REMARK    1  A    between atoms: C2_2  and  C3_3 
REMARK    2  A    between atoms: C2_2  and  N1_11 
REMARK    3  A    between atoms: C3_3  and  C4_4 
REMARK    4  A    between atoms: C4_4  and  C5_5 
REMARK    5  A    between atoms: N1_11  and  C11_12 
ROOT
HETATM    1  C11 UNL     1      24.695   5.568  50.614  1.00  0.00     0.716 C 
HETATM    2  N2  UNL     1      24.019   6.553  50.853  1.00  0.00    -0.105 NA
HETATM    3  C12 UNL     1      24.146   7.938  50.810  1.00  0.00     0.174 C 
HETATM    4  C13 UNL     1      25.275   8.446  49.993  1.00  0.00     0.021 C 
HETATM    5  C14 UNL     1      26.065   7.509  49.441  1.00  0.00     0.026 C 
HETATM    6  C15 UNL     1      27.241   7.714  48.589  1.00  0.00     0.026 C 
HETATM    7  C16 UNL     1      27.867   6.631  48.169  1.00  0.00     0.172 C 
HETATM    8  F1  UNL     1      28.864   6.068  47.462  1.00  0.00    -0.201 F 
HETATM    9  C17 UNL     1      27.484   5.311  48.654  1.00  0.00     0.264 A 
HETATM   10  F2  UNL     1      27.692   3.976  48.612  1.00  0.00    -0.207 F 
HETATM   11  N3  UNL     1      26.822   4.455  49.345  1.00  0.00    -0.102 N 
HETATM   12  N4  UNL     1      25.835   4.853  50.211  1.00  0.00    -0.100 N 
HETATM   13  H18 UNL     1      26.333   4.191  50.854  1.00  0.00     0.208 HD
ENDROOT
BRANCH   1  14
HETATM   14  N1  UNL     1      23.773   4.487  50.937  1.00  0.00    -0.193 N 
HETATM   15  H12 UNL     1      22.894   4.409  51.546  1.00  0.00     0.184 HD
BRANCH  14  16
HETATM   16  C2  UNL     1      23.721   3.103  50.540  1.00  0.00     0.017 C 
HETATM   17  C1  UNL     1      23.239   3.031  49.291  1.00  0.00     0.038 C 
BRANCH  16  18
HETATM   18  C3  UNL     1      24.108   1.895  51.306  1.00  0.00     0.061 C 
BRANCH  18  19
HETATM   19  C4  UNL     1      24.642   2.248  52.683  1.00  0.00     0.044 C 
BRANCH  19  20
HETATM   20  C5  UNL     1      25.703   1.267  53.015  1.00  0.00    -0.058 A 
HETATM   21  C6  UNL     1      26.104   0.299  52.098  1.00  0.00     0.007 A 
HETATM   22  C7  UNL     1      27.077  -0.607  52.377  1.00  0.00     0.001 A 
HETATM   23  C8  UNL     1      27.711  -0.590  53.612  1.00  0.00     0.000 A 
HETATM   24  C9  UNL     1      27.354   0.360  54.580  1.00  0.00     0.001 A 
HETATM   25  C10 UNL     1      26.350   1.258  54.232  1.00  0.00     0.007 A 
ENDBRANCH  19  20
ENDBRANCH  18  19
ENDBRANCH  16  18
ENDBRANCH  14  16
ENDBRANCH   1  14
TORSDOF 5
ENDMDL
