MODEL 1
REMARK VINA RESULT:      -8.5      0.000      0.000
REMARK  8 active torsions:
REMARK  status: ('A' for Active; 'I' for Inactive)
REMARK    1  A    between atoms: C2_2  and  O1_3 
REMARK    2  A    between atoms: O1_3  and  C3_4 
REMARK    3  A    between atoms: C3_4  and  C4_5 
REMARK    4  A    between atoms: C5_6  and  C6_7 
REMARK    5  A    between atoms: C5_6  and  C9_13 
REMARK    6  A    between atoms: C6_7  and  C7_8 
REMARK    7  A    between atoms: C7_8  and  C8_10 
REMARK       I    between atoms: C8_10  and  N1_11 
REMARK    8  A    between atoms: C19_24  and  O3_25 
ROOT
HETATM    1  C9  UNL     1      24.250   0.665  52.488  1.00  0.00    -0.009 C 
HETATM    2  C10 UNL     1      23.103   0.066  53.124  1.00  0.00     0.077 C 
HETATM    3  C11 UNL     1      22.349  -0.701  53.894  1.00  0.00    -0.027 C 
HETATM    4  C12 UNL     1      21.891  -1.730  54.884  1.00  0.00     0.015 C 
HETATM    5  C13 UNL     1      21.048   0.001  53.723  1.00  0.00    -0.024 C 
HETATM    6  C14 UNL     1      20.801   1.083  53.042  1.00  0.00    -0.020 C 
HETATM    7  C15 UNL     1      20.077   2.232  52.420  1.00  0.00     0.101 C 
HETATM    8  S1  UNL     1      20.407   2.202  50.665  1.00  0.00    -0.161 SA
HETATM    9  C16 UNL     1      21.945   2.905  50.217  1.00  0.00     0.110 C 
HETATM   10  C17 UNL     1      23.211   2.415  50.716  1.00  0.00    -0.041 C 
HETATM   11  C18 UNL     1      24.125   3.280  49.828  1.00  0.00     0.047 C 
HETATM   12  C19 UNL     1      24.079   1.677  51.462  1.00  0.00     0.076 C 
ENDROOT
BRANCH   1  13
HETATM   13  C5  UNL     1      25.504   0.299  52.792  1.00  0.00    -0.025 C 
HETATM   14  C4  UNL     1      25.897   0.833  54.063  1.00  0.00     0.019 C 
BRANCH  14  15
HETATM   15  C3  UNL     1      26.989   0.726  54.731  1.00  0.00     0.177 C 
BRANCH  15  16
HETATM   16  O1  UNL     1      28.252   0.876  55.239  1.00  0.00    -0.380 OA
BRANCH  16  17
HETATM   17  C2  UNL     1      29.289   1.295  54.346  1.00  0.00     0.164 C 
HETATM   18  C1  UNL     1      28.783   2.519  53.654  1.00  0.00     0.033 C 
ENDBRANCH  16  17
ENDBRANCH  15  16
ENDBRANCH  14  15
BRANCH  13  19
HETATM   19  C6  UNL     1      26.667  -0.413  52.300  1.00  0.00     0.060 C 
BRANCH  19  20
HETATM   20  C7  UNL     1      27.011  -1.686  52.228  1.00  0.00     0.184 C 
HETATM   21  F1  UNL     1      26.332  -2.696  51.642  1.00  0.00    -0.200 F 
BRANCH  20  22
HETATM   22  C8  UNL     1      28.262  -2.103  52.838  1.00  0.00     0.277 C 
HETATM   23  N1  UNL     1      28.573  -3.421  53.244  1.00  0.00    -0.364 N 
HETATM   24  H9  UNL     1      28.949  -4.346  52.945  1.00  0.00     0.159 HD
HETATM   25  H10 UNL     1      28.537  -4.041  54.097  1.00  0.00     0.159 HD
HETATM   26  O2  UNL     1      29.395  -1.737  53.236  1.00  0.00    -0.265 OA
ENDBRANCH  20  22
ENDBRANCH  19  20
ENDBRANCH  13  19
ENDBRANCH   1  13
BRANCH  12  27
HETATM   27  O3  UNL     1      25.457   1.931  51.206  1.00  0.00    -0.360 OA
HETATM   28  H24 UNL     1      26.021   1.081  51.337  1.00  0.00     0.217 HD
ENDBRANCH  12  27
TORSDOF 8
ENDMDL
MODEL 2
REMARK VINA RESULT:      -8.3      1.146      3.118
REMARK  8 active torsions:
REMARK  status: ('A' for Active; 'I' for Inactive)
REMARK    1  A    between atoms: C2_2  and  O1_3 
REMARK    2  A    between atoms: O1_3  and  C3_4 
REMARK    3  A    between atoms: C3_4  and  C4_5 
REMARK    4  A    between atoms: C5_6  and  C6_7 
REMARK    5  A    between atoms: C5_6  and  C9_13 
REMARK    6  A    between atoms: C6_7  and  C7_8 
REMARK    7  A    between atoms: C7_8  and  C8_10 
REMARK       I    between atoms: C8_10  and  N1_11 
REMARK    8  A    between atoms: C19_24  and  O3_25 
ROOT
HETATM    1  C9  UNL     1      24.260   0.567  52.510  1.00  0.00    -0.009 C 
HETATM    2  C10 UNL     1      23.912   1.518  51.485  1.00  0.00     0.077 C 
HETATM    3  C11 UNL     1      24.003   2.428  50.529  1.00  0.00    -0.027 C 
HETATM    4  C12 UNL     1      24.539   3.410  49.530  1.00  0.00     0.015 C 
HETATM    5  C13 UNL     1      22.596   2.402  50.043  1.00  0.00    -0.024 C 
HETATM    6  C14 UNL     1      21.620   1.642  50.449  1.00  0.00    -0.020 C 
HETATM    7  C15 UNL     1      20.266   1.025  50.584  1.00  0.00     0.101 C 
HETATM    8  S1  UNL     1      19.779   1.141  52.298  1.00  0.00    -0.161 SA
HETATM    9  C16 UNL     1      20.467  -0.100  53.320  1.00  0.00     0.110 C 
HETATM   10  C17 UNL     1      21.892  -0.290  53.480  1.00  0.00    -0.041 C 
HETATM   11  C18 UNL     1      21.829  -1.341  54.603  1.00  0.00     0.047 C 
HETATM   12  C19 UNL     1      23.225  -0.118  53.263  1.00  0.00     0.076 C 
ENDROOT
BRANCH   1  13
HETATM   13  C5  UNL     1      25.535   0.298  52.827  1.00  0.00    -0.025 C 
HETATM   14  C4  UNL     1      25.927   1.008  54.009  1.00  0.00     0.019 C 
BRANCH  14  15
HETATM   15  C3  UNL     1      27.035   1.036  54.659  1.00  0.00     0.177 C 
BRANCH  15  16
HETATM   16  O1  UNL     1      28.328   0.876  55.080  1.00  0.00    -0.380 OA
BRANCH  16  17
HETATM   17  C2  UNL     1      29.328   1.732  54.517  1.00  0.00     0.164 C 
HETATM   18  C1  UNL     1      28.643   2.554  53.475  1.00  0.00     0.033 C 
ENDBRANCH  16  17
ENDBRANCH  15  16
ENDBRANCH  14  15
BRANCH  13  19
HETATM   19  C6  UNL     1      26.720  -0.421  52.402  1.00  0.00     0.060 C 
BRANCH  19  20
HETATM   20  C7  UNL     1      27.052  -1.697  52.326  1.00  0.00     0.184 C 
HETATM   21  F1  UNL     1      26.402  -2.684  51.673  1.00  0.00    -0.200 F 
BRANCH  20  22
HETATM   22  C8  UNL     1      28.251  -2.144  53.013  1.00  0.00     0.277 C 
HETATM   23  N1  UNL     1      28.620  -3.494  53.217  1.00  0.00    -0.364 N 
HETATM   24  H9  UNL     1      29.105  -4.322  52.811  1.00  0.00     0.159 HD
HETATM   25  H10 UNL     1      28.535  -4.263  53.934  1.00  0.00     0.159 HD
HETATM   26  O2  UNL     1      29.294  -1.792  53.616  1.00  0.00    -0.265 OA
ENDBRANCH  20  22
ENDBRANCH  19  20
ENDBRANCH  13  19
ENDBRANCH   1  13
BRANCH  12  27
HETATM   27  O3  UNL     1      24.074  -0.917  54.081  1.00  0.00    -0.360 OA
HETATM   28  H24 UNL     1      24.314  -1.802  53.613  1.00  0.00     0.217 HD
ENDBRANCH  12  27
TORSDOF 8
ENDMDL
MODEL 3
REMARK VINA RESULT:      -7.8      2.188      3.125
REMARK  8 active torsions:
REMARK  status: ('A' for Active; 'I' for Inactive)
REMARK    1  A    between atoms: C2_2  and  O1_3 
REMARK    2  A    between atoms: O1_3  and  C3_4 
REMARK    3  A    between atoms: C3_4  and  C4_5 
REMARK    4  A    between atoms: C5_6  and  C6_7 
REMARK    5  A    between atoms: C5_6  and  C9_13 
REMARK    6  A    between atoms: C6_7  and  C7_8 
REMARK    7  A    between atoms: C7_8  and  C8_10 
REMARK       I    between atoms: C8_10  and  N1_11 
REMARK    8  A    between atoms: C19_24  and  O3_25 
ROOT
HETATM    1  C9  UNL     1      25.296   2.539  51.369  1.00  0.00    -0.009 C 
HETATM    2  C10 UNL     1      23.888   2.469  51.672  1.00  0.00     0.077 C 
HETATM    3  C11 UNL     1      22.728   2.088  52.178  1.00  0.00    -0.027 C 
HETATM    4  C12 UNL     1      21.670   1.350  52.944  1.00  0.00     0.015 C 
HETATM    5  C13 UNL     1      21.899   3.258  51.777  1.00  0.00    -0.024 C 
HETATM    6  C14 UNL     1      22.279   4.337  51.155  1.00  0.00    -0.020 C 
HETATM    7  C15 UNL     1      22.249   5.673  50.487  1.00  0.00     0.101 C 
HETATM    8  S1  UNL     1      22.958   5.487  48.859  1.00  0.00    -0.161 SA
HETATM    9  C16 UNL     1      24.706   5.494  48.837  1.00  0.00     0.110 C 
HETATM   10  C17 UNL     1      25.509   4.536  49.566  1.00  0.00    -0.041 C 
HETATM   11  C18 UNL     1      26.877   4.941  48.990  1.00  0.00     0.047 C 
HETATM   12  C19 UNL     1      25.798   3.519  50.423  1.00  0.00     0.076 C 
ENDROOT
BRANCH   1  13
HETATM   13  C5  UNL     1      26.184   1.697  51.918  1.00  0.00    -0.025 C 
HETATM   14  C4  UNL     1      26.963   2.362  52.921  1.00  0.00     0.019 C 
BRANCH  14  15
HETATM   15  C3  UNL     1      27.903   1.938  53.689  1.00  0.00     0.177 C 
BRANCH  15  16
HETATM   16  O1  UNL     1      28.638   1.425  54.724  1.00  0.00    -0.380 OA
BRANCH  16  17
HETATM   17  C2  UNL     1      28.933   0.024  54.707  1.00  0.00     0.164 C 
HETATM   18  C1  UNL     1      29.889  -0.193  53.581  1.00  0.00     0.033 C 
ENDBRANCH  16  17
ENDBRANCH  15  16
ENDBRANCH  14  15
BRANCH  13  19
HETATM   19  C6  UNL     1      26.707   0.347  51.859  1.00  0.00     0.060 C 
BRANCH  19  20
HETATM   20  C7  UNL     1      26.336  -0.813  52.370  1.00  0.00     0.184 C 
HETATM   21  F1  UNL     1      26.772  -2.046  52.029  1.00  0.00    -0.200 F 
BRANCH  20  22
HETATM   22  C8  UNL     1      25.340  -0.820  53.426  1.00  0.00     0.277 C 
HETATM   23  N1  UNL     1      25.618  -0.890  54.811  1.00  0.00    -0.364 N 
HETATM   24  H9  UNL     1      25.848  -0.346  55.669  1.00  0.00     0.159 HD
HETATM   25  H10 UNL     1      25.711  -1.596  55.589  1.00  0.00     0.159 HD
HETATM   26  O2  UNL     1      24.114  -0.786  53.698  1.00  0.00    -0.265 OA
ENDBRANCH  20  22
ENDBRANCH  19  20
ENDBRANCH  13  19
ENDBRANCH   1  13
BRANCH  12  27
HETATM   27  O3  UNL     1      27.180   3.185  50.512  1.00  0.00    -0.360 OA
HETATM   28  H24 UNL     1      27.606   3.112  49.578  1.00  0.00     0.217 HD
ENDBRANCH  12  27
TORSDOF 8
ENDMDL
MODEL 4
REMARK VINA RESULT:      -7.6      1.722      1.912
REMARK  8 active torsions:
REMARK  status: ('A' for Active; 'I' for Inactive)
REMARK    1  A    between atoms: C2_2  and  O1_3 
REMARK    2  A    between atoms: O1_3  and  C3_4 
REMARK    3  A    between atoms: C3_4  and  C4_5 
REMARK    4  A    between atoms: C5_6  and  C6_7 
REMARK    5  A    between atoms: C5_6  and  C9_13 
REMARK    6  A    between atoms: C6_7  and  C7_8 
REMARK    7  A    between atoms: C7_8  and  C8_10 
REMARK       I    between atoms: C8_10  and  N1_11 
REMARK    8  A    between atoms: C19_24  and  O3_25 
ROOT
HETATM    1  C9  UNL     1      23.506   1.379  51.958  1.00  0.00    -0.009 C 
HETATM    2  C10 UNL     1      22.407   0.833  52.715  1.00  0.00     0.077 C 
HETATM    3  C11 UNL     1      21.712   0.181  53.631  1.00  0.00    -0.027 C 
HETATM    4  C12 UNL     1      21.331  -0.659  54.815  1.00  0.00     0.015 C 
HETATM    5  C13 UNL     1      20.359   0.728  53.336  1.00  0.00    -0.024 C 
HETATM    6  C14 UNL     1      20.031   1.626  52.452  1.00  0.00    -0.020 C 
HETATM    7  C15 UNL     1      19.221   2.564  51.618  1.00  0.00     0.101 C 
HETATM    8  S1  UNL     1      19.563   2.205  49.902  1.00  0.00    -0.161 SA
HETATM    9  C16 UNL     1      21.042   2.922  49.304  1.00  0.00     0.110 C 
HETATM   10  C17 UNL     1      22.341   2.645  49.879  1.00  0.00    -0.041 C 
HETATM   11  C18 UNL     1      23.187   3.382  48.825  1.00  0.00     0.047 C 
HETATM   12  C19 UNL     1      23.260   2.145  50.750  1.00  0.00     0.076 C 
ENDROOT
BRANCH   1  13
HETATM   13  C5  UNL     1      24.783   1.183  52.316  1.00  0.00    -0.025 C 
HETATM   14  C4  UNL     1      25.296   2.324  53.017  1.00  0.00     0.019 C 
BRANCH  14  15
HETATM   15  C3  UNL     1      26.448   2.557  53.538  1.00  0.00     0.177 C 
BRANCH  15  16
HETATM   16  O1  UNL     1      27.614   2.501  54.253  1.00  0.00    -0.380 OA
BRANCH  16  17
HETATM   17  C2  UNL     1      28.840   2.359  53.528  1.00  0.00     0.164 C 
HETATM   18  C1  UNL     1      29.319   0.966  53.777  1.00  0.00     0.033 C 
ENDBRANCH  16  17
ENDBRANCH  15  16
ENDBRANCH  14  15
BRANCH  13  19
HETATM   19  C6  UNL     1      25.893   0.255  52.231  1.00  0.00     0.060 C 
BRANCH  19  20
HETATM   20  C7  UNL     1      26.237  -0.840  52.883  1.00  0.00     0.184 C 
HETATM   21  F1  UNL     1      26.914  -1.909  52.409  1.00  0.00    -0.200 F 
BRANCH  20  22
HETATM   22  C8  UNL     1      25.865  -0.961  54.282  1.00  0.00     0.277 C 
HETATM   23  N1  UNL     1      26.541  -0.350  55.363  1.00  0.00    -0.364 N 
HETATM   24  H9  UNL     1      26.631   0.511  55.943  1.00  0.00     0.159 HD
HETATM   25  H10 UNL     1      27.295  -0.553  56.072  1.00  0.00     0.159 HD
HETATM   26  O2  UNL     1      25.057  -1.465  55.101  1.00  0.00    -0.265 OA
ENDBRANCH  20  22
ENDBRANCH  19  20
ENDBRANCH  13  19
ENDBRANCH   1  13
BRANCH  12  27
HETATM   27  O3  UNL     1      24.615   2.451  50.433  1.00  0.00    -0.360 OA
HETATM   28  H24 UNL     1      24.699   2.816  49.475  1.00  0.00     0.217 HD
ENDBRANCH  12  27
TORSDOF 8
ENDMDL
MODEL 5
REMARK VINA RESULT:      -7.5      1.860      2.645
REMARK  8 active torsions:
REMARK  status: ('A' for Active; 'I' for Inactive)
REMARK    1  A    between atoms: C2_2  and  O1_3 
REMARK    2  A    between atoms: O1_3  and  C3_4 
REMARK    3  A    between atoms: C3_4  and  C4_5 
REMARK    4  A    between atoms: C5_6  and  C6_7 
REMARK    5  A    between atoms: C5_6  and  C9_13 
REMARK    6  A    between atoms: C6_7  and  C7_8 
REMARK    7  A    between atoms: C7_8  and  C8_10 
REMARK       I    between atoms: C8_10  and  N1_11 
REMARK    8  A    between atoms: C19_24  and  O3_25 
ROOT
HETATM    1  C9  UNL     1      24.081   1.021  52.224  1.00  0.00    -0.009 C 
HETATM    2  C10 UNL     1      22.962   0.495  52.964  1.00  0.00     0.077 C 
HETATM    3  C11 UNL     1      22.239  -0.190  53.834  1.00  0.00    -0.027 C 
HETATM    4  C12 UNL     1      21.820  -1.121  54.933  1.00  0.00     0.015 C 
HETATM    5  C13 UNL     1      20.936   0.508  53.662  1.00  0.00    -0.024 C 
HETATM    6  C14 UNL     1      20.666   1.528  52.898  1.00  0.00    -0.020 C 
HETATM    7  C15 UNL     1      19.922   2.625  52.210  1.00  0.00     0.101 C 
HETATM    8  S1  UNL     1      20.168   2.435  50.452  1.00  0.00    -0.161 SA
HETATM    9  C16 UNL     1      21.688   3.076  49.870  1.00  0.00     0.110 C 
HETATM   10  C17 UNL     1      22.973   2.618  50.351  1.00  0.00    -0.041 C 
HETATM   11  C18 UNL     1      23.849   3.389  49.348  1.00  0.00     0.047 C 
HETATM   12  C19 UNL     1      23.869   1.939  51.119  1.00  0.00     0.076 C 
ENDROOT
BRANCH   1  13
HETATM   13  C5  UNL     1      25.345   0.669  52.500  1.00  0.00    -0.025 C 
HETATM   14  C4  UNL     1      25.465  -0.756  52.610  1.00  0.00     0.019 C 
BRANCH  14  15
HETATM   15  C3  UNL     1      26.478  -1.510  52.851  1.00  0.00     0.177 C 
BRANCH  15  16
HETATM   16  O1  UNL     1      27.590  -2.104  53.384  1.00  0.00    -0.380 OA
BRANCH  16  17
HETATM   17  C2  UNL     1      28.852  -1.850  52.759  1.00  0.00     0.164 C 
HETATM   18  C1  UNL     1      29.775  -1.389  53.839  1.00  0.00     0.033 C 
ENDBRANCH  16  17
ENDBRANCH  15  16
ENDBRANCH  14  15
BRANCH  13  19
HETATM   19  C6  UNL     1      26.670   1.187  52.782  1.00  0.00     0.060 C 
BRANCH  19  20
HETATM   20  C7  UNL     1      27.385   1.354  53.880  1.00  0.00     0.184 C 
HETATM   21  F1  UNL     1      27.128   0.874  55.116  1.00  0.00    -0.200 F 
BRANCH  20  22
HETATM   22  C8  UNL     1      28.602   2.142  53.802  1.00  0.00     0.277 C 
HETATM   23  N1  UNL     1      29.632   2.151  54.771  1.00  0.00    -0.364 N 
HETATM   24  H9  UNL     1      30.507   1.688  55.098  1.00  0.00     0.159 HD
HETATM   25  H10 UNL     1      29.943   2.686  55.625  1.00  0.00     0.159 HD
HETATM   26  O2  UNL     1      29.259   2.973  53.128  1.00  0.00    -0.265 OA
ENDBRANCH  20  22
ENDBRANCH  19  20
ENDBRANCH  13  19
ENDBRANCH   1  13
BRANCH  12  27
HETATM   27  O3  UNL     1      25.235   2.153  50.778  1.00  0.00    -0.360 OA
HETATM   28  H24 UNL     1      25.591   3.023  51.199  1.00  0.00     0.217 HD
ENDBRANCH  12  27
TORSDOF 8
ENDMDL
MODEL 6
REMARK VINA RESULT:      -7.3      2.428      4.371
REMARK  8 active torsions:
REMARK  status: ('A' for Active; 'I' for Inactive)
REMARK    1  A    between atoms: C2_2  and  O1_3 
REMARK    2  A    between atoms: O1_3  and  C3_4 
REMARK    3  A    between atoms: C3_4  and  C4_5 
REMARK    4  A    between atoms: C5_6  and  C6_7 
REMARK    5  A    between atoms: C5_6  and  C9_13 
REMARK    6  A    between atoms: C6_7  and  C7_8 
REMARK    7  A    between atoms: C7_8  and  C8_10 
REMARK       I    between atoms: C8_10  and  N1_11 
REMARK    8  A    between atoms: C19_24  and  O3_25 
ROOT
HETATM    1  C9  UNL     1      23.789   2.349  51.843  1.00  0.00    -0.009 C 
HETATM    2  C10 UNL     1      24.508   3.085  50.833  1.00  0.00     0.077 C 
HETATM    3  C11 UNL     1      25.481   3.544  50.065  1.00  0.00    -0.027 C 
HETATM    4  C12 UNL     1      26.826   3.789  49.446  1.00  0.00     0.015 C 
HETATM    5  C13 UNL     1      24.663   4.248  49.041  1.00  0.00    -0.024 C 
HETATM    6  C14 UNL     1      23.365   4.312  48.955  1.00  0.00    -0.020 C 
HETATM    7  C15 UNL     1      21.991   4.653  48.476  1.00  0.00     0.101 C 
HETATM    8  S1  UNL     1      21.103   5.387  49.840  1.00  0.00    -0.161 SA
HETATM    9  C16 UNL     1      20.441   4.226  50.968  1.00  0.00     0.110 C 
HETATM   10  C17 UNL     1      21.257   3.272  51.688  1.00  0.00    -0.041 C 
HETATM   11  C18 UNL     1      20.156   2.721  52.611  1.00  0.00     0.047 C 
HETATM   12  C19 UNL     1      22.371   2.579  52.053  1.00  0.00     0.076 C 
ENDROOT
BRANCH   1  13
HETATM   13  C5  UNL     1      24.395   1.456  52.639  1.00  0.00    -0.025 C 
HETATM   14  C4  UNL     1      25.430   2.081  53.410  1.00  0.00     0.019 C 
BRANCH  14  15
HETATM   15  C3  UNL     1      26.240   1.609  54.290  1.00  0.00     0.177 C 
BRANCH  15  16
HETATM   16  O1  UNL     1      27.096   0.827  55.017  1.00  0.00    -0.380 OA
BRANCH  16  17
HETATM   17  C2  UNL     1      28.368   0.509  54.441  1.00  0.00     0.164 C 
HETATM   18  C1  UNL     1      28.125  -0.589  53.458  1.00  0.00     0.033 C 
ENDBRANCH  16  17
ENDBRANCH  15  16
ENDBRANCH  14  15
BRANCH  13  19
HETATM   19  C6  UNL     1      24.440   0.054  53.003  1.00  0.00     0.060 C 
BRANCH  19  20
HETATM   20  C7  UNL     1      23.553  -0.816  53.452  1.00  0.00     0.184 C 
HETATM   21  F1  UNL     1      22.551  -1.406  52.764  1.00  0.00    -0.200 F 
BRANCH  20  22
HETATM   22  C8  UNL     1      23.617  -1.217  54.846  1.00  0.00     0.277 C 
HETATM   23  N1  UNL     1      24.802  -1.325  55.611  1.00  0.00    -0.364 N 
HETATM   24  H9  UNL     1      25.488  -0.818  56.208  1.00  0.00     0.159 HD
HETATM   25  H10 UNL     1      25.523  -2.039  55.899  1.00  0.00     0.159 HD
HETATM   26  O2  UNL     1      22.961  -1.576  55.854  1.00  0.00    -0.265 OA
ENDBRANCH  20  22
ENDBRANCH  19  20
ENDBRANCH  13  19
ENDBRANCH   1  13
BRANCH  12  27
HETATM   27  O3  UNL     1      22.170   1.625  53.092  1.00  0.00    -0.360 OA
HETATM   28  H24 UNL     1      22.488   0.690  52.803  1.00  0.00     0.217 HD
ENDBRANCH  12  27
TORSDOF 8
ENDMDL
MODEL 7
REMARK VINA RESULT:      -7.3      4.803      6.872
REMARK  8 active torsions:
REMARK  status: ('A' for Active; 'I' for Inactive)
REMARK    1  A    between atoms: C2_2  and  O1_3 
REMARK    2  A    between atoms: O1_3  and  C3_4 
REMARK    3  A    between atoms: C3_4  and  C4_5 
REMARK    4  A    between atoms: C5_6  and  C6_7 
REMARK    5  A    between atoms: C5_6  and  C9_13 
REMARK    6  A    between atoms: C6_7  and  C7_8 
REMARK    7  A    between atoms: C7_8  and  C8_10 
REMARK       I    between atoms: C8_10  and  N1_11 
REMARK    8  A    between atoms: C19_24  and  O3_25 
ROOT
HETATM    1  C9  UNL     1      24.992   4.071  49.602  1.00  0.00    -0.009 C 
HETATM    2  C10 UNL     1      25.301   2.999  50.515  1.00  0.00     0.077 C 
HETATM    3  C11 UNL     1      25.945   2.214  51.362  1.00  0.00    -0.027 C 
HETATM    4  C12 UNL     1      27.002   1.614  52.242  1.00  0.00     0.015 C 
HETATM    5  C13 UNL     1      24.798   1.402  51.852  1.00  0.00    -0.024 C 
HETATM    6  C14 UNL     1      23.540   1.517  51.537  1.00  0.00    -0.020 C 
HETATM    7  C15 UNL     1      22.066   1.278  51.477  1.00  0.00     0.101 C 
HETATM    8  S1  UNL     1      21.615   1.067  49.762  1.00  0.00    -0.161 SA
HETATM    9  C16 UNL     1      21.427   2.568  48.884  1.00  0.00     0.110 C 
HETATM   10  C17 UNL     1      22.490   3.538  48.742  1.00  0.00    -0.041 C 
HETATM   11  C18 UNL     1      21.780   4.471  47.745  1.00  0.00     0.047 C 
HETATM   12  C19 UNL     1      23.704   4.123  48.935  1.00  0.00     0.076 C 
ENDROOT
BRANCH   1  13
HETATM   13  C5  UNL     1      25.878   5.036  49.314  1.00  0.00    -0.025 C 
HETATM   14  C4  UNL     1      27.129   4.472  48.899  1.00  0.00     0.019 C 
BRANCH  14  15
HETATM   15  C3  UNL     1      28.230   5.022  48.528  1.00  0.00     0.177 C 
BRANCH  15  16
HETATM   16  O1  UNL     1      29.528   5.287  48.184  1.00  0.00    -0.380 OA
BRANCH  16  17
HETATM   17  C2  UNL     1      29.804   6.513  47.498  1.00  0.00     0.164 C 
HETATM   18  C1  UNL     1      29.487   7.614  48.456  1.00  0.00     0.033 C 
ENDBRANCH  16  17
ENDBRANCH  15  16
ENDBRANCH  14  15
BRANCH  13  19
HETATM   19  C6  UNL     1      26.081   6.472  49.299  1.00  0.00     0.060 C 
BRANCH  19  20
HETATM   20  C7  UNL     1      25.898   7.442  50.175  1.00  0.00     0.184 C 
HETATM   21  F1  UNL     1      26.770   8.411  50.533  1.00  0.00    -0.200 F 
BRANCH  20  22
HETATM   22  C8  UNL     1      24.624   7.521  50.869  1.00  0.00     0.277 C 
HETATM   23  N1  UNL     1      24.319   6.880  52.092  1.00  0.00    -0.364 N 
HETATM   24  H9  UNL     1      24.360   6.948  53.130  1.00  0.00     0.159 HD
HETATM   25  H10 UNL     1      23.888   5.990  52.460  1.00  0.00     0.159 HD
HETATM   26  O2  UNL     1      23.462   7.995  50.853  1.00  0.00    -0.265 OA
ENDBRANCH  20  22
ENDBRANCH  19  20
ENDBRANCH  13  19
ENDBRANCH   1  13
BRANCH  12  27
HETATM   27  O3  UNL     1      23.909   5.332  48.209  1.00  0.00    -0.360 OA
HETATM   28  H24 UNL     1      24.858   5.700  48.362  1.00  0.00     0.217 HD
ENDBRANCH  12  27
TORSDOF 8
ENDMDL
MODEL 8
REMARK VINA RESULT:      -7.2      2.422      3.668
REMARK  8 active torsions:
REMARK  status: ('A' for Active; 'I' for Inactive)
REMARK    1  A    between atoms: C2_2  and  O1_3 
REMARK    2  A    between atoms: O1_3  and  C3_4 
REMARK    3  A    between atoms: C3_4  and  C4_5 
REMARK    4  A    between atoms: C5_6  and  C6_7 
REMARK    5  A    between atoms: C5_6  and  C9_13 
REMARK    6  A    between atoms: C6_7  and  C7_8 
REMARK    7  A    between atoms: C7_8  and  C8_10 
REMARK       I    between atoms: C8_10  and  N1_11 
REMARK    8  A    between atoms: C19_24  and  O3_25 
ROOT
HETATM    1  C9  UNL     1      24.928   2.624  51.838  1.00  0.00    -0.009 C 
HETATM    2  C10 UNL     1      23.489   2.637  51.934  1.00  0.00     0.077 C 
HETATM    3  C11 UNL     1      22.252   2.375  52.320  1.00  0.00    -0.027 C 
HETATM    4  C12 UNL     1      21.062   1.806  53.035  1.00  0.00     0.015 C 
HETATM    5  C13 UNL     1      21.544   3.470  51.602  1.00  0.00    -0.024 C 
HETATM    6  C14 UNL     1      22.059   4.413  50.866  1.00  0.00    -0.020 C 
HETATM    7  C15 UNL     1      22.186   5.608  49.979  1.00  0.00     0.101 C 
HETATM    8  S1  UNL     1      23.112   5.121  48.532  1.00  0.00    -0.161 SA
HETATM    9  C16 UNL     1      24.844   5.090  48.771  1.00  0.00     0.110 C 
HETATM   10  C17 UNL     1      25.489   4.263  49.768  1.00  0.00    -0.041 C 
HETATM   11  C18 UNL     1      26.943   4.531  49.341  1.00  0.00     0.047 C 
HETATM   12  C19 UNL     1      25.606   3.409  50.822  1.00  0.00     0.076 C 
ENDROOT
BRANCH   1  13
HETATM   13  C5  UNL     1      25.688   1.877  52.651  1.00  0.00    -0.025 C 
HETATM   14  C4  UNL     1      25.379   0.485  52.501  1.00  0.00     0.019 C 
BRANCH  14  15
HETATM   15  C3  UNL     1      25.865  -0.561  53.068  1.00  0.00     0.177 C 
BRANCH  15  16
HETATM   16  O1  UNL     1      26.659  -1.599  53.475  1.00  0.00    -0.380 OA
BRANCH  16  17
HETATM   17  C2  UNL     1      27.300  -2.390  52.467  1.00  0.00     0.164 C 
HETATM   18  C1  UNL     1      28.640  -2.764  53.012  1.00  0.00     0.033 C 
ENDBRANCH  16  17
ENDBRANCH  15  16
ENDBRANCH  14  15
BRANCH  13  19
HETATM   19  C6  UNL     1      26.702   1.935  53.685  1.00  0.00     0.060 C 
BRANCH  19  20
HETATM   20  C7  UNL     1      28.017   2.058  53.687  1.00  0.00     0.184 C 
HETATM   21  F1  UNL     1      28.750   3.119  53.283  1.00  0.00    -0.200 F 
BRANCH  20  22
HETATM   22  C8  UNL     1      28.818   0.948  54.171  1.00  0.00     0.277 C 
HETATM   23  N1  UNL     1      30.022   0.493  53.585  1.00  0.00    -0.364 N 
HETATM   24  H9  UNL     1      31.056   0.614  53.543  1.00  0.00     0.159 HD
HETATM   25  H10 UNL     1      30.372  -0.219  52.890  1.00  0.00     0.159 HD
HETATM   26  O2  UNL     1      28.929   0.049  55.041  1.00  0.00    -0.265 OA
ENDBRANCH  20  22
ENDBRANCH  19  20
ENDBRANCH  13  19
ENDBRANCH   1  13
BRANCH  12  27
HETATM   27  O3  UNL     1      26.944   3.070  51.174  1.00  0.00    -0.360 OA
HETATM   28  H24 UNL     1      26.964   2.428  51.978  1.00  0.00     0.217 HD
ENDBRANCH  12  27
TORSDOF 8
ENDMDL
MODEL 9
REMARK VINA RESULT:      -7.1      3.961      6.859
REMARK  8 active torsions:
REMARK  status: ('A' for Active; 'I' for Inactive)
REMARK    1  A    between atoms: C2_2  and  O1_3 
REMARK    2  A    between atoms: O1_3  and  C3_4 
REMARK    3  A    between atoms: C3_4  and  C4_5 
REMARK    4  A    between atoms: C5_6  and  C6_7 
REMARK    5  A    between atoms: C5_6  and  C9_13 
REMARK    6  A    between atoms: C6_7  and  C7_8 
REMARK    7  A    between atoms: C7_8  and  C8_10 
REMARK       I    between atoms: C8_10  and  N1_11 
REMARK    8  A    between atoms: C19_24  and  O3_25 
ROOT
HETATM    1  C9  UNL     1      23.325   1.412  51.967  1.00  0.00    -0.009 C 
HETATM    2  C10 UNL     1      23.507   0.500  53.069  1.00  0.00     0.077 C 
HETATM    3  C11 UNL     1      23.263  -0.361  54.043  1.00  0.00    -0.027 C 
HETATM    4  C12 UNL     1      22.570  -1.270  55.013  1.00  0.00     0.015 C 
HETATM    5  C13 UNL     1      24.657  -0.804  54.321  1.00  0.00    -0.024 C 
HETATM    6  C14 UNL     1      25.750  -0.448  53.709  1.00  0.00    -0.020 C 
HETATM    7  C15 UNL     1      27.192  -0.336  53.334  1.00  0.00     0.101 C 
HETATM    8  S1  UNL     1      27.630   1.394  53.354  1.00  0.00    -0.161 SA
HETATM    9  C16 UNL     1      27.167   2.264  51.908  1.00  0.00     0.110 C 
HETATM   10  C17 UNL     1      25.798   2.360  51.450  1.00  0.00    -0.041 C 
HETATM   11  C18 UNL     1      26.037   3.372  50.315  1.00  0.00     0.047 C 
HETATM   12  C19 UNL     1      24.459   2.122  51.403  1.00  0.00     0.076 C 
ENDROOT
BRANCH   1  13
HETATM   13  C5  UNL     1      22.116   1.661  51.442  1.00  0.00    -0.025 C 
HETATM   14  C4  UNL     1      21.407   2.624  52.233  1.00  0.00     0.019 C 
BRANCH  14  15
HETATM   15  C3  UNL     1      20.242   3.148  52.093  1.00  0.00     0.177 C 
BRANCH  15  16
HETATM   16  O1  UNL     1      18.906   3.444  52.152  1.00  0.00    -0.380 OA
BRANCH  16  17
HETATM   17  C2  UNL     1      18.140   3.331  50.947  1.00  0.00     0.164 C 
HETATM   18  C1  UNL     1      18.299   4.628  50.223  1.00  0.00     0.033 C 
ENDBRANCH  16  17
ENDBRANCH  15  16
ENDBRANCH  14  15
BRANCH  13  19
HETATM   19  C6  UNL     1      21.204   1.293  50.377  1.00  0.00     0.060 C 
BRANCH  19  20
HETATM   20  C7  UNL     1      21.270   1.296  49.058  1.00  0.00     0.184 C 
HETATM   21  F1  UNL     1      21.736   0.319  48.250  1.00  0.00    -0.200 F 
BRANCH  20  22
HETATM   22  C8  UNL     1      20.801   2.469  48.343  1.00  0.00     0.277 C 
HETATM   23  N1  UNL     1      21.354   3.766  48.449  1.00  0.00    -0.364 N 
HETATM   24  H9  UNL     1      22.086   4.419  48.098  1.00  0.00     0.159 HD
HETATM   25  H10 UNL     1      21.224   4.666  48.984  1.00  0.00     0.159 HD
HETATM   26  O2  UNL     1      19.965   2.918  47.520  1.00  0.00    -0.265 OA
ENDBRANCH  20  22
ENDBRANCH  19  20
ENDBRANCH  13  19
ENDBRANCH   1  13
BRANCH  12  27
HETATM   27  O3  UNL     1      23.759   2.828  50.383  1.00  0.00    -0.360 OA
HETATM   28  H24 UNL     1      23.374   2.181  49.681  1.00  0.00     0.217 HD
ENDBRANCH  12  27
TORSDOF 8
ENDMDL
