MODEL 1
REMARK VINA RESULT:      -6.5      0.000      0.000
REMARK  4 active torsions:
REMARK  status: ('A' for Active; 'I' for Inactive)
REMARK    1  A    between atoms: O1_2  and  C2_3 
REMARK    2  A    between atoms: C6_9  and  N3_10 
REMARK    3  A    between atoms: N3_10  and  C8_12 
REMARK    4  A    between atoms: C14_19  and  O2_20 
ROOT
HETATM    1  C2  UNL     1      26.051  -0.190  52.945  1.00  0.00     0.103 A 
HETATM    2  C3  UNL     1      26.818   0.668  52.167  1.00  0.00     0.072 A 
HETATM    3  C4  UNL     1      26.237   1.778  51.555  1.00  0.00     0.075 A 
HETATM    4  N1  UNL     1      26.904   2.649  50.792  1.00  0.00    -0.241 NA
HETATM    5  C5  UNL     1      26.251   3.707  50.234  1.00  0.00     0.236 A 
HETATM    6  N2  UNL     1      24.914   3.880  50.451  1.00  0.00    -0.223 NA
HETATM    7  C6  UNL     1      24.223   3.010  51.218  1.00  0.00     0.144 A 
HETATM    8  C12 UNL     1      24.886   1.959  51.770  1.00  0.00     0.042 A 
HETATM    9  C13 UNL     1      24.101   1.119  52.540  1.00  0.00     0.057 A 
HETATM   10  C14 UNL     1      24.694   0.018  53.143  1.00  0.00     0.102 A 
ENDROOT
BRANCH   7  11
HETATM   11  N3  UNL     1      22.858   3.362  51.318  1.00  0.00    -0.335 N 
HETATM   12  C7  UNL     1      22.532   4.464  52.199  1.00  0.00     0.158 C 
BRANCH  11  13
HETATM   13  C8  UNL     1      21.866   2.666  50.588  1.00  0.00     0.042 A 
HETATM   14  C9  UNL     1      20.486   2.549  51.121  1.00  0.00     0.079 A 
HETATM   15  S1  UNL     1      19.608   1.593  49.859  1.00  0.00    -0.111 SA
HETATM   16  C10 UNL     1      21.074   1.402  48.724  1.00  0.00     0.052 A 
HETATM   17  C11 UNL     1      22.115   2.077  49.387  1.00  0.00     0.037 A 
ENDBRANCH  11  13
ENDBRANCH   7  11
BRANCH  10  18
HETATM   18  O2  UNL     1      23.994  -0.883  53.934  1.00  0.00    -0.353 OA
HETATM   19  C15 UNL     1      22.560  -0.870  53.866  1.00  0.00     0.210 C 
ENDBRANCH  10  18
BRANCH   1  20
HETATM   20  O1  UNL     1      26.652  -1.281  53.539  1.00  0.00    -0.353 OA
HETATM   21  C1  UNL     1      27.245  -2.288  52.738  1.00  0.00     0.210 C 
ENDBRANCH   1  20
TORSDOF 4
ENDMDL
MODEL 2
REMARK VINA RESULT:      -6.5      2.093      3.496
REMARK  4 active torsions:
REMARK  status: ('A' for Active; 'I' for Inactive)
REMARK    1  A    between atoms: O1_2  and  C2_3 
REMARK    2  A    between atoms: C6_9  and  N3_10 
REMARK    3  A    between atoms: N3_10  and  C8_12 
REMARK    4  A    between atoms: C14_19  and  O2_20 
ROOT
HETATM    1  C2  UNL     1      26.852  -0.127  53.812  1.00  0.00     0.103 A 
HETATM    2  C3  UNL     1      25.719  -0.777  54.284  1.00  0.00     0.072 A 
HETATM    3  C4  UNL     1      24.447  -0.338  53.920  1.00  0.00     0.075 A 
HETATM    4  N1  UNL     1      23.310  -0.908  54.330  1.00  0.00    -0.241 NA
HETATM    5  C5  UNL     1      22.110  -0.408  53.921  1.00  0.00     0.236 A 
HETATM    6  N2  UNL     1      22.065   0.676  53.093  1.00  0.00    -0.223 NA
HETATM    7  C6  UNL     1      23.203   1.266  52.668  1.00  0.00     0.144 A 
HETATM    8  C12 UNL     1      24.393   0.758  53.083  1.00  0.00     0.042 A 
HETATM    9  C13 UNL     1      25.507   1.423  52.600  1.00  0.00     0.057 A 
HETATM   10  C14 UNL     1      26.767   0.973  52.971  1.00  0.00     0.102 A 
ENDROOT
BRANCH   7  11
HETATM   11  N3  UNL     1      22.943   2.369  51.823  1.00  0.00    -0.335 N 
HETATM   12  C7  UNL     1      23.020   3.683  52.425  1.00  0.00     0.158 C 
BRANCH  11  13
HETATM   13  C8  UNL     1      22.622   2.185  50.458  1.00  0.00     0.042 A 
HETATM   14  C9  UNL     1      23.215   3.068  49.423  1.00  0.00     0.079 A 
HETATM   15  S1  UNL     1      22.517   2.453  47.869  1.00  0.00    -0.111 SA
HETATM   16  C10 UNL     1      21.504   1.097  48.650  1.00  0.00     0.052 A 
HETATM   17  C11 UNL     1      21.772   1.214  50.026  1.00  0.00     0.037 A 
ENDBRANCH  11  13
ENDBRANCH   7  11
BRANCH  10  18
HETATM   18  O2  UNL     1      27.944   1.571  52.541  1.00  0.00    -0.353 OA
HETATM   19  C15 UNL     1      28.580   2.516  53.414  1.00  0.00     0.210 C 
ENDBRANCH  10  18
BRANCH   1  20
HETATM   20  O1  UNL     1      28.098  -0.583  54.189  1.00  0.00    -0.353 OA
HETATM   21  C1  UNL     1      28.797  -1.500  53.365  1.00  0.00     0.210 C 
ENDBRANCH   1  20
TORSDOF 4
ENDMDL
MODEL 3
REMARK VINA RESULT:      -6.4      2.368      4.105
REMARK  4 active torsions:
REMARK  status: ('A' for Active; 'I' for Inactive)
REMARK    1  A    between atoms: O1_2  and  C2_3 
REMARK    2  A    between atoms: C6_9  and  N3_10 
REMARK    3  A    between atoms: N3_10  and  C8_12 
REMARK    4  A    between atoms: C14_19  and  O2_20 
ROOT
HETATM    1  C2  UNL     1      25.955  -0.355  53.692  1.00  0.00     0.103 A 
HETATM    2  C3  UNL     1      24.917  -0.833  54.482  1.00  0.00     0.072 A 
HETATM    3  C4  UNL     1      23.591  -0.557  54.151  1.00  0.00     0.075 A 
HETATM    4  N1  UNL     1      22.538  -0.980  54.857  1.00  0.00    -0.241 NA
HETATM    5  C5  UNL     1      21.275  -0.660  54.456  1.00  0.00     0.236 A 
HETATM    6  N2  UNL     1      21.081   0.093  53.334  1.00  0.00    -0.223 NA
HETATM    7  C6  UNL     1      22.133   0.529  52.608  1.00  0.00     0.144 A 
HETATM    8  C12 UNL     1      23.387   0.203  53.017  1.00  0.00     0.042 A 
HETATM    9  C13 UNL     1      24.404   0.692  52.215  1.00  0.00     0.057 A 
HETATM   10  C14 UNL     1      25.719   0.408  52.557  1.00  0.00     0.102 A 
ENDROOT
BRANCH   7  11
HETATM   11  N3  UNL     1      21.723   1.290  51.489  1.00  0.00    -0.335 N 
HETATM   12  C7  UNL     1      20.965   0.595  50.470  1.00  0.00     0.158 C 
BRANCH  11  13
HETATM   13  C8  UNL     1      22.043   2.664  51.381  1.00  0.00     0.042 A 
HETATM   14  C9  UNL     1      22.711   3.185  50.162  1.00  0.00     0.079 A 
HETATM   15  S1  UNL     1      22.906   4.954  50.490  1.00  0.00    -0.111 SA
HETATM   16  C10 UNL     1      22.115   4.913  52.178  1.00  0.00     0.052 A 
HETATM   17  C11 UNL     1      21.764   3.564  52.363  1.00  0.00     0.037 A 
ENDBRANCH  11  13
ENDBRANCH   7  11
BRANCH  10  18
HETATM   18  O2  UNL     1      26.808   0.850  51.818  1.00  0.00    -0.353 OA
HETATM   19  C15 UNL     1      26.827   2.222  51.397  1.00  0.00     0.210 C 
ENDBRANCH  10  18
BRANCH   1  20
HETATM   20  O1  UNL     1      27.257  -0.644  54.042  1.00  0.00    -0.353 OA
HETATM   21  C1  UNL     1      27.975   0.236  54.890  1.00  0.00     0.210 C 
ENDBRANCH   1  20
TORSDOF 4
ENDMDL
MODEL 4
REMARK VINA RESULT:      -6.3      2.426      4.030
REMARK  4 active torsions:
REMARK  status: ('A' for Active; 'I' for Inactive)
REMARK    1  A    between atoms: O1_2  and  C2_3 
REMARK    2  A    between atoms: C6_9  and  N3_10 
REMARK    3  A    between atoms: N3_10  and  C8_12 
REMARK    4  A    between atoms: C14_19  and  O2_20 
ROOT
HETATM    1  C2  UNL     1      26.938   1.570  52.428  1.00  0.00     0.103 A 
HETATM    2  C3  UNL     1      26.208   0.709  53.237  1.00  0.00     0.072 A 
HETATM    3  C4  UNL     1      24.841   0.532  53.030  1.00  0.00     0.075 A 
HETATM    4  N1  UNL     1      24.069  -0.277  53.762  1.00  0.00    -0.241 NA
HETATM    5  C5  UNL     1      22.739  -0.386  53.485  1.00  0.00     0.236 A 
HETATM    6  N2  UNL     1      22.191   0.331  52.461  1.00  0.00    -0.223 NA
HETATM    7  C6  UNL     1      22.954   1.153  51.710  1.00  0.00     0.144 A 
HETATM    8  C12 UNL     1      24.279   1.253  51.995  1.00  0.00     0.042 A 
HETATM    9  C13 UNL     1      24.985   2.117  51.177  1.00  0.00     0.057 A 
HETATM   10  C14 UNL     1      26.346   2.282  51.395  1.00  0.00     0.102 A 
ENDROOT
BRANCH   7  11
HETATM   11  N3  UNL     1      22.201   1.802  50.705  1.00  0.00    -0.335 N 
HETATM   12  C7  UNL     1      21.547   0.954  49.731  1.00  0.00     0.158 C 
BRANCH  11  13
HETATM   13  C8  UNL     1      22.098   3.212  50.662  1.00  0.00     0.042 A 
HETATM   14  C9  UNL     1      22.339   3.944  49.394  1.00  0.00     0.079 A 
HETATM   15  S1  UNL     1      22.095   5.682  49.837  1.00  0.00    -0.111 SA
HETATM   16  C10 UNL     1      21.697   5.358  51.629  1.00  0.00     0.052 A 
HETATM   17  C11 UNL     1      21.780   3.960  51.754  1.00  0.00     0.037 A 
ENDBRANCH  11  13
ENDBRANCH   7  11
BRANCH  10  18
HETATM   18  O2  UNL     1      27.141   3.124  50.629  1.00  0.00    -0.353 OA
HETATM   19  C15 UNL     1      26.506   3.911  49.610  1.00  0.00     0.210 C 
ENDBRANCH  10  18
BRANCH   1  20
HETATM   20  O1  UNL     1      28.290   1.726  52.655  1.00  0.00    -0.353 OA
HETATM   21  C1  UNL     1      28.740   2.468  53.776  1.00  0.00     0.210 C 
ENDBRANCH   1  20
TORSDOF 4
ENDMDL
MODEL 5
REMARK VINA RESULT:      -6.2      1.953      3.289
REMARK  4 active torsions:
REMARK  status: ('A' for Active; 'I' for Inactive)
REMARK    1  A    between atoms: O1_2  and  C2_3 
REMARK    2  A    between atoms: C6_9  and  N3_10 
REMARK    3  A    between atoms: N3_10  and  C8_12 
REMARK    4  A    between atoms: C14_19  and  O2_20 
ROOT
HETATM    1  C2  UNL     1      25.689  -0.284  53.251  1.00  0.00     0.103 A 
HETATM    2  C3  UNL     1      24.406  -0.667  53.619  1.00  0.00     0.072 A 
HETATM    3  C4  UNL     1      23.312   0.144  53.322  1.00  0.00     0.075 A 
HETATM    4  N1  UNL     1      22.049  -0.153  53.641  1.00  0.00    -0.241 NA
HETATM    5  C5  UNL     1      21.041   0.703  53.309  1.00  0.00     0.236 A 
HETATM    6  N2  UNL     1      21.320   1.867  52.650  1.00  0.00    -0.223 NA
HETATM    7  C6  UNL     1      22.590   2.184  52.320  1.00  0.00     0.144 A 
HETATM    8  C12 UNL     1      23.585   1.322  52.656  1.00  0.00     0.042 A 
HETATM    9  C13 UNL     1      24.854   1.726  52.279  1.00  0.00     0.057 A 
HETATM   10  C14 UNL     1      25.934   0.907  52.582  1.00  0.00     0.102 A 
ENDROOT
BRANCH   7  11
HETATM   11  N3  UNL     1      22.666   3.425  51.647  1.00  0.00    -0.335 N 
HETATM   12  C7  UNL     1      23.071   4.570  52.435  1.00  0.00     0.158 C 
BRANCH  11  13
HETATM   13  C8  UNL     1      22.358   3.532  50.270  1.00  0.00     0.042 A 
HETATM   14  C9  UNL     1      21.438   4.592  49.787  1.00  0.00     0.079 A 
HETATM   15  S1  UNL     1      21.361   4.324  47.998  1.00  0.00    -0.111 SA
HETATM   16  C10 UNL     1      22.518   2.863  47.984  1.00  0.00     0.052 A 
HETATM   17  C11 UNL     1      22.874   2.690  49.334  1.00  0.00     0.037 A 
ENDBRANCH  11  13
ENDBRANCH   7  11
BRANCH  10  18
HETATM   18  O2  UNL     1      27.243   1.222  52.247  1.00  0.00    -0.353 OA
HETATM   19  C15 UNL     1      27.957   2.134  53.095  1.00  0.00     0.210 C 
ENDBRANCH  10  18
BRANCH   1  20
HETATM   20  O1  UNL     1      26.753  -1.106  53.557  1.00  0.00    -0.353 OA
HETATM   21  C1  UNL     1      27.117  -2.155  52.676  1.00  0.00     0.210 C 
ENDBRANCH   1  20
TORSDOF 4
ENDMDL
MODEL 6
REMARK VINA RESULT:      -5.9      1.852      2.484
REMARK  4 active torsions:
REMARK  status: ('A' for Active; 'I' for Inactive)
REMARK    1  A    between atoms: O1_2  and  C2_3 
REMARK    2  A    between atoms: C6_9  and  N3_10 
REMARK    3  A    between atoms: N3_10  and  C8_12 
REMARK    4  A    between atoms: C14_19  and  O2_20 
ROOT
HETATM    1  C2  UNL     1      23.291  -0.204  53.646  1.00  0.00     0.103 A 
HETATM    2  C3  UNL     1      24.637  -0.121  53.314  1.00  0.00     0.072 A 
HETATM    3  C4  UNL     1      25.109   0.929  52.528  1.00  0.00     0.075 A 
HETATM    4  N1  UNL     1      26.386   1.081  52.166  1.00  0.00    -0.241 NA
HETATM    5  C5  UNL     1      26.755   2.142  51.394  1.00  0.00     0.236 A 
HETATM    6  N2  UNL     1      25.822   3.051  50.986  1.00  0.00    -0.223 NA
HETATM    7  C6  UNL     1      24.526   2.914  51.341  1.00  0.00     0.144 A 
HETATM    8  C12 UNL     1      24.171   1.853  52.112  1.00  0.00     0.042 A 
HETATM    9  C13 UNL     1      22.825   1.791  52.428  1.00  0.00     0.057 A 
HETATM   10  C14 UNL     1      22.371   0.739  53.213  1.00  0.00     0.102 A 
ENDROOT
BRANCH   7  11
HETATM   11  N3  UNL     1      23.723   3.954  50.819  1.00  0.00    -0.335 N 
HETATM   12  C7  UNL     1      23.819   5.242  51.473  1.00  0.00     0.158 C 
BRANCH  11  13
HETATM   13  C8  UNL     1      22.870   3.736  49.712  1.00  0.00     0.042 A 
HETATM   14  C9  UNL     1      21.587   4.472  49.597  1.00  0.00     0.079 A 
HETATM   15  S1  UNL     1      20.870   3.865  48.049  1.00  0.00    -0.111 SA
HETATM   16  C10 UNL     1      22.268   2.700  47.647  1.00  0.00     0.052 A 
HETATM   17  C11 UNL     1      23.170   2.861  48.714  1.00  0.00     0.037 A 
ENDBRANCH  11  13
ENDBRANCH   7  11
BRANCH  10  18
HETATM   18  O2  UNL     1      21.042   0.589  53.584  1.00  0.00    -0.353 OA
HETATM   19  C15 UNL     1      20.029   1.039  52.671  1.00  0.00     0.210 C 
ENDBRANCH  10  18
BRANCH   1  20
HETATM   20  O1  UNL     1      22.852  -1.254  54.425  1.00  0.00    -0.353 OA
HETATM   21  C1  UNL     1      23.419  -1.473  55.705  1.00  0.00     0.210 C 
ENDBRANCH   1  20
TORSDOF 4
ENDMDL
MODEL 7
REMARK VINA RESULT:      -5.7      2.555      3.674
REMARK  4 active torsions:
REMARK  status: ('A' for Active; 'I' for Inactive)
REMARK    1  A    between atoms: O1_2  and  C2_3 
REMARK    2  A    between atoms: C6_9  and  N3_10 
REMARK    3  A    between atoms: N3_10  and  C8_12 
REMARK    4  A    between atoms: C14_19  and  O2_20 
ROOT
HETATM    1  C2  UNL     1      22.659   0.225  53.479  1.00  0.00     0.103 A 
HETATM    2  C3  UNL     1      24.042   0.248  53.354  1.00  0.00     0.072 A 
HETATM    3  C4  UNL     1      24.657   1.093  52.432  1.00  0.00     0.075 A 
HETATM    4  N1  UNL     1      25.978   1.174  52.252  1.00  0.00    -0.241 NA
HETATM    5  C5  UNL     1      26.489   2.032  51.323  1.00  0.00     0.236 A 
HETATM    6  N2  UNL     1      25.653   2.810  50.575  1.00  0.00    -0.223 NA
HETATM    7  C6  UNL     1      24.315   2.742  50.742  1.00  0.00     0.144 A 
HETATM    8  C12 UNL     1      23.818   1.883  51.671  1.00  0.00     0.042 A 
HETATM    9  C13 UNL     1      22.438   1.878  51.776  1.00  0.00     0.057 A 
HETATM   10  C14 UNL     1      21.841   1.031  52.700  1.00  0.00     0.102 A 
ENDROOT
BRANCH   7  11
HETATM   11  N3  UNL     1      23.629   3.622  49.875  1.00  0.00    -0.335 N 
HETATM   12  C7  UNL     1      23.188   3.076  48.608  1.00  0.00     0.158 C 
BRANCH  11  13
HETATM   13  C8  UNL     1      23.391   4.969  50.236  1.00  0.00     0.042 A 
HETATM   14  C9  UNL     1      24.508   5.944  50.274  1.00  0.00     0.079 A 
HETATM   15  S1  UNL     1      23.721   7.495  50.778  1.00  0.00    -0.111 SA
HETATM   16  C10 UNL     1      22.000   6.789  50.908  1.00  0.00     0.052 A 
HETATM   17  C11 UNL     1      22.154   5.435  50.560  1.00  0.00     0.037 A 
ENDBRANCH  11  13
ENDBRANCH   7  11
BRANCH  10  18
HETATM   18  O2  UNL     1      20.467   0.952  52.881  1.00  0.00    -0.353 OA
HETATM   19  C15 UNL     1      19.694   0.252  51.895  1.00  0.00     0.210 C 
ENDBRANCH  10  18
BRANCH   1  20
HETATM   20  O1  UNL     1      22.078  -0.621  54.400  1.00  0.00    -0.353 OA
HETATM   21  C1  UNL     1      22.891  -1.365  55.292  1.00  0.00     0.210 C 
ENDBRANCH   1  20
TORSDOF 4
ENDMDL
MODEL 8
REMARK VINA RESULT:      -5.5      7.039      9.486
REMARK  4 active torsions:
REMARK  status: ('A' for Active; 'I' for Inactive)
REMARK    1  A    between atoms: O1_2  and  C2_3 
REMARK    2  A    between atoms: C6_9  and  N3_10 
REMARK    3  A    between atoms: N3_10  and  C8_12 
REMARK    4  A    between atoms: C14_19  and  O2_20 
ROOT
HETATM    1  C2  UNL     1      26.628   5.553  48.673  1.00  0.00     0.103 A 
HETATM    2  C3  UNL     1      27.874   4.941  48.642  1.00  0.00     0.072 A 
HETATM    3  C4  UNL     1      28.980   5.612  48.123  1.00  0.00     0.075 A 
HETATM    4  N1  UNL     1      30.210   5.095  48.058  1.00  0.00    -0.241 NA
HETATM    5  C5  UNL     1      31.233   5.828  47.533  1.00  0.00     0.236 A 
HETATM    6  N2  UNL     1      31.003   7.092  47.071  1.00  0.00    -0.223 NA
HETATM    7  C6  UNL     1      29.767   7.632  47.128  1.00  0.00     0.144 A 
HETATM    8  C12 UNL     1      28.756   6.891  47.654  1.00  0.00     0.042 A 
HETATM    9  C13 UNL     1      27.525   7.522  47.672  1.00  0.00     0.057 A 
HETATM   10  C14 UNL     1      26.433   6.840  48.193  1.00  0.00     0.102 A 
ENDROOT
BRANCH   7  11
HETATM   11  N3  UNL     1      29.739   8.943  46.600  1.00  0.00    -0.335 N 
HETATM   12  C7  UNL     1      29.693   9.064  45.158  1.00  0.00     0.158 C 
BRANCH  11  13
HETATM   13  C8  UNL     1      29.757  10.074  47.448  1.00  0.00     0.042 A 
HETATM   14  C9  UNL     1      28.660  11.073  47.391  1.00  0.00     0.079 A 
HETATM   15  S1  UNL     1      29.122  12.305  48.635  1.00  0.00    -0.111 SA
HETATM   16  C10 UNL     1      30.699  11.457  49.152  1.00  0.00     0.052 A 
HETATM   17  C11 UNL     1      30.755  10.307  48.343  1.00  0.00     0.037 A 
ENDBRANCH  11  13
ENDBRANCH   7  11
BRANCH  10  18
HETATM   18  O2  UNL     1      25.158   7.385  48.257  1.00  0.00    -0.353 OA
HETATM   19  C15 UNL     1      24.501   7.715  47.024  1.00  0.00     0.210 C 
ENDBRANCH  10  18
BRANCH   1  20
HETATM   20  O1  UNL     1      25.551   4.865  49.192  1.00  0.00    -0.353 OA
HETATM   21  C1  UNL     1      25.740   3.589  49.779  1.00  0.00     0.210 C 
ENDBRANCH   1  20
TORSDOF 4
ENDMDL
MODEL 9
REMARK VINA RESULT:      -5.5      4.012      5.612
REMARK  4 active torsions:
REMARK  status: ('A' for Active; 'I' for Inactive)
REMARK    1  A    between atoms: O1_2  and  C2_3 
REMARK    2  A    between atoms: C6_9  and  N3_10 
REMARK    3  A    between atoms: N3_10  and  C8_12 
REMARK    4  A    between atoms: C14_19  and  O2_20 
ROOT
HETATM    1  C2  UNL     1      20.805  -0.646  53.960  1.00  0.00     0.103 A 
HETATM    2  C3  UNL     1      21.507   0.512  53.648  1.00  0.00     0.072 A 
HETATM    3  C4  UNL     1      20.947   1.475  52.811  1.00  0.00     0.075 A 
HETATM    4  N1  UNL     1      21.555   2.613  52.464  1.00  0.00    -0.241 NA
HETATM    5  C5  UNL     1      20.928   3.498  51.638  1.00  0.00     0.236 A 
HETATM    6  N2  UNL     1      19.677   3.225  51.163  1.00  0.00    -0.223 NA
HETATM    7  C6  UNL     1      19.046   2.080  51.503  1.00  0.00     0.144 A 
HETATM    8  C12 UNL     1      19.682   1.206  52.327  1.00  0.00     0.042 A 
HETATM    9  C13 UNL     1      18.963   0.061  52.622  1.00  0.00     0.057 A 
HETATM   10  C14 UNL     1      19.535  -0.889  53.458  1.00  0.00     0.102 A 
ENDROOT
BRANCH   7  11
HETATM   11  N3  UNL     1      17.767   1.986  50.908  1.00  0.00    -0.335 N 
HETATM   12  C7  UNL     1      17.715   1.486  49.550  1.00  0.00     0.158 C 
BRANCH  11  13
HETATM   13  C8  UNL     1      16.602   2.366  51.614  1.00  0.00     0.042 A 
HETATM   14  C9  UNL     1      16.370   3.787  51.971  1.00  0.00     0.079 A 
HETATM   15  S1  UNL     1      14.785   3.768  52.845  1.00  0.00    -0.111 SA
HETATM   16  C10 UNL     1      14.519   1.929  52.696  1.00  0.00     0.052 A 
HETATM   17  C11 UNL     1      15.650   1.472  51.997  1.00  0.00     0.037 A 
ENDBRANCH  11  13
ENDBRANCH   7  11
BRANCH  10  18
HETATM   18  O2  UNL     1      18.896  -2.069  53.814  1.00  0.00    -0.353 OA
HETATM   19  C15 UNL     1      17.543  -2.265  53.375  1.00  0.00     0.210 C 
ENDBRANCH  10  18
BRANCH   1  20
HETATM   20  O1  UNL     1      21.383  -1.582  54.791  1.00  0.00    -0.353 OA
HETATM   21  C1  UNL     1      22.719  -1.412  55.231  1.00  0.00     0.210 C 
ENDBRANCH   1  20
TORSDOF 4
ENDMDL
