MODEL 1
REMARK VINA RESULT:      -7.4      0.000      0.000
REMARK  10 active torsions:
REMARK  status: ('A' for Active; 'I' for Inactive)
REMARK    1  A    between atoms: O1_2  and  O2_3 
REMARK    2  A    between atoms: O2_3  and  C2_4 
REMARK    3  A    between atoms: C2_4  and  C3_5 
REMARK    4  A    between atoms: C2_4  and  C4_7 
REMARK    5  A    between atoms: C3_5  and  O3_6 
REMARK    6  A    between atoms: C4_7  and  N1_8 
REMARK    7  A    between atoms: N1_8  and  C5_9 
REMARK    8  A    between atoms: C8_12  and  C9_13 
REMARK    9  A    between atoms: C9_13  and  C10_14 
REMARK   10  A    between atoms: C16_21  and  O4_22 
ROOT
HETATM    1  C5  UNL     1      24.874   1.150  53.077  1.00  0.00     0.061 A 
HETATM    2  C6  UNL     1      23.783   0.206  53.477  1.00  0.00     0.047 C 
HETATM    3  C7  UNL     1      24.822   1.324  51.564  1.00  0.00     0.017 A 
HETATM    4  C8  UNL     1      24.421   2.528  51.166  1.00  0.00    -0.022 A 
HETATM    5  C16 UNL     1      24.163   3.288  52.382  1.00  0.00     0.073 A 
HETATM    6  C18 UNL     1      24.412   2.528  53.452  1.00  0.00     0.044 A 
ENDROOT
BRANCH   1   7
HETATM    7  N1  UNL     1      26.195   0.874  53.391  1.00  0.00    -0.404 N 
HETATM    8  H10 UNL     1      26.913   1.115  52.668  1.00  0.00     0.154 HD
BRANCH   7   9
HETATM    9  C4  UNL     1      26.647   0.378  54.594  1.00  0.00     0.152 C 
BRANCH   9  10
HETATM   10  C2  UNL     1      28.168   0.489  54.747  1.00  0.00     0.201 C 
BRANCH  10  11
HETATM   11  O2  UNL     1      28.767  -0.698  54.411  1.00  0.00    -0.232 OA
BRANCH  11  12
HETATM   12  O1  UNL     1      28.207  -1.505  53.618  1.00  0.00    -0.246 OA
HETATM   13  C1  UNL     1      29.030  -2.495  53.162  1.00  0.00     0.247 C 
ENDBRANCH  11  12
ENDBRANCH  10  11
BRANCH  10  14
HETATM   14  C3  UNL     1      28.681   1.558  53.782  1.00  0.00     0.200 C 
BRANCH  14  15
HETATM   15  O3  UNL     1      28.149   2.812  54.060  1.00  0.00    -0.398 OA
HETATM   16  H7  UNL     1      27.338   3.036  53.575  1.00  0.00     0.209 HD
ENDBRANCH  14  15
ENDBRANCH  10  14
ENDBRANCH   9  10
ENDBRANCH   7   9
ENDBRANCH   1   7
BRANCH   4  17
HETATM   17  C9  UNL     1      24.286   2.950  49.763  1.00  0.00     0.079 C 
BRANCH  17  18
HETATM   18  C10 UNL     1      25.271   3.983  49.353  1.00  0.00    -0.054 A 
HETATM   19  C11 UNL     1      24.875   5.268  49.050  1.00  0.00     0.009 A 
HETATM   20  C12 UNL     1      25.772   6.222  48.673  1.00  0.00     0.024 A 
HETATM   21  C13 UNL     1      27.108   5.919  48.587  1.00  0.00     0.034 A 
HETATM   22 CL1  UNL     1      28.274   7.139  48.102  1.00  0.00    -0.084 Cl
HETATM   23  C14 UNL     1      27.483   4.627  48.893  1.00  0.00     0.024 A 
HETATM   24  C15 UNL     1      26.599   3.633  49.279  1.00  0.00     0.009 A 
ENDBRANCH  17  18
ENDBRANCH   4  17
BRANCH   5  25
HETATM   25  O4  UNL     1      23.722   4.606  52.444  1.00  0.00    -0.356 OA
HETATM   26  C17 UNL     1      22.380   4.972  52.203  1.00  0.00     0.210 C 
ENDBRANCH   5  25
TORSDOF 10
ENDMDL
MODEL 2
REMARK VINA RESULT:      -7.2      1.102      1.908
REMARK  10 active torsions:
REMARK  status: ('A' for Active; 'I' for Inactive)
REMARK    1  A    between atoms: O1_2  and  O2_3 
REMARK    2  A    between atoms: O2_3  and  C2_4 
REMARK    3  A    between atoms: C2_4  and  C3_5 
REMARK    4  A    between atoms: C2_4  and  C4_7 
REMARK    5  A    between atoms: C3_5  and  O3_6 
REMARK    6  A    between atoms: C4_7  and  N1_8 
REMARK    7  A    between atoms: N1_8  and  C5_9 
REMARK    8  A    between atoms: C8_12  and  C9_13 
REMARK    9  A    between atoms: C9_13  and  C10_14 
REMARK   10  A    between atoms: C16_21  and  O4_22 
ROOT
HETATM    1  C5  UNL     1      24.188   0.975  52.942  1.00  0.00     0.061 A 
HETATM    2  C6  UNL     1      22.947   0.231  53.329  1.00  0.00     0.047 C 
HETATM    3  C7  UNL     1      24.150   1.212  51.438  1.00  0.00     0.017 A 
HETATM    4  C8  UNL     1      23.970   2.483  51.088  1.00  0.00    -0.022 A 
HETATM    5  C16 UNL     1      23.869   3.231  52.334  1.00  0.00     0.073 A 
HETATM    6  C18 UNL     1      23.989   2.399  53.373  1.00  0.00     0.044 A 
ENDROOT
BRANCH   1   7
HETATM    7  N1  UNL     1      25.439   0.452  53.222  1.00  0.00    -0.404 N 
HETATM    8  H10 UNL     1      25.712   0.394  54.231  1.00  0.00     0.154 HD
BRANCH   7   9
HETATM    9  C4  UNL     1      26.321  -0.060  52.295  1.00  0.00     0.152 C 
BRANCH   9  10
HETATM   10  C2  UNL     1      27.401  -0.943  52.929  1.00  0.00     0.201 C 
BRANCH  10  11
HETATM   11  O2  UNL     1      27.291  -0.921  54.295  1.00  0.00    -0.232 OA
BRANCH  11  12
HETATM   12  O1  UNL     1      28.021  -0.162  54.991  1.00  0.00    -0.246 OA
HETATM   13  C1  UNL     1      29.196   0.183  54.385  1.00  0.00     0.247 C 
ENDBRANCH  11  12
ENDBRANCH  10  11
BRANCH  10  14
HETATM   14  C3  UNL     1      27.187  -2.385  52.469  1.00  0.00     0.200 C 
BRANCH  14  15
HETATM   15  O3  UNL     1      28.243  -3.212  52.831  1.00  0.00    -0.398 OA
HETATM   16  H7  UNL     1      28.332  -3.379  53.784  1.00  0.00     0.209 HD
ENDBRANCH  14  15
ENDBRANCH  10  14
ENDBRANCH   9  10
ENDBRANCH   7   9
ENDBRANCH   1   7
BRANCH   4  17
HETATM   17  C9  UNL     1      23.898   2.974  49.703  1.00  0.00     0.079 C 
BRANCH  17  18
HETATM   18  C10 UNL     1      24.987   3.919  49.348  1.00  0.00    -0.054 A 
HETATM   19  C11 UNL     1      24.716   5.227  49.005  1.00  0.00     0.009 A 
HETATM   20  C12 UNL     1      25.708   6.100  48.677  1.00  0.00     0.024 A 
HETATM   21  C13 UNL     1      27.019   5.691  48.683  1.00  0.00     0.034 A 
HETATM   22 CL1  UNL     1      28.307   6.808  48.262  1.00  0.00    -0.084 Cl
HETATM   23  C14 UNL     1      27.269   4.379  49.027  1.00  0.00     0.024 A 
HETATM   24  C15 UNL     1      26.285   3.464  49.365  1.00  0.00     0.009 A 
ENDBRANCH  17  18
ENDBRANCH   4  17
BRANCH   5  25
HETATM   25  O4  UNL     1      23.677   4.604  52.450  1.00  0.00    -0.356 OA
HETATM   26  C17 UNL     1      22.461   5.234  52.108  1.00  0.00     0.210 C 
ENDBRANCH   5  25
TORSDOF 10
ENDMDL
MODEL 3
REMARK VINA RESULT:      -7.2      3.167      5.964
REMARK  10 active torsions:
REMARK  status: ('A' for Active; 'I' for Inactive)
REMARK    1  A    between atoms: O1_2  and  O2_3 
REMARK    2  A    between atoms: O2_3  and  C2_4 
REMARK    3  A    between atoms: C2_4  and  C3_5 
REMARK    4  A    between atoms: C2_4  and  C4_7 
REMARK    5  A    between atoms: C3_5  and  O3_6 
REMARK    6  A    between atoms: C4_7  and  N1_8 
REMARK    7  A    between atoms: N1_8  and  C5_9 
REMARK    8  A    between atoms: C8_12  and  C9_13 
REMARK    9  A    between atoms: C9_13  and  C10_14 
REMARK   10  A    between atoms: C16_21  and  O4_22 
ROOT
HETATM    1  C5  UNL     1      23.688   3.723  51.969  1.00  0.00     0.061 A 
HETATM    2  C6  UNL     1      22.821   4.693  52.711  1.00  0.00     0.047 C 
HETATM    3  C7  UNL     1      24.223   2.704  52.968  1.00  0.00     0.017 A 
HETATM    4  C8  UNL     1      23.720   1.481  52.824  1.00  0.00    -0.022 A 
HETATM    5  C16 UNL     1      22.790   1.558  51.705  1.00  0.00     0.073 A 
HETATM    6  C18 UNL     1      22.765   2.804  51.222  1.00  0.00     0.044 A 
ENDROOT
BRANCH   1   7
HETATM    7  N1  UNL     1      24.780   4.166  51.243  1.00  0.00    -0.404 N 
HETATM    8  H10 UNL     1      25.510   4.703  51.767  1.00  0.00     0.154 HD
BRANCH   7   9
HETATM    9  C4  UNL     1      25.020   3.900  49.912  1.00  0.00     0.152 C 
BRANCH   9  10
HETATM   10  C2  UNL     1      26.395   3.266  49.673  1.00  0.00     0.201 C 
BRANCH  10  11
HETATM   11  O2  UNL     1      27.371   4.229  49.681  1.00  0.00    -0.232 OA
BRANCH  11  12
HETATM   12  O1  UNL     1      27.978   4.543  48.619  1.00  0.00    -0.246 OA
HETATM   13  C1  UNL     1      27.933   5.878  48.330  1.00  0.00     0.247 C 
ENDBRANCH  11  12
ENDBRANCH  10  11
BRANCH  10  14
HETATM   14  C3  UNL     1      26.692   2.294  50.815  1.00  0.00     0.200 C 
BRANCH  14  15
HETATM   15  O3  UNL     1      27.527   2.854  51.774  1.00  0.00    -0.398 OA
HETATM   16  H7  UNL     1      27.273   2.683  52.696  1.00  0.00     0.209 HD
ENDBRANCH  14  15
ENDBRANCH  10  14
ENDBRANCH   9  10
ENDBRANCH   7   9
ENDBRANCH   1   7
BRANCH   4  17
HETATM   17  C9  UNL     1      24.073   0.321  53.658  1.00  0.00     0.079 C 
BRANCH  17  18
HETATM   18  C10 UNL     1      25.523   0.005  53.657  1.00  0.00    -0.054 A 
HETATM   19  C11 UNL     1      26.074  -0.822  52.701  1.00  0.00     0.009 A 
HETATM   20  C12 UNL     1      27.404  -1.118  52.693  1.00  0.00     0.024 A 
HETATM   21  C13 UNL     1      28.235  -0.591  53.650  1.00  0.00     0.034 A 
HETATM   22 CL1  UNL     1      29.951  -0.965  53.649  1.00  0.00    -0.084 Cl
HETATM   23  C14 UNL     1      27.665   0.232  54.598  1.00  0.00     0.024 A 
HETATM   24  C15 UNL     1      26.318   0.554  54.636  1.00  0.00     0.009 A 
ENDBRANCH  17  18
ENDBRANCH   4  17
BRANCH   5  25
HETATM   25  O4  UNL     1      22.032   0.508  51.199  1.00  0.00    -0.356 OA
HETATM   26  C17 UNL     1      20.699   0.269  51.598  1.00  0.00     0.210 C 
ENDBRANCH   5  25
TORSDOF 10
ENDMDL
MODEL 4
REMARK VINA RESULT:      -7.0      3.400      6.587
REMARK  10 active torsions:
REMARK  status: ('A' for Active; 'I' for Inactive)
REMARK    1  A    between atoms: O1_2  and  O2_3 
REMARK    2  A    between atoms: O2_3  and  C2_4 
REMARK    3  A    between atoms: C2_4  and  C3_5 
REMARK    4  A    between atoms: C2_4  and  C4_7 
REMARK    5  A    between atoms: C3_5  and  O3_6 
REMARK    6  A    between atoms: C4_7  and  N1_8 
REMARK    7  A    between atoms: N1_8  and  C5_9 
REMARK    8  A    between atoms: C8_12  and  C9_13 
REMARK    9  A    between atoms: C9_13  and  C10_14 
REMARK   10  A    between atoms: C16_21  and  O4_22 
ROOT
HETATM    1  C5  UNL     1      24.007   3.802  51.902  1.00  0.00     0.061 A 
HETATM    2  C6  UNL     1      23.204   4.803  52.674  1.00  0.00     0.047 C 
HETATM    3  C7  UNL     1      24.495   2.734  52.872  1.00  0.00     0.017 A 
HETATM    4  C8  UNL     1      23.925   1.544  52.710  1.00  0.00    -0.022 A 
HETATM    5  C16 UNL     1      22.988   1.696  51.604  1.00  0.00     0.073 A 
HETATM    6  C18 UNL     1      23.027   2.952  51.147  1.00  0.00     0.044 A 
ENDROOT
BRANCH   1   7
HETATM    7  N1  UNL     1      25.114   4.199  51.172  1.00  0.00    -0.404 N 
HETATM    8  H10 UNL     1      25.896   4.647  51.705  1.00  0.00     0.154 HD
BRANCH   7   9
HETATM    9  C4  UNL     1      25.302   3.994  49.822  1.00  0.00     0.152 C 
BRANCH   9  10
HETATM   10  C2  UNL     1      25.576   5.293  49.057  1.00  0.00     0.201 C 
BRANCH  10  11
HETATM   11  O2  UNL     1      25.299   6.378  49.848  1.00  0.00    -0.232 OA
BRANCH  11  12
HETATM   12  O1  UNL     1      24.137   6.869  49.889  1.00  0.00    -0.246 OA
HETATM   13  C1  UNL     1      24.009   7.916  50.758  1.00  0.00     0.247 C 
ENDBRANCH  11  12
ENDBRANCH  10  11
BRANCH  10  14
HETATM   14  C3  UNL     1      27.060   5.346  48.696  1.00  0.00     0.200 C 
BRANCH  14  15
HETATM   15  O3  UNL     1      27.837   4.592  49.568  1.00  0.00    -0.398 OA
HETATM   16  H7  UNL     1      28.784   4.555  49.354  1.00  0.00     0.209 HD
ENDBRANCH  14  15
ENDBRANCH  10  14
ENDBRANCH   9  10
ENDBRANCH   7   9
ENDBRANCH   1   7
BRANCH   4  17
HETATM   17  C9  UNL     1      24.222   0.349  53.515  1.00  0.00     0.079 C 
BRANCH  17  18
HETATM   18  C10 UNL     1      25.668   0.022  53.587  1.00  0.00    -0.054 A 
HETATM   19  C11 UNL     1      26.296  -0.671  52.574  1.00  0.00     0.009 A 
HETATM   20  C12 UNL     1      27.622  -0.975  52.632  1.00  0.00     0.024 A 
HETATM   21  C13 UNL     1      28.373  -0.592  53.715  1.00  0.00     0.034 A 
HETATM   22 CL1  UNL     1      30.084  -0.978  53.801  1.00  0.00    -0.084 Cl
HETATM   23  C14 UNL     1      27.726   0.100  54.718  1.00  0.00     0.024 A 
HETATM   24  C15 UNL     1      26.380   0.426  54.692  1.00  0.00     0.009 A 
ENDBRANCH  17  18
ENDBRANCH   4  17
BRANCH   5  25
HETATM   25  O4  UNL     1      22.167   0.700  51.085  1.00  0.00    -0.356 OA
HETATM   26  C17 UNL     1      20.925   0.360  51.662  1.00  0.00     0.210 C 
ENDBRANCH   5  25
TORSDOF 10
ENDMDL
MODEL 5
REMARK VINA RESULT:      -6.9      3.032      3.752
REMARK  10 active torsions:
REMARK  status: ('A' for Active; 'I' for Inactive)
REMARK    1  A    between atoms: O1_2  and  O2_3 
REMARK    2  A    between atoms: O2_3  and  C2_4 
REMARK    3  A    between atoms: C2_4  and  C3_5 
REMARK    4  A    between atoms: C2_4  and  C4_7 
REMARK    5  A    between atoms: C3_5  and  O3_6 
REMARK    6  A    between atoms: C4_7  and  N1_8 
REMARK    7  A    between atoms: N1_8  and  C5_9 
REMARK    8  A    between atoms: C8_12  and  C9_13 
REMARK    9  A    between atoms: C9_13  and  C10_14 
REMARK   10  A    between atoms: C16_21  and  O4_22 
ROOT
HETATM    1  C5  UNL     1      25.799   0.489  52.938  1.00  0.00     0.061 A 
HETATM    2  C6  UNL     1      26.534   0.030  51.717  1.00  0.00     0.047 C 
HETATM    3  C7  UNL     1      24.792   1.551  52.516  1.00  0.00     0.017 A 
HETATM    4  C8  UNL     1      23.522   1.165  52.599  1.00  0.00    -0.022 A 
HETATM    5  C16 UNL     1      23.551  -0.207  53.089  1.00  0.00     0.073 A 
HETATM    6  C18 UNL     1      24.816  -0.593  53.281  1.00  0.00     0.044 A 
ENDROOT
BRANCH   1   7
HETATM    7  N1  UNL     1      26.487   1.013  54.019  1.00  0.00    -0.404 N 
HETATM    8  H10 UNL     1      26.479   2.054  54.125  1.00  0.00     0.154 HD
BRANCH   7   9
HETATM    9  C4  UNL     1      27.118   0.280  55.001  1.00  0.00     0.152 C 
BRANCH   9  10
HETATM   10  C2  UNL     1      28.646   0.322  54.883  1.00  0.00     0.201 C 
BRANCH  10  11
HETATM   11  O2  UNL     1      29.102  -0.787  54.217  1.00  0.00    -0.232 OA
BRANCH  11  12
HETATM   12  O1  UNL     1      28.299  -1.671  53.807  1.00  0.00    -0.246 OA
HETATM   13  C1  UNL     1      28.902  -2.701  53.142  1.00  0.00     0.247 C 
ENDBRANCH  11  12
ENDBRANCH  10  11
BRANCH  10  14
HETATM   14  C3  UNL     1      29.040   1.551  54.064  1.00  0.00     0.200 C 
BRANCH  14  15
HETATM   15  O3  UNL     1      29.763   2.470  54.815  1.00  0.00    -0.398 OA
HETATM   16  H7  UNL     1      29.811   2.282  55.767  1.00  0.00     0.209 HD
ENDBRANCH  14  15
ENDBRANCH  10  14
ENDBRANCH   9  10
ENDBRANCH   7   9
ENDBRANCH   1   7
BRANCH   4  17
HETATM   17  C9  UNL     1      22.362   2.002  52.252  1.00  0.00     0.079 C 
BRANCH  17  18
HETATM   18  C10 UNL     1      22.266   2.317  50.805  1.00  0.00    -0.054 A 
HETATM   19  C11 UNL     1      22.467   3.599  50.338  1.00  0.00     0.009 A 
HETATM   20  C12 UNL     1      22.381   3.898  49.012  1.00  0.00     0.024 A 
HETATM   21  C13 UNL     1      22.088   2.915  48.099  1.00  0.00     0.034 A 
HETATM   22 CL1  UNL     1      21.974   3.289  46.387  1.00  0.00    -0.084 Cl
HETATM   23  C14 UNL     1      21.889   1.641  48.586  1.00  0.00     0.024 A 
HETATM   24  C15 UNL     1      21.969   1.301  49.927  1.00  0.00     0.009 A 
ENDBRANCH  17  18
ENDBRANCH   4  17
BRANCH   5  25
HETATM   25  O4  UNL     1      22.443  -1.012  53.329  1.00  0.00    -0.356 OA
HETATM   26  C17 UNL     1      22.058  -1.413  54.626  1.00  0.00     0.210 C 
ENDBRANCH   5  25
TORSDOF 10
ENDMDL
MODEL 6
REMARK VINA RESULT:      -6.4      3.534      6.551
REMARK  10 active torsions:
REMARK  status: ('A' for Active; 'I' for Inactive)
REMARK    1  A    between atoms: O1_2  and  O2_3 
REMARK    2  A    between atoms: O2_3  and  C2_4 
REMARK    3  A    between atoms: C2_4  and  C3_5 
REMARK    4  A    between atoms: C2_4  and  C4_7 
REMARK    5  A    between atoms: C3_5  and  O3_6 
REMARK    6  A    between atoms: C4_7  and  N1_8 
REMARK    7  A    between atoms: N1_8  and  C5_9 
REMARK    8  A    between atoms: C8_12  and  C9_13 
REMARK    9  A    between atoms: C9_13  and  C10_14 
REMARK   10  A    between atoms: C16_21  and  O4_22 
ROOT
HETATM    1  C5  UNL     1      23.609   3.213  51.651  1.00  0.00     0.061 A 
HETATM    2  C6  UNL     1      22.949   4.330  52.399  1.00  0.00     0.047 C 
HETATM    3  C7  UNL     1      24.267   2.286  52.665  1.00  0.00     0.017 A 
HETATM    4  C8  UNL     1      23.683   1.097  52.778  1.00  0.00    -0.022 A 
HETATM    5  C16 UNL     1      22.566   1.107  51.844  1.00  0.00     0.073 A 
HETATM    6  C18 UNL     1      22.516   2.283  51.211  1.00  0.00     0.044 A 
ENDROOT
BRANCH   1   7
HETATM    7  N1  UNL     1      24.568   3.480  50.688  1.00  0.00    -0.404 N 
HETATM    8  H10 UNL     1      25.500   3.018  50.809  1.00  0.00     0.154 HD
BRANCH   7   9
HETATM    9  C4  UNL     1      24.378   4.240  49.555  1.00  0.00     0.152 C 
BRANCH   9  10
HETATM   10  C2  UNL     1      24.881   5.679  49.716  1.00  0.00     0.201 C 
BRANCH  10  11
HETATM   11  O2  UNL     1      26.237   5.733  49.528  1.00  0.00    -0.232 OA
BRANCH  11  12
HETATM   12  O1  UNL     1      26.852   4.781  48.972  1.00  0.00    -0.246 OA
HETATM   13  C1  UNL     1      28.084   5.123  48.492  1.00  0.00     0.247 C 
ENDBRANCH  11  12
ENDBRANCH  10  11
BRANCH  10  14
HETATM   14  C3  UNL     1      24.228   6.549  48.642  1.00  0.00     0.200 C 
BRANCH  14  15
HETATM   15  O3  UNL     1      25.157   7.046  47.735  1.00  0.00    -0.398 OA
HETATM   16  H7  UNL     1      25.739   7.745  48.079  1.00  0.00     0.209 HD
ENDBRANCH  14  15
ENDBRANCH  10  14
ENDBRANCH   9  10
ENDBRANCH   7   9
ENDBRANCH   1   7
BRANCH   4  17
HETATM   17  C9  UNL     1      24.124   0.023  53.684  1.00  0.00     0.079 C 
BRANCH  17  18
HETATM   18  C10 UNL     1      25.594  -0.187  53.688  1.00  0.00    -0.054 A 
HETATM   19  C11 UNL     1      26.223  -0.863  52.665  1.00  0.00     0.009 A 
HETATM   20  C12 UNL     1      27.571  -1.061  52.661  1.00  0.00     0.024 A 
HETATM   21  C13 UNL     1      28.342  -0.583  53.691  1.00  0.00     0.034 A 
HETATM   22 CL1  UNL     1      30.081  -0.832  53.697  1.00  0.00    -0.084 Cl
HETATM   23  C14 UNL     1      27.694   0.089  54.705  1.00  0.00     0.024 A 
HETATM   24  C15 UNL     1      26.327   0.308  54.742  1.00  0.00     0.009 A 
ENDBRANCH  17  18
ENDBRANCH   4  17
BRANCH   5  25
HETATM   25  O4  UNL     1      21.672   0.064  51.627  1.00  0.00    -0.356 OA
HETATM   26  C17 UNL     1      20.287   0.272  51.453  1.00  0.00     0.210 C 
ENDBRANCH   5  25
TORSDOF 10
ENDMDL
MODEL 7
REMARK VINA RESULT:      -6.3      2.678      3.304
REMARK  10 active torsions:
REMARK  status: ('A' for Active; 'I' for Inactive)
REMARK    1  A    between atoms: O1_2  and  O2_3 
REMARK    2  A    between atoms: O2_3  and  C2_4 
REMARK    3  A    between atoms: C2_4  and  C3_5 
REMARK    4  A    between atoms: C2_4  and  C4_7 
REMARK    5  A    between atoms: C3_5  and  O3_6 
REMARK    6  A    between atoms: C4_7  and  N1_8 
REMARK    7  A    between atoms: N1_8  and  C5_9 
REMARK    8  A    between atoms: C8_12  and  C9_13 
REMARK    9  A    between atoms: C9_13  and  C10_14 
REMARK   10  A    between atoms: C16_21  and  O4_22 
ROOT
HETATM    1  C5  UNL     1      24.862   1.870  52.925  1.00  0.00     0.061 A 
HETATM    2  C6  UNL     1      23.904   0.760  53.228  1.00  0.00     0.047 C 
HETATM    3  C7  UNL     1      25.057   1.931  51.416  1.00  0.00     0.017 A 
HETATM    4  C8  UNL     1      24.525   3.006  50.839  1.00  0.00    -0.022 A 
HETATM    5  C16 UNL     1      23.916   3.779  51.914  1.00  0.00     0.073 A 
HETATM    6  C18 UNL     1      24.099   3.153  53.081  1.00  0.00     0.044 A 
ENDROOT
BRANCH   1   7
HETATM    7  N1  UNL     1      26.131   1.877  53.481  1.00  0.00    -0.404 N 
HETATM    8  H10 UNL     1      26.338   2.632  54.177  1.00  0.00     0.154 HD
BRANCH   7   9
HETATM    9  C4  UNL     1      27.114   0.939  53.251  1.00  0.00     0.152 C 
BRANCH   9  10
HETATM   10  C2  UNL     1      28.031   0.733  54.461  1.00  0.00     0.201 C 
BRANCH  10  11
HETATM   11  O2  UNL     1      28.432  -0.576  54.536  1.00  0.00    -0.232 OA
BRANCH  11  12
HETATM   12  O1  UNL     1      28.137  -1.396  53.623  1.00  0.00    -0.246 OA
HETATM   13  C1  UNL     1      29.180  -2.187  53.230  1.00  0.00     0.247 C 
ENDBRANCH  11  12
ENDBRANCH  10  11
BRANCH  10  14
HETATM   14  C3  UNL     1      29.282   1.593  54.280  1.00  0.00     0.200 C 
BRANCH  14  15
HETATM   15  O3  UNL     1      29.122   2.544  53.279  1.00  0.00    -0.398 OA
HETATM   16  H7  UNL     1      29.798   3.241  53.257  1.00  0.00     0.209 HD
ENDBRANCH  14  15
ENDBRANCH  10  14
ENDBRANCH   9  10
ENDBRANCH   7   9
ENDBRANCH   1   7
BRANCH   4  17
HETATM   17  C9  UNL     1      24.575   3.301  49.398  1.00  0.00     0.079 C 
BRANCH  17  18
HETATM   18  C10 UNL     1      23.247   3.272  48.737  1.00  0.00    -0.054 A 
HETATM   19  C11 UNL     1      22.758   4.373  48.066  1.00  0.00     0.009 A 
HETATM   20  C12 UNL     1      21.539   4.355  47.456  1.00  0.00     0.024 A 
HETATM   21  C13 UNL     1      20.762   3.224  47.497  1.00  0.00     0.034 A 
HETATM   22 CL1  UNL     1      19.191   3.188  46.715  1.00  0.00    -0.084 Cl
HETATM   23  C14 UNL     1      21.269   2.134  48.174  1.00  0.00     0.024 A 
HETATM   24  C15 UNL     1      22.503   2.117  48.805  1.00  0.00     0.009 A 
ENDBRANCH  17  18
ENDBRANCH   4  17
BRANCH   5  25
HETATM   25  O4  UNL     1      23.242   4.987  51.771  1.00  0.00    -0.356 OA
HETATM   26  C17 UNL     1      23.894   6.184  51.407  1.00  0.00     0.210 C 
ENDBRANCH   5  25
TORSDOF 10
ENDMDL
MODEL 8
REMARK VINA RESULT:      -6.3      3.639      6.707
REMARK  10 active torsions:
REMARK  status: ('A' for Active; 'I' for Inactive)
REMARK    1  A    between atoms: O1_2  and  O2_3 
REMARK    2  A    between atoms: O2_3  and  C2_4 
REMARK    3  A    between atoms: C2_4  and  C3_5 
REMARK    4  A    between atoms: C2_4  and  C4_7 
REMARK    5  A    between atoms: C3_5  and  O3_6 
REMARK    6  A    between atoms: C4_7  and  N1_8 
REMARK    7  A    between atoms: N1_8  and  C5_9 
REMARK    8  A    between atoms: C8_12  and  C9_13 
REMARK    9  A    between atoms: C9_13  and  C10_14 
REMARK   10  A    between atoms: C16_21  and  O4_22 
ROOT
HETATM    1  C5  UNL     1      23.681   4.149  51.805  1.00  0.00     0.061 A 
HETATM    2  C6  UNL     1      22.788   5.066  52.583  1.00  0.00     0.047 C 
HETATM    3  C7  UNL     1      24.142   3.034  52.734  1.00  0.00     0.017 A 
HETATM    4  C8  UNL     1      23.631   1.839  52.452  1.00  0.00    -0.022 A 
HETATM    5  C16 UNL     1      22.767   2.036  51.295  1.00  0.00     0.073 A 
HETATM    6  C18 UNL     1      22.789   3.321  50.927  1.00  0.00     0.044 A 
ENDROOT
BRANCH   1   7
HETATM    7  N1  UNL     1      24.819   4.634  51.184  1.00  0.00    -0.404 N 
HETATM    8  H10 UNL     1      25.560   5.038  51.804  1.00  0.00     0.154 HD
BRANCH   7   9
HETATM    9  C4  UNL     1      25.088   4.566  49.834  1.00  0.00     0.152 C 
BRANCH   9  10
HETATM   10  C2  UNL     1      25.020   5.934  49.146  1.00  0.00     0.201 C 
BRANCH  10  11
HETATM   11  O2  UNL     1      23.845   6.057  48.450  1.00  0.00    -0.232 OA
BRANCH  11  12
HETATM   12  O1  UNL     1      22.742   6.155  49.055  1.00  0.00    -0.246 OA
HETATM   13  C1  UNL     1      21.696   5.570  48.397  1.00  0.00     0.247 C 
ENDBRANCH  11  12
ENDBRANCH  10  11
BRANCH  10  14
HETATM   14  C3  UNL     1      25.041   7.023  50.218  1.00  0.00     0.200 C 
BRANCH  14  15
HETATM   15  O3  UNL     1      26.294   7.153  50.806  1.00  0.00    -0.398 OA
HETATM   16  H7  UNL     1      26.849   6.356  50.783  1.00  0.00     0.209 HD
ENDBRANCH  14  15
ENDBRANCH  10  14
ENDBRANCH   9  10
ENDBRANCH   7   9
ENDBRANCH   1   7
BRANCH   4  17
HETATM   17  C9  UNL     1      23.917   0.602  53.195  1.00  0.00     0.079 C 
BRANCH  17  18
HETATM   18  C10 UNL     1      25.367   0.331  53.366  1.00  0.00    -0.054 A 
HETATM   19  C11 UNL     1      26.145  -0.088  52.308  1.00  0.00     0.009 A 
HETATM   20  C12 UNL     1      27.476  -0.339  52.455  1.00  0.00     0.024 A 
HETATM   21  C13 UNL     1      28.079  -0.178  53.678  1.00  0.00     0.034 A 
HETATM   22 CL1  UNL     1      29.793  -0.498  53.880  1.00  0.00    -0.084 Cl
HETATM   23  C14 UNL     1      27.283   0.240  54.723  1.00  0.00     0.024 A 
HETATM   24  C15 UNL     1      25.927   0.505  54.609  1.00  0.00     0.009 A 
ENDBRANCH  17  18
ENDBRANCH   4  17
BRANCH   5  25
HETATM   25  O4  UNL     1      22.023   1.051  50.654  1.00  0.00    -0.356 OA
HETATM   26  C17 UNL     1      21.758   1.079  49.268  1.00  0.00     0.210 C 
ENDBRANCH   5  25
TORSDOF 10
ENDMDL
MODEL 9
REMARK VINA RESULT:      -6.2      2.543      4.259
REMARK  10 active torsions:
REMARK  status: ('A' for Active; 'I' for Inactive)
REMARK    1  A    between atoms: O1_2  and  O2_3 
REMARK    2  A    between atoms: O2_3  and  C2_4 
REMARK    3  A    between atoms: C2_4  and  C3_5 
REMARK    4  A    between atoms: C2_4  and  C4_7 
REMARK    5  A    between atoms: C3_5  and  O3_6 
REMARK    6  A    between atoms: C4_7  and  N1_8 
REMARK    7  A    between atoms: N1_8  and  C5_9 
REMARK    8  A    between atoms: C8_12  and  C9_13 
REMARK    9  A    between atoms: C9_13  and  C10_14 
REMARK   10  A    between atoms: C16_21  and  O4_22 
ROOT
HETATM    1  C5  UNL     1      25.296   4.294  50.065  1.00  0.00     0.061 A 
HETATM    2  C6  UNL     1      24.169   3.560  49.408  1.00  0.00     0.047 C 
HETATM    3  C7  UNL     1      26.174   4.893  48.974  1.00  0.00     0.017 A 
HETATM    4  C8  UNL     1      26.118   6.220  48.893  1.00  0.00    -0.022 A 
HETATM    5  C16 UNL     1      25.189   6.646  49.931  1.00  0.00     0.073 A 
HETATM    6  C18 UNL     1      24.726   5.579  50.590  1.00  0.00     0.044 A 
ENDROOT
BRANCH   1   7
HETATM    7  N1  UNL     1      26.151   3.640  50.936  1.00  0.00    -0.404 N 
HETATM    8  H10 UNL     1      26.390   4.135  51.827  1.00  0.00     0.154 HD
BRANCH   7   9
HETATM    9  C4  UNL     1      26.656   2.369  50.762  1.00  0.00     0.152 C 
BRANCH   9  10
HETATM   10  C2  UNL     1      26.361   1.447  51.950  1.00  0.00     0.201 C 
BRANCH  10  11
HETATM   11  O2  UNL     1      27.441   1.397  52.793  1.00  0.00    -0.232 OA
BRANCH  11  12
HETATM   12  O1  UNL     1      28.309   2.314  52.787  1.00  0.00    -0.246 OA
HETATM   13  C1  UNL     1      29.075   2.359  53.917  1.00  0.00     0.247 C 
ENDBRANCH  11  12
ENDBRANCH  10  11
BRANCH  10  14
HETATM   14  C3  UNL     1      25.183   2.021  52.736  1.00  0.00     0.200 C 
BRANCH  14  15
HETATM   15  O3  UNL     1      25.596   2.901  53.730  1.00  0.00    -0.398 OA
HETATM   16  H7  UNL     1      26.432   2.669  54.168  1.00  0.00     0.209 HD
ENDBRANCH  14  15
ENDBRANCH  10  14
ENDBRANCH   9  10
ENDBRANCH   7   9
ENDBRANCH   1   7
BRANCH   4  17
HETATM   17  C9  UNL     1      26.868   7.038  47.927  1.00  0.00     0.079 C 
BRANCH  17  18
HETATM   18  C10 UNL     1      28.317   7.142  48.232  1.00  0.00    -0.054 A 
HETATM   19  C11 UNL     1      28.867   8.315  48.704  1.00  0.00     0.009 A 
HETATM   20  C12 UNL     1      30.195   8.420  48.986  1.00  0.00     0.024 A 
HETATM   21  C13 UNL     1      31.027   7.343  48.805  1.00  0.00     0.034 A 
HETATM   22 CL1  UNL     1      32.741   7.465  49.165  1.00  0.00    -0.084 Cl
HETATM   23  C14 UNL     1      30.458   6.179  48.331  1.00  0.00     0.024 A 
HETATM   24  C15 UNL     1      29.112   6.038  48.034  1.00  0.00     0.009 A 
ENDBRANCH  17  18
ENDBRANCH   4  17
BRANCH   5  25
HETATM   25  O4  UNL     1      24.824   7.958  50.213  1.00  0.00    -0.356 OA
HETATM   26  C17 UNL     1      23.522   8.452  49.987  1.00  0.00     0.210 C 
ENDBRANCH   5  25
TORSDOF 10
ENDMDL
