MODEL 1
REMARK VINA RESULT:      -9.4      0.000      0.000
REMARK  4 active torsions:
REMARK  status: ('A' for Active; 'I' for Inactive)
REMARK    1  A    between atoms: N1_1  and  C1_2 
REMARK    2  A    between atoms: C5_6  and  N2_7 
REMARK    3  A    between atoms: C10_16  and  N6_17 
REMARK    4  A    between atoms: N6_17  and  C11_18 
ROOT
HETATM    1  N2  UNL     1      25.232  -0.238  53.674  1.00  0.00    -0.205 NA
HETATM    2  C6  UNL     1      24.461  -0.899  54.670  1.00  0.00     0.265 C 
HETATM    3  N3  UNL     1      23.062  -0.988  54.325  1.00  0.00    -0.252 NA
HETATM    4  C7  UNL     1      22.264  -0.225  53.682  1.00  0.00     0.190 A 
HETATM    5  C8  UNL     1      22.520   1.002  53.082  1.00  0.00     0.151 A 
HETATM    6  N4  UNL     1      21.380   1.468  52.528  1.00  0.00    -0.234 NA
HETATM    7  C9  UNL     1      20.403   0.549  52.769  1.00  0.00     0.247 A 
HETATM    8  N5  UNL     1      20.951  -0.468  53.466  1.00  0.00    -0.153 N 
HETATM    9  F1  UNL     1      20.309  -1.570  53.895  1.00  0.00    -0.091 F 
HETATM   10  C10 UNL     1      23.717   1.585  53.067  1.00  0.00     0.149 C 
HETATM   11  N7  UNL     1      24.970   1.135  53.610  1.00  0.00    -0.301 N 
HETATM   12  H19 UNL     1      25.606   1.903  53.921  1.00  0.00     0.182 HD
ENDROOT
BRANCH   1  13
HETATM   13  C5  UNL     1      26.614  -0.548  53.774  1.00  0.00     0.083 C 
HETATM   14  C4  UNL     1      27.492   0.636  54.184  1.00  0.00     0.022 C 
HETATM   15  C3  UNL     1      28.766   0.024  54.708  1.00  0.00     0.004 C 
HETATM   16  C2  UNL     1      29.424  -0.916  53.761  1.00  0.00     0.035 C 
HETATM   17  C1  UNL     1      28.553  -1.672  52.837  1.00  0.00     0.219 C 
HETATM   18  C17 UNL     1      27.233  -1.064  52.516  1.00  0.00     0.056 C 
BRANCH  17  19
HETATM   19  N1  UNL     1      28.306  -3.060  53.237  1.00  0.00     0.083 N 
HETATM   20  H1  UNL     1      27.353  -3.129  53.696  1.00  0.00     0.313 HD
HETATM   21  H2  UNL     1      28.964  -3.241  54.054  1.00  0.00     0.313 HD
ENDBRANCH  17  19
ENDBRANCH   1  13
BRANCH  10  22
HETATM   22  N6  UNL     1      23.754   2.856  52.390  1.00  0.00    -0.340 N 
HETATM   23  H14 UNL     1      23.057   3.585  52.634  1.00  0.00     0.167 HD
BRANCH  22  24
HETATM   24  C11 UNL     1      24.710   3.136  51.403  1.00  0.00     0.035 A 
HETATM   25  C12 UNL     1      25.887   2.472  51.043  1.00  0.00     0.029 A 
HETATM   26  C13 UNL     1      26.658   2.970  50.017  1.00  0.00     0.004 A 
HETATM   27  C14 UNL     1      26.311   4.100  49.331  1.00  0.00     0.024 A 
HETATM   28  C15 UNL     1      25.172   4.773  49.651  1.00  0.00     0.036 A 
HETATM   29 CL1  UNL     1      24.789   6.202  48.739  1.00  0.00    -0.084 Cl
HETATM   30  C16 UNL     1      24.376   4.286  50.688  1.00  0.00     0.053 A 
ENDBRANCH  22  24
ENDBRANCH  10  22
TORSDOF 4
ENDMDL
MODEL 2
REMARK VINA RESULT:      -9.1      1.811      2.299
REMARK  4 active torsions:
REMARK  status: ('A' for Active; 'I' for Inactive)
REMARK    1  A    between atoms: N1_1  and  C1_2 
REMARK    2  A    between atoms: C5_6  and  N2_7 
REMARK    3  A    between atoms: C10_16  and  N6_17 
REMARK    4  A    between atoms: N6_17  and  C11_18 
ROOT
HETATM    1  N2  UNL     1      25.546   0.880  52.678  1.00  0.00    -0.205 NA
HETATM    2  C6  UNL     1      24.512   0.130  53.303  1.00  0.00     0.265 C 
HETATM    3  N3  UNL     1      23.268   0.180  52.573  1.00  0.00    -0.252 NA
HETATM    4  C7  UNL     1      22.699   1.076  51.862  1.00  0.00     0.190 A 
HETATM    5  C8  UNL     1      23.138   2.359  51.558  1.00  0.00     0.151 A 
HETATM    6  N4  UNL     1      22.211   2.970  50.789  1.00  0.00    -0.234 NA
HETATM    7  C9  UNL     1      21.190   2.089  50.601  1.00  0.00     0.247 A 
HETATM    8  N5  UNL     1      21.498   0.949  51.254  1.00  0.00    -0.153 N 
HETATM    9  F1  UNL     1      20.740  -0.162  51.309  1.00  0.00    -0.091 F 
HETATM   10  C10 UNL     1      24.301   2.862  51.968  1.00  0.00     0.149 C 
HETATM   11  N7  UNL     1      25.339   2.261  52.760  1.00  0.00    -0.301 N 
HETATM   12  H19 UNL     1      25.875   2.934  53.353  1.00  0.00     0.182 HD
ENDROOT
BRANCH   1  13
HETATM   13  C5  UNL     1      26.837   0.473  53.109  1.00  0.00     0.083 C 
HETATM   14  C4  UNL     1      27.088  -1.032  52.992  1.00  0.00     0.022 C 
HETATM   15  C3  UNL     1      28.587  -1.187  53.006  1.00  0.00     0.004 C 
HETATM   16  C2  UNL     1      29.254  -0.553  54.175  1.00  0.00     0.035 C 
HETATM   17  C1  UNL     1      28.620   0.651  54.750  1.00  0.00     0.219 C 
HETATM   18  C17 UNL     1      27.155   0.804  54.531  1.00  0.00     0.056 C 
BRANCH  17  19
HETATM   19  N1  UNL     1      29.251   1.915  54.357  1.00  0.00     0.083 N 
HETATM   20  H1  UNL     1      28.505   2.661  54.251  1.00  0.00     0.313 HD
HETATM   21  H2  UNL     1      29.571   1.771  53.352  1.00  0.00     0.313 HD
ENDBRANCH  17  19
ENDBRANCH   1  13
BRANCH  10  22
HETATM   22  N6  UNL     1      24.552   4.213  51.536  1.00  0.00    -0.340 N 
HETATM   23  H14 UNL     1      24.030   4.995  51.976  1.00  0.00     0.167 HD
BRANCH  22  24
HETATM   24  C11 UNL     1      25.487   4.503  50.531  1.00  0.00     0.035 A 
HETATM   25  C12 UNL     1      26.461   3.707  49.920  1.00  0.00     0.029 A 
HETATM   26  C13 UNL     1      27.262   4.251  48.942  1.00  0.00     0.004 A 
HETATM   27  C14 UNL     1      27.139   5.552  48.543  1.00  0.00     0.024 A 
HETATM   28  C15 UNL     1      26.203   6.358  49.115  1.00  0.00     0.036 A 
HETATM   29 CL1  UNL     1      26.099   8.003  48.562  1.00  0.00    -0.084 Cl
HETATM   30  C16 UNL     1      25.380   5.827  50.108  1.00  0.00     0.053 A 
ENDBRANCH  22  24
ENDBRANCH  10  22
TORSDOF 4
ENDMDL
MODEL 3
REMARK VINA RESULT:      -9.1      2.557      5.424
REMARK  4 active torsions:
REMARK  status: ('A' for Active; 'I' for Inactive)
REMARK    1  A    between atoms: N1_1  and  C1_2 
REMARK    2  A    between atoms: C5_6  and  N2_7 
REMARK    3  A    between atoms: C10_16  and  N6_17 
REMARK    4  A    between atoms: N6_17  and  C11_18 
ROOT
HETATM    1  N2  UNL     1      24.288   0.549  53.457  1.00  0.00    -0.205 NA
HETATM    2  C6  UNL     1      25.047  -0.633  53.681  1.00  0.00     0.265 C 
HETATM    3  N3  UNL     1      26.397  -0.356  54.108  1.00  0.00    -0.252 NA
HETATM    4  C7  UNL     1      27.230   0.576  53.844  1.00  0.00     0.190 A 
HETATM    5  C8  UNL     1      27.076   1.678  53.011  1.00  0.00     0.151 A 
HETATM    6  N4  UNL     1      28.219   2.396  53.013  1.00  0.00    -0.234 NA
HETATM    7  C9  UNL     1      29.098   1.763  53.840  1.00  0.00     0.247 A 
HETATM    8  N5  UNL     1      28.488   0.666  54.335  1.00  0.00    -0.153 N 
HETATM    9  F1  UNL     1      29.027  -0.223  55.189  1.00  0.00    -0.091 F 
HETATM   10  C10 UNL     1      25.955   1.952  52.345  1.00  0.00     0.149 C 
HETATM   11  N7  UNL     1      24.701   1.250  52.319  1.00  0.00    -0.301 N 
HETATM   12  H19 UNL     1      24.181   1.327  51.416  1.00  0.00     0.182 HD
ENDROOT
BRANCH   1  13
HETATM   13  C5  UNL     1      22.890   0.302  53.495  1.00  0.00     0.083 C 
HETATM   14  C4  UNL     1      22.517  -1.110  53.953  1.00  0.00     0.022 C 
HETATM   15  C3  UNL     1      21.081  -1.018  54.398  1.00  0.00     0.004 C 
HETATM   16  C2  UNL     1      20.161  -0.454  53.372  1.00  0.00     0.035 C 
HETATM   17  C1  UNL     1      20.719   0.537  52.429  1.00  0.00     0.219 C 
HETATM   18  C17 UNL     1      22.187   0.477  52.188  1.00  0.00     0.056 C 
BRANCH  17  19
HETATM   19  N1  UNL     1      20.389   1.929  52.747  1.00  0.00     0.083 N 
HETATM   20  H1  UNL     1      20.770   2.562  51.987  1.00  0.00     0.313 HD
HETATM   21  H2  UNL     1      21.000   2.182  53.580  1.00  0.00     0.313 HD
ENDBRANCH  17  19
ENDBRANCH   1  13
BRANCH  10  22
HETATM   22  N6  UNL     1      26.017   3.144  51.539  1.00  0.00    -0.340 N 
HETATM   23  H14 UNL     1      26.867   3.740  51.572  1.00  0.00     0.167 HD
BRANCH  22  24
HETATM   24  C11 UNL     1      24.954   3.525  50.706  1.00  0.00     0.035 A 
HETATM   25  C12 UNL     1      24.671   3.216  49.372  1.00  0.00     0.029 A 
HETATM   26  C13 UNL     1      23.539   3.733  48.785  1.00  0.00     0.004 A 
HETATM   27  C14 UNL     1      22.673   4.543  49.465  1.00  0.00     0.024 A 
HETATM   28  C15 UNL     1      22.914   4.865  50.765  1.00  0.00     0.036 A 
HETATM   29 CL1  UNL     1      21.773   5.899  51.571  1.00  0.00    -0.084 Cl
HETATM   30  C16 UNL     1      24.056   4.352  51.380  1.00  0.00     0.053 A 
ENDBRANCH  22  24
ENDBRANCH  10  22
TORSDOF 4
ENDMDL
MODEL 4
REMARK VINA RESULT:      -9.0      2.508      5.460
REMARK  4 active torsions:
REMARK  status: ('A' for Active; 'I' for Inactive)
REMARK    1  A    between atoms: N1_1  and  C1_2 
REMARK    2  A    between atoms: C5_6  and  N2_7 
REMARK    3  A    between atoms: C10_16  and  N6_17 
REMARK    4  A    between atoms: N6_17  and  C11_18 
ROOT
HETATM    1  N2  UNL     1      23.738   2.074  51.337  1.00  0.00    -0.205 NA
HETATM    2  C6  UNL     1      22.668   1.456  50.632  1.00  0.00     0.265 C 
HETATM    3  N3  UNL     1      21.727   0.802  51.508  1.00  0.00    -0.252 NA
HETATM    4  C7  UNL     1      21.841   0.188  52.623  1.00  0.00     0.190 A 
HETATM    5  C8  UNL     1      22.984  -0.051  53.376  1.00  0.00     0.151 A 
HETATM    6  N4  UNL     1      22.646  -0.755  54.478  1.00  0.00    -0.234 NA
HETATM    7  C9  UNL     1      21.301  -0.964  54.433  1.00  0.00     0.247 A 
HETATM    8  N5  UNL     1      20.827  -0.389  53.308  1.00  0.00    -0.153 N 
HETATM    9  F1  UNL     1      19.544  -0.379  52.904  1.00  0.00    -0.091 F 
HETATM   10  C10 UNL     1      24.199   0.376  53.036  1.00  0.00     0.149 C 
HETATM   11  N7  UNL     1      24.622   1.148  51.899  1.00  0.00    -0.301 N 
HETATM   12  H19 UNL     1      25.595   0.945  51.577  1.00  0.00     0.182 HD
ENDROOT
BRANCH   1  13
HETATM   13  C5  UNL     1      24.381   3.075  50.561  1.00  0.00     0.083 C 
HETATM   14  C4  UNL     1      25.908   3.053  50.656  1.00  0.00     0.022 C 
HETATM   15  C3  UNL     1      26.393   3.801  49.441  1.00  0.00     0.004 C 
HETATM   16  C2  UNL     1      25.817   5.166  49.297  1.00  0.00     0.035 C 
HETATM   17  C1  UNL     1      24.452   5.387  49.820  1.00  0.00     0.219 C 
HETATM   18  C17 UNL     1      23.998   4.477  50.906  1.00  0.00     0.056 C 
BRANCH  17  19
HETATM   19  N1  UNL     1      23.405   5.396  48.794  1.00  0.00     0.083 N 
HETATM   20  H1  UNL     1      22.503   5.757  49.217  1.00  0.00     0.313 HD
HETATM   21  H2  UNL     1      23.177   4.372  48.614  1.00  0.00     0.313 HD
ENDBRANCH  17  19
ENDBRANCH   1  13
BRANCH  10  22
HETATM   22  N6  UNL     1      25.240   0.013  53.963  1.00  0.00    -0.340 N 
HETATM   23  H14 UNL     1      25.049  -0.701  54.692  1.00  0.00     0.167 HD
BRANCH  22  24
HETATM   24  C11 UNL     1      26.512   0.603  53.909  1.00  0.00     0.035 A 
HETATM   25  C12 UNL     1      26.908   1.944  53.910  1.00  0.00     0.029 A 
HETATM   26  C13 UNL     1      28.248   2.253  53.847  1.00  0.00     0.004 A 
HETATM   27  C14 UNL     1      29.214   1.288  53.785  1.00  0.00     0.024 A 
HETATM   28  C15 UNL     1      28.867  -0.029  53.783  1.00  0.00     0.036 A 
HETATM   29 CL1  UNL     1      30.144  -1.205  53.701  1.00  0.00    -0.084 Cl
HETATM   30  C16 UNL     1      27.515  -0.364  53.845  1.00  0.00     0.053 A 
ENDBRANCH  22  24
ENDBRANCH  10  22
TORSDOF 4
ENDMDL
MODEL 5
REMARK VINA RESULT:      -8.9      2.878      3.920
REMARK  4 active torsions:
REMARK  status: ('A' for Active; 'I' for Inactive)
REMARK    1  A    between atoms: N1_1  and  C1_2 
REMARK    2  A    between atoms: C5_6  and  N2_7 
REMARK    3  A    between atoms: C10_16  and  N6_17 
REMARK    4  A    between atoms: N6_17  and  C11_18 
ROOT
HETATM    1  N2  UNL     1      25.885   1.944  52.315  1.00  0.00    -0.205 NA
HETATM    2  C6  UNL     1      25.198   2.548  53.405  1.00  0.00     0.265 C 
HETATM    3  N3  UNL     1      23.904   3.065  53.030  1.00  0.00    -0.252 NA
HETATM    4  C7  UNL     1      23.442   3.591  51.962  1.00  0.00     0.190 A 
HETATM    5  C8  UNL     1      24.091   3.841  50.758  1.00  0.00     0.151 A 
HETATM    6  N4  UNL     1      23.225   4.428  49.905  1.00  0.00    -0.234 NA
HETATM    7  C9  UNL     1      22.033   4.553  50.553  1.00  0.00     0.247 A 
HETATM    8  N5  UNL     1      22.178   4.044  51.794  1.00  0.00    -0.153 N 
HETATM    9  F1  UNL     1      21.225   3.984  52.742  1.00  0.00    -0.091 F 
HETATM   10  C10 UNL     1      25.362   3.522  50.521  1.00  0.00     0.149 C 
HETATM   11  N7  UNL     1      26.326   2.876  51.369  1.00  0.00    -0.301 N 
HETATM   12  H19 UNL     1      27.314   3.167  51.200  1.00  0.00     0.182 HD
ENDROOT
BRANCH   1  13
HETATM   13  C5  UNL     1      26.902   1.054  52.752  1.00  0.00     0.083 C 
HETATM   14  C4  UNL     1      26.474  -0.415  52.789  1.00  0.00     0.022 C 
HETATM   15  C3  UNL     1      27.757  -1.204  52.778  1.00  0.00     0.004 C 
HETATM   16  C2  UNL     1      28.712  -0.827  53.856  1.00  0.00     0.035 C 
HETATM   17  C1  UNL     1      28.699   0.577  54.316  1.00  0.00     0.219 C 
HETATM   18  C17 UNL     1      27.431   1.332  54.122  1.00  0.00     0.056 C 
BRANCH  17  19
HETATM   19  N1  UNL     1      29.782   1.403  53.775  1.00  0.00     0.083 N 
HETATM   20  H1  UNL     1      30.588   0.779  53.484  1.00  0.00     0.313 HD
HETATM   21  H2  UNL     1      30.188   1.922  54.611  1.00  0.00     0.313 HD
ENDBRANCH  17  19
ENDBRANCH   1  13
BRANCH  10  22
HETATM   22  N6  UNL     1      25.829   3.874  49.205  1.00  0.00    -0.340 N 
HETATM   23  H14 UNL     1      25.624   3.246  48.405  1.00  0.00     0.167 HD
BRANCH  22  24
HETATM   24  C11 UNL     1      26.561   5.049  48.974  1.00  0.00     0.035 A 
HETATM   25  C12 UNL     1      26.197   6.396  49.069  1.00  0.00     0.029 A 
HETATM   26  C13 UNL     1      27.127   7.368  48.781  1.00  0.00     0.004 A 
HETATM   27  C14 UNL     1      28.404   7.063  48.401  1.00  0.00     0.024 A 
HETATM   28  C15 UNL     1      28.795   5.763  48.298  1.00  0.00     0.036 A 
HETATM   29 CL1  UNL     1      30.433   5.443  47.811  1.00  0.00    -0.084 Cl
HETATM   30  C16 UNL     1      27.869   4.761  48.586  1.00  0.00     0.053 A 
ENDBRANCH  22  24
ENDBRANCH  10  22
TORSDOF 4
ENDMDL
MODEL 6
REMARK VINA RESULT:      -8.4      3.435      5.508
REMARK  4 active torsions:
REMARK  status: ('A' for Active; 'I' for Inactive)
REMARK    1  A    between atoms: N1_1  and  C1_2 
REMARK    2  A    between atoms: C5_6  and  N2_7 
REMARK    3  A    between atoms: C10_16  and  N6_17 
REMARK    4  A    between atoms: N6_17  and  C11_18 
ROOT
HETATM    1  N2  UNL     1      25.785   2.346  51.834  1.00  0.00    -0.205 NA
HETATM    2  C6  UNL     1      26.527   2.927  50.768  1.00  0.00     0.265 C 
HETATM    3  N3  UNL     1      25.762   3.893  50.017  1.00  0.00    -0.252 NA
HETATM    4  C7  UNL     1      24.526   3.986  49.704  1.00  0.00     0.190 A 
HETATM    5  C8  UNL     1      23.478   3.128  50.013  1.00  0.00     0.151 A 
HETATM    6  N4  UNL     1      22.341   3.605  49.463  1.00  0.00    -0.234 NA
HETATM    7  C9  UNL     1      22.655   4.757  48.808  1.00  0.00     0.247 A 
HETATM    8  N5  UNL     1      23.978   4.976  48.962  1.00  0.00    -0.153 N 
HETATM    9  F1  UNL     1      24.673   6.014  48.462  1.00  0.00    -0.091 F 
HETATM   10  C10 UNL     1      23.614   2.027  50.751  1.00  0.00     0.149 C 
HETATM   11  N7  UNL     1      24.782   1.479  51.386  1.00  0.00    -0.301 N 
HETATM   12  H19 UNL     1      24.783   0.438  51.465  1.00  0.00     0.182 HD
ENDROOT
BRANCH   1  13
HETATM   13  C5  UNL     1      26.629   1.776  52.824  1.00  0.00     0.083 C 
HETATM   14  C4  UNL     1      28.078   2.264  52.766  1.00  0.00     0.022 C 
HETATM   15  C3  UNL     1      28.653   1.963  54.125  1.00  0.00     0.004 C 
HETATM   16  C2  UNL     1      28.511   0.543  54.546  1.00  0.00     0.035 C 
HETATM   17  C1  UNL     1      27.334  -0.200  54.049  1.00  0.00     0.219 C 
HETATM   18  C17 UNL     1      26.725   0.285  52.780  1.00  0.00     0.056 C 
BRANCH  17  19
HETATM   19  N1  UNL     1      26.249  -0.339  55.025  1.00  0.00     0.083 N 
HETATM   20  H1  UNL     1      25.317  -0.249  54.528  1.00  0.00     0.313 HD
HETATM   21  H2  UNL     1      26.281   0.548  55.611  1.00  0.00     0.313 HD
ENDBRANCH  17  19
ENDBRANCH   1  13
BRANCH  10  22
HETATM   22  N6  UNL     1      22.395   1.285  50.946  1.00  0.00    -0.340 N 
HETATM   23  H14 UNL     1      21.684   1.263  50.190  1.00  0.00     0.167 HD
BRANCH  22  24
HETATM   24  C11 UNL     1      22.141   0.588  52.136  1.00  0.00     0.035 A 
HETATM   25  C12 UNL     1      22.973   0.264  53.212  1.00  0.00     0.029 A 
HETATM   26  C13 UNL     1      22.459  -0.442  54.275  1.00  0.00     0.004 A 
HETATM   27  C14 UNL     1      21.153  -0.841  54.319  1.00  0.00     0.024 A 
HETATM   28  C15 UNL     1      20.311  -0.544  53.291  1.00  0.00     0.036 A 
HETATM   29 CL1  UNL     1      18.662  -1.081  53.409  1.00  0.00    -0.084 Cl
HETATM   30  C16 UNL     1      20.812   0.171  52.203  1.00  0.00     0.053 A 
ENDBRANCH  22  24
ENDBRANCH  10  22
TORSDOF 4
ENDMDL
MODEL 7
REMARK VINA RESULT:      -8.2      1.854      2.478
REMARK  4 active torsions:
REMARK  status: ('A' for Active; 'I' for Inactive)
REMARK    1  A    between atoms: N1_1  and  C1_2 
REMARK    2  A    between atoms: C5_6  and  N2_7 
REMARK    3  A    between atoms: C10_16  and  N6_17 
REMARK    4  A    between atoms: N6_17  and  C11_18 
ROOT
HETATM    1  N2  UNL     1      23.443   0.389  53.085  1.00  0.00    -0.205 NA
HETATM    2  C6  UNL     1      22.958  -0.339  54.206  1.00  0.00     0.265 C 
HETATM    3  N3  UNL     1      21.627  -0.858  54.000  1.00  0.00    -0.252 NA
HETATM    4  C7  UNL     1      20.605  -0.432  53.363  1.00  0.00     0.190 A 
HETATM    5  C8  UNL     1      20.458   0.739  52.627  1.00  0.00     0.151 A 
HETATM    6  N4  UNL     1      19.201   0.796  52.138  1.00  0.00    -0.234 NA
HETATM    7  C9  UNL     1      18.548  -0.325  52.554  1.00  0.00     0.247 A 
HETATM    8  N5  UNL     1      19.407  -1.057  53.293  1.00  0.00    -0.153 N 
HETATM    9  F1  UNL     1      19.139  -2.237  53.883  1.00  0.00    -0.091 F 
HETATM   10  C10 UNL     1      21.433   1.628  52.446  1.00  0.00     0.149 C 
HETATM   11  N7  UNL     1      22.792   1.616  52.913  1.00  0.00    -0.301 N 
HETATM   12  H19 UNL     1      23.197   2.562  53.090  1.00  0.00     0.182 HD
ENDROOT
BRANCH   1  13
HETATM   13  C5  UNL     1      24.860   0.494  53.088  1.00  0.00     0.083 C 
HETATM   14  C4  UNL     1      25.441   1.147  51.832  1.00  0.00     0.022 C 
HETATM   15  C3  UNL     1      26.820   1.609  52.225  1.00  0.00     0.004 C 
HETATM   16  C2  UNL     1      27.679   0.538  52.801  1.00  0.00     0.035 C 
HETATM   17  C1  UNL     1      27.007  -0.543  53.552  1.00  0.00     0.219 C 
HETATM   18  C17 UNL     1      25.583  -0.808  53.210  1.00  0.00     0.056 C 
BRANCH  17  19
HETATM   19  N1  UNL     1      27.086  -0.409  55.009  1.00  0.00     0.083 N 
HETATM   20  H1  UNL     1      26.112  -0.263  55.401  1.00  0.00     0.313 HD
HETATM   21  H2  UNL     1      27.544   0.536  55.182  1.00  0.00     0.313 HD
ENDBRANCH  17  19
ENDBRANCH   1  13
BRANCH  10  22
HETATM   22  N6  UNL     1      21.059   2.768  51.650  1.00  0.00    -0.340 N 
HETATM   23  H14 UNL     1      20.100   3.156  51.731  1.00  0.00     0.167 HD
BRANCH  22  24
HETATM   24  C11 UNL     1      21.962   3.373  50.762  1.00  0.00     0.035 A 
HETATM   25  C12 UNL     1      22.640   2.867  49.649  1.00  0.00     0.029 A 
HETATM   26  C13 UNL     1      23.484   3.691  48.940  1.00  0.00     0.004 A 
HETATM   27  C14 UNL     1      23.684   4.998  49.287  1.00  0.00     0.024 A 
HETATM   28  C15 UNL     1      23.040   5.527  50.364  1.00  0.00     0.036 A 
HETATM   29 CL1  UNL     1      23.339   7.195  50.751  1.00  0.00    -0.084 Cl
HETATM   30  C16 UNL     1      22.181   4.709  51.097  1.00  0.00     0.053 A 
ENDBRANCH  22  24
ENDBRANCH  10  22
TORSDOF 4
ENDMDL
MODEL 8
REMARK VINA RESULT:      -8.2      3.751      6.800
REMARK  4 active torsions:
REMARK  status: ('A' for Active; 'I' for Inactive)
REMARK    1  A    between atoms: N1_1  and  C1_2 
REMARK    2  A    between atoms: C5_6  and  N2_7 
REMARK    3  A    between atoms: C10_16  and  N6_17 
REMARK    4  A    between atoms: N6_17  and  C11_18 
ROOT
HETATM    1  N2  UNL     1      24.644   5.980  50.224  1.00  0.00    -0.205 NA
HETATM    2  C6  UNL     1      23.867   5.658  49.076  1.00  0.00     0.265 C 
HETATM    3  N3  UNL     1      22.492   5.360  49.399  1.00  0.00    -0.252 NA
HETATM    4  C7  UNL     1      21.923   4.807  50.401  1.00  0.00     0.190 A 
HETATM    5  C8  UNL     1      22.496   4.291  51.558  1.00  0.00     0.151 A 
HETATM    6  N4  UNL     1      21.522   3.784  52.343  1.00  0.00    -0.234 NA
HETATM    7  C9  UNL     1      20.337   3.972  51.698  1.00  0.00     0.247 A 
HETATM    8  N5  UNL     1      20.594   4.591  50.527  1.00  0.00    -0.153 N 
HETATM    9  F1  UNL     1      19.683   4.950  49.603  1.00  0.00    -0.091 F 
HETATM   10  C10 UNL     1      23.802   4.327  51.817  1.00  0.00     0.149 C 
HETATM   11  N7  UNL     1      24.884   4.872  51.043  1.00  0.00    -0.301 N 
HETATM   12  H19 UNL     1      25.795   4.376  51.165  1.00  0.00     0.182 HD
ENDROOT
BRANCH   1  13
HETATM   13  C5  UNL     1      25.820   6.702  49.887  1.00  0.00     0.083 C 
HETATM   14  C4  UNL     1      25.668   8.222  49.981  1.00  0.00     0.022 C 
HETATM   15  C3  UNL     1      27.072   8.757  50.085  1.00  0.00     0.004 C 
HETATM   16  C2  UNL     1      27.977   8.307  48.991  1.00  0.00     0.035 C 
HETATM   17  C1  UNL     1      27.722   6.977  48.401  1.00  0.00     0.219 C 
HETATM   18  C17 UNL     1      26.332   6.455  48.505  1.00  0.00     0.056 C 
BRANCH  17  19
HETATM   19  N1  UNL     1      28.619   5.920  48.880  1.00  0.00     0.083 N 
HETATM   20  H1  UNL     1      29.600   6.308  48.973  1.00  0.00     0.313 HD
HETATM   21  H2  UNL     1      28.719   5.243  48.064  1.00  0.00     0.313 HD
ENDBRANCH  17  19
ENDBRANCH   1  13
BRANCH  10  22
HETATM   22  N6  UNL     1      24.175   3.733  53.076  1.00  0.00    -0.340 N 
HETATM   23  H14 UNL     1      24.171   4.314  53.936  1.00  0.00     0.167 HD
BRANCH  22  24
HETATM   24  C11 UNL     1      24.548   2.384  53.170  1.00  0.00     0.035 A 
HETATM   25  C12 UNL     1      23.848   1.210  52.875  1.00  0.00     0.029 A 
HETATM   26  C13 UNL     1      24.461  -0.008  53.063  1.00  0.00     0.004 A 
HETATM   27  C14 UNL     1      25.742  -0.112  53.531  1.00  0.00     0.024 A 
HETATM   28  C15 UNL     1      26.455   1.009  53.828  1.00  0.00     0.036 A 
HETATM   29 CL1  UNL     1      28.078   0.805  54.418  1.00  0.00    -0.084 Cl
HETATM   30  C16 UNL     1      25.853   2.253  53.645  1.00  0.00     0.053 A 
ENDBRANCH  22  24
ENDBRANCH  10  22
TORSDOF 4
ENDMDL
MODEL 9
REMARK VINA RESULT:      -8.2      3.558      5.636
REMARK  4 active torsions:
REMARK  status: ('A' for Active; 'I' for Inactive)
REMARK    1  A    between atoms: N1_1  and  C1_2 
REMARK    2  A    between atoms: C5_6  and  N2_7 
REMARK    3  A    between atoms: C10_16  and  N6_17 
REMARK    4  A    between atoms: N6_17  and  C11_18 
ROOT
HETATM    1  N2  UNL     1      26.113   2.401  51.634  1.00  0.00    -0.205 NA
HETATM    2  C6  UNL     1      26.519   2.566  50.281  1.00  0.00     0.265 C 
HETATM    3  N3  UNL     1      26.036   3.796  49.701  1.00  0.00    -0.252 NA
HETATM    4  C7  UNL     1      24.971   4.485  49.856  1.00  0.00     0.190 A 
HETATM    5  C8  UNL     1      23.884   4.239  50.687  1.00  0.00     0.151 A 
HETATM    6  N4  UNL     1      22.971   5.219  50.518  1.00  0.00    -0.234 NA
HETATM    7  C9  UNL     1      23.466   6.085  49.590  1.00  0.00     0.247 A 
HETATM    8  N5  UNL     1      24.675   5.630  49.199  1.00  0.00    -0.153 N 
HETATM    9  F1  UNL     1      25.484   6.208  48.292  1.00  0.00    -0.091 F 
HETATM   10  C10 UNL     1      23.803   3.198  51.513  1.00  0.00     0.149 C 
HETATM   11  N7  UNL     1      24.744   2.139  51.761  1.00  0.00    -0.301 N 
HETATM   12  H19 UNL     1      24.309   1.228  52.027  1.00  0.00     0.182 HD
ENDROOT
BRANCH   1  13
HETATM   13  C5  UNL     1      26.934   1.473  52.329  1.00  0.00     0.083 C 
HETATM   14  C4  UNL     1      26.323   0.077  52.466  1.00  0.00     0.022 C 
HETATM   15  C3  UNL     1      27.484  -0.839  52.753  1.00  0.00     0.004 C 
HETATM   16  C2  UNL     1      28.311  -0.426  53.919  1.00  0.00     0.035 C 
HETATM   17  C1  UNL     1      28.408   1.020  54.207  1.00  0.00     0.219 C 
HETATM   18  C17 UNL     1      27.287   1.873  53.725  1.00  0.00     0.056 C 
BRANCH  17  19
HETATM   19  N1  UNL     1      29.655   1.646  53.755  1.00  0.00     0.083 N 
HETATM   20  H1  UNL     1      30.238   0.931  53.234  1.00  0.00     0.313 HD
HETATM   21  H2  UNL     1      30.227   1.806  54.638  1.00  0.00     0.313 HD
ENDBRANCH  17  19
ENDBRANCH   1  13
BRANCH  10  22
HETATM   22  N6  UNL     1      22.586   3.139  52.281  1.00  0.00    -0.340 N 
HETATM   23  H14 UNL     1      22.426   3.830  53.039  1.00  0.00     0.167 HD
BRANCH  22  24
HETATM   24  C11 UNL     1      21.605   2.168  52.031  1.00  0.00     0.035 A 
HETATM   25  C12 UNL     1      20.651   2.060  51.014  1.00  0.00     0.029 A 
HETATM   26  C13 UNL     1      19.793   0.984  51.004  1.00  0.00     0.004 A 
HETATM   27  C14 UNL     1      19.840   0.008  51.960  1.00  0.00     0.024 A 
HETATM   28  C15 UNL     1      20.756   0.078  52.965  1.00  0.00     0.036 A 
HETATM   29 CL1  UNL     1      20.763  -1.196  54.148  1.00  0.00    -0.084 Cl
HETATM   30  C16 UNL     1      21.635   1.160  52.994  1.00  0.00     0.053 A 
ENDBRANCH  22  24
ENDBRANCH  10  22
TORSDOF 4
ENDMDL
