MODEL 1
REMARK VINA RESULT:      -7.5      0.000      0.000
REMARK  8 active torsions:
REMARK  status: ('A' for Active; 'I' for Inactive)
REMARK    1  A    between atoms: C2_2  and  C3_3 
REMARK    2  A    between atoms: C3_3  and  C4_4 
REMARK    3  A    between atoms: C4_4  and  O1_5 
REMARK    4  A    between atoms: O1_5  and  C5_6 
REMARK    5  A    between atoms: C8_9  and  N1_10 
REMARK    6  A    between atoms: N1_10  and  C9_11 
REMARK    7  A    between atoms: C10_12  and  C11_13 
REMARK    8  A    between atoms: C17_21  and  O2_22 
ROOT
HETATM    1  C5  UNL     1      24.283  -0.365  53.937  1.00  0.00     0.102 A 
HETATM    2  C6  UNL     1      24.722   0.526  52.986  1.00  0.00     0.057 A 
HETATM    3  C7  UNL     1      25.986   1.026  53.200  1.00  0.00     0.042 A 
HETATM    4  C8  UNL     1      26.470   1.916  52.269  1.00  0.00     0.141 A 
HETATM    5  N2  UNL     1      27.700   2.446  52.403  1.00  0.00    -0.224 NA
HETATM    6  C14 UNL     1      28.505   2.124  53.453  1.00  0.00     0.236 A 
HETATM    7  N3  UNL     1      28.033   1.257  54.357  1.00  0.00    -0.241 NA
HETATM    8  C15 UNL     1      26.809   0.707  54.258  1.00  0.00     0.075 A 
HETATM    9  C16 UNL     1      26.331  -0.192  55.195  1.00  0.00     0.072 A 
HETATM   10  C17 UNL     1      25.055  -0.730  55.028  1.00  0.00     0.101 A 
ENDROOT
BRANCH   4  11
HETATM   11  N1  UNL     1      25.765   2.372  51.125  1.00  0.00    -0.350 N 
HETATM   12  H7  UNL     1      24.870   2.340  50.618  1.00  0.00     0.166 HD
BRANCH  11  13
HETATM   13  C9  UNL     1      26.656   3.206  50.369  1.00  0.00     0.090 C 
HETATM   14  C10 UNL     1      26.786   4.073  49.369  1.00  0.00     0.017 C 
BRANCH  14  15
HETATM   15  C11 UNL     1      27.623   4.962  48.534  1.00  0.00    -0.003 C 
HETATM   16  C12 UNL     1      27.137   6.196  48.505  1.00  0.00    -0.031 C 
HETATM   17  C13 UNL     1      25.919   6.597  49.223  1.00  0.00     0.036 C 
ENDBRANCH  14  15
ENDBRANCH  11  13
ENDBRANCH   4  11
BRANCH   1  18
HETATM   18  O1  UNL     1      23.068  -0.980  53.920  1.00  0.00    -0.347 OA
BRANCH  18  19
HETATM   19  C4  UNL     1      21.888  -0.356  54.387  1.00  0.00     0.193 C 
BRANCH  19  20
HETATM   20  C3  UNL     1      20.778  -0.572  53.429  1.00  0.00     0.093 C 
BRANCH  20  21
HETATM   21  C2  UNL     1      21.066   0.047  52.294  1.00  0.00    -0.174 C 
HETATM   22  C1  UNL     1      21.409   0.410  51.064  1.00  0.00     0.091 C 
ENDBRANCH  20  21
ENDBRANCH  19  20
ENDBRANCH  18  19
ENDBRANCH   1  18
BRANCH  10  23
HETATM   23  O2  UNL     1      24.658  -1.623  56.014  1.00  0.00    -0.358 OA
HETATM   24  H17 UNL     1      24.341  -2.546  55.747  1.00  0.00     0.217 HD
ENDBRANCH  10  23
TORSDOF 8
ENDMDL
MODEL 2
REMARK VINA RESULT:      -7.3      2.656      6.703
REMARK  8 active torsions:
REMARK  status: ('A' for Active; 'I' for Inactive)
REMARK    1  A    between atoms: C2_2  and  C3_3 
REMARK    2  A    between atoms: C3_3  and  C4_4 
REMARK    3  A    between atoms: C4_4  and  O1_5 
REMARK    4  A    between atoms: O1_5  and  C5_6 
REMARK    5  A    between atoms: C8_9  and  N1_10 
REMARK    6  A    between atoms: N1_10  and  C9_11 
REMARK    7  A    between atoms: C10_12  and  C11_13 
REMARK    8  A    between atoms: C17_21  and  O2_22 
ROOT
HETATM    1  C5  UNL     1      26.751   2.097  52.045  1.00  0.00     0.102 A 
HETATM    2  C6  UNL     1      25.490   1.549  52.093  1.00  0.00     0.057 A 
HETATM    3  C7  UNL     1      25.275   0.684  53.142  1.00  0.00     0.042 A 
HETATM    4  C8  UNL     1      24.025   0.117  53.235  1.00  0.00     0.141 A 
HETATM    5  N2  UNL     1      23.732  -0.735  54.236  1.00  0.00    -0.224 NA
HETATM    6  C14 UNL     1      24.652  -1.065  55.184  1.00  0.00     0.236 A 
HETATM    7  N3  UNL     1      25.868  -0.511  55.092  1.00  0.00    -0.241 NA
HETATM    8  C15 UNL     1      26.198   0.343  54.107  1.00  0.00     0.075 A 
HETATM    9  C16 UNL     1      27.456   0.915  54.023  1.00  0.00     0.072 A 
HETATM   10  C17 UNL     1      27.729   1.799  52.980  1.00  0.00     0.101 A 
ENDROOT
BRANCH   4  11
HETATM   11  N1  UNL     1      22.955   0.337  52.330  1.00  0.00    -0.350 N 
HETATM   12  H7  UNL     1      22.683   0.761  51.432  1.00  0.00     0.166 HD
BRANCH  11  13
HETATM   13  C9  UNL     1      21.780  -0.269  52.891  1.00  0.00     0.090 C 
HETATM   14  C10 UNL     1      20.452  -0.333  52.885  1.00  0.00     0.017 C 
BRANCH  14  15
HETATM   15  C11 UNL     1      19.185  -0.899  53.398  1.00  0.00    -0.003 C 
HETATM   16  C12 UNL     1      18.180  -0.670  52.564  1.00  0.00    -0.031 C 
HETATM   17  C13 UNL     1      18.337   0.057  51.296  1.00  0.00     0.036 C 
ENDBRANCH  14  15
ENDBRANCH  11  13
ENDBRANCH   4  11
BRANCH   1  18
HETATM   18  O1  UNL     1      27.177   2.976  51.095  1.00  0.00    -0.347 OA
BRANCH  18  19
HETATM   19  C4  UNL     1      26.543   3.113  49.839  1.00  0.00     0.193 C 
BRANCH  19  20
HETATM   20  C3  UNL     1      26.262   4.542  49.559  1.00  0.00     0.093 C 
BRANCH  20  21
HETATM   21  C2  UNL     1      27.261   5.042  48.848  1.00  0.00    -0.174 C 
HETATM   22  C1  UNL     1      28.419   5.377  48.293  1.00  0.00     0.091 C 
ENDBRANCH  20  21
ENDBRANCH  19  20
ENDBRANCH  18  19
ENDBRANCH   1  18
BRANCH  10  23
HETATM   23  O2  UNL     1      29.015   2.323  52.974  1.00  0.00    -0.358 OA
HETATM   24  H17 UNL     1      29.403   2.671  52.107  1.00  0.00     0.217 HD
ENDBRANCH  10  23
TORSDOF 8
ENDMDL
MODEL 3
REMARK VINA RESULT:      -7.1      2.955      5.507
REMARK  8 active torsions:
REMARK  status: ('A' for Active; 'I' for Inactive)
REMARK    1  A    between atoms: C2_2  and  C3_3 
REMARK    2  A    between atoms: C3_3  and  C4_4 
REMARK    3  A    between atoms: C4_4  and  O1_5 
REMARK    4  A    between atoms: O1_5  and  C5_6 
REMARK    5  A    between atoms: C8_9  and  N1_10 
REMARK    6  A    between atoms: N1_10  and  C9_11 
REMARK    7  A    between atoms: C10_12  and  C11_13 
REMARK    8  A    between atoms: C17_21  and  O2_22 
ROOT
HETATM    1  C5  UNL     1      26.789   2.025  52.069  1.00  0.00     0.102 A 
HETATM    2  C6  UNL     1      25.555   1.422  52.142  1.00  0.00     0.057 A 
HETATM    3  C7  UNL     1      25.370   0.612  53.240  1.00  0.00     0.042 A 
HETATM    4  C8  UNL     1      24.147  -0.006  53.359  1.00  0.00     0.141 A 
HETATM    5  N2  UNL     1      23.884  -0.809  54.407  1.00  0.00    -0.224 NA
HETATM    6  C14 UNL     1      24.809  -1.037  55.380  1.00  0.00     0.236 A 
HETATM    7  N3  UNL     1      25.999  -0.434  55.263  1.00  0.00    -0.241 NA
HETATM    8  C15 UNL     1      26.298   0.375  54.230  1.00  0.00     0.075 A 
HETATM    9  C16 UNL     1      27.529   0.999  54.120  1.00  0.00     0.072 A 
HETATM   10  C17 UNL     1      27.771   1.830  53.028  1.00  0.00     0.101 A 
ENDROOT
BRANCH   4  11
HETATM   11  N1  UNL     1      23.076   0.108  52.434  1.00  0.00    -0.350 N 
HETATM   12  H7  UNL     1      22.580  -0.350  51.658  1.00  0.00     0.166 HD
BRANCH  11  13
HETATM   13  C9  UNL     1      22.430   1.368  52.672  1.00  0.00     0.090 C 
HETATM   14  C10 UNL     1      21.940   2.484  52.139  1.00  0.00     0.017 C 
BRANCH  14  15
HETATM   15  C11 UNL     1      21.276   3.798  52.283  1.00  0.00    -0.003 C 
HETATM   16  C12 UNL     1      22.161   4.785  52.312  1.00  0.00    -0.031 C 
HETATM   17  C13 UNL     1      23.612   4.569  52.214  1.00  0.00     0.036 C 
ENDBRANCH  14  15
ENDBRANCH  11  13
ENDBRANCH   4  11
BRANCH   1  18
HETATM   18  O1  UNL     1      27.184   2.864  51.071  1.00  0.00    -0.347 OA
BRANCH  18  19
HETATM   19  C4  UNL     1      26.460   3.013  49.866  1.00  0.00     0.193 C 
BRANCH  19  20
HETATM   20  C3  UNL     1      26.274   4.450  49.552  1.00  0.00     0.093 C 
BRANCH  20  21
HETATM   21  C2  UNL     1      27.294   4.862  48.814  1.00  0.00    -0.174 C 
HETATM   22  C1  UNL     1      28.447   5.295  48.319  1.00  0.00     0.091 C 
ENDBRANCH  20  21
ENDBRANCH  19  20
ENDBRANCH  18  19
ENDBRANCH   1  18
BRANCH  10  23
HETATM   23  O2  UNL     1      29.031   2.413  52.999  1.00  0.00    -0.358 OA
HETATM   24  H17 UNL     1      29.175   3.302  53.460  1.00  0.00     0.217 HD
ENDBRANCH  10  23
TORSDOF 8
ENDMDL
MODEL 4
REMARK VINA RESULT:      -7.0      1.739      2.532
REMARK  8 active torsions:
REMARK  status: ('A' for Active; 'I' for Inactive)
REMARK    1  A    between atoms: C2_2  and  C3_3 
REMARK    2  A    between atoms: C3_3  and  C4_4 
REMARK    3  A    between atoms: C4_4  and  O1_5 
REMARK    4  A    between atoms: O1_5  and  C5_6 
REMARK    5  A    between atoms: C8_9  and  N1_10 
REMARK    6  A    between atoms: N1_10  and  C9_11 
REMARK    7  A    between atoms: C10_12  and  C11_13 
REMARK    8  A    between atoms: C17_21  and  O2_22 
ROOT
HETATM    1  C5  UNL     1      24.560  -0.453  53.769  1.00  0.00     0.102 A 
HETATM    2  C6  UNL     1      25.051   0.407  52.814  1.00  0.00     0.057 A 
HETATM    3  C7  UNL     1      26.254   0.997  53.129  1.00  0.00     0.042 A 
HETATM    4  C8  UNL     1      26.786   1.859  52.198  1.00  0.00     0.141 A 
HETATM    5  N2  UNL     1      27.962   2.473  52.427  1.00  0.00    -0.224 NA
HETATM    6  C14 UNL     1      28.663   2.265  53.576  1.00  0.00     0.236 A 
HETATM    7  N3  UNL     1      28.143   1.424  54.480  1.00  0.00    -0.241 NA
HETATM    8  C15 UNL     1      26.971   0.794  54.287  1.00  0.00     0.075 A 
HETATM    9  C16 UNL     1      26.444  -0.078  55.224  1.00  0.00     0.072 A 
HETATM   10  C17 UNL     1      25.227  -0.704  54.957  1.00  0.00     0.101 A 
ENDROOT
BRANCH   4  11
HETATM   11  N1  UNL     1      26.187   2.201  50.958  1.00  0.00    -0.350 N 
HETATM   12  H7  UNL     1      26.116   1.958  49.960  1.00  0.00     0.166 HD
BRANCH  11  13
HETATM   13  C9  UNL     1      25.349   3.345  51.180  1.00  0.00     0.090 C 
HETATM   14  C10 UNL     1      24.138   3.791  51.497  1.00  0.00     0.017 C 
BRANCH  14  15
HETATM   15  C11 UNL     1      23.197   4.906  51.747  1.00  0.00    -0.003 C 
HETATM   16  C12 UNL     1      21.993   4.458  52.073  1.00  0.00    -0.031 C 
HETATM   17  C13 UNL     1      21.664   3.028  52.166  1.00  0.00     0.036 C 
ENDBRANCH  14  15
ENDBRANCH  11  13
ENDBRANCH   4  11
BRANCH   1  18
HETATM   18  O1  UNL     1      23.391  -1.143  53.663  1.00  0.00    -0.347 OA
BRANCH  18  19
HETATM   19  C4  UNL     1      22.248  -0.618  53.017  1.00  0.00     0.193 C 
BRANCH  19  20
HETATM   20  C3  UNL     1      21.185  -0.328  54.009  1.00  0.00     0.093 C 
BRANCH  20  21
HETATM   21  C2  UNL     1      20.027  -0.216  53.374  1.00  0.00    -0.174 C 
HETATM   22  C1  UNL     1      18.928  -0.359  52.643  1.00  0.00     0.091 C 
ENDBRANCH  20  21
ENDBRANCH  19  20
ENDBRANCH  18  19
ENDBRANCH   1  18
BRANCH  10  23
HETATM   23  O2  UNL     1      24.775  -1.560  55.952  1.00  0.00    -0.358 OA
HETATM   24  H17 UNL     1      24.813  -1.260  56.918  1.00  0.00     0.217 HD
ENDBRANCH  10  23
TORSDOF 8
ENDMDL
MODEL 5
REMARK VINA RESULT:      -7.0      3.119      5.463
REMARK  8 active torsions:
REMARK  status: ('A' for Active; 'I' for Inactive)
REMARK    1  A    between atoms: C2_2  and  C3_3 
REMARK    2  A    between atoms: C3_3  and  C4_4 
REMARK    3  A    between atoms: C4_4  and  O1_5 
REMARK    4  A    between atoms: O1_5  and  C5_6 
REMARK    5  A    between atoms: C8_9  and  N1_10 
REMARK    6  A    between atoms: N1_10  and  C9_11 
REMARK    7  A    between atoms: C10_12  and  C11_13 
REMARK    8  A    between atoms: C17_21  and  O2_22 
ROOT
HETATM    1  C5  UNL     1      23.534  -0.667  53.805  1.00  0.00     0.102 A 
HETATM    2  C6  UNL     1      23.015  -0.139  52.646  1.00  0.00     0.057 A 
HETATM    3  C7  UNL     1      21.641  -0.146  52.571  1.00  0.00     0.042 A 
HETATM    4  C8  UNL     1      21.077   0.380  51.432  1.00  0.00     0.141 A 
HETATM    5  N2  UNL     1      19.740   0.417  51.283  1.00  0.00    -0.224 NA
HETATM    6  C14 UNL     1      18.902  -0.060  52.246  1.00  0.00     0.236 A 
HETATM    7  N3  UNL     1      19.453  -0.571  53.354  1.00  0.00    -0.241 NA
HETATM    8  C15 UNL     1      20.784  -0.625  53.538  1.00  0.00     0.075 A 
HETATM    9  C16 UNL     1      21.345  -1.150  54.689  1.00  0.00     0.072 A 
HETATM   10  C17 UNL     1      22.733  -1.168  54.819  1.00  0.00     0.101 A 
ENDROOT
BRANCH   4  11
HETATM   11  N1  UNL     1      21.796   0.906  50.327  1.00  0.00    -0.350 N 
HETATM   12  H7  UNL     1      22.237   0.683  49.424  1.00  0.00     0.166 HD
BRANCH  11  13
HETATM   13  C9  UNL     1      21.994   2.308  50.565  1.00  0.00     0.090 C 
HETATM   14  C10 UNL     1      22.201   3.265  51.465  1.00  0.00     0.017 C 
BRANCH  14  15
HETATM   15  C11 UNL     1      22.413   4.688  51.810  1.00  0.00    -0.003 C 
HETATM   16  C12 UNL     1      23.371   4.828  52.715  1.00  0.00    -0.031 C 
HETATM   17  C13 UNL     1      24.112   3.694  53.285  1.00  0.00     0.036 C 
ENDBRANCH  14  15
ENDBRANCH  11  13
ENDBRANCH   4  11
BRANCH   1  18
HETATM   18  O1  UNL     1      24.864  -0.758  54.088  1.00  0.00    -0.347 OA
BRANCH  18  19
HETATM   19  C4  UNL     1      25.769   0.303  53.857  1.00  0.00     0.193 C 
BRANCH  19  20
HETATM   20  C3  UNL     1      26.689  -0.039  52.746  1.00  0.00     0.093 C 
BRANCH  20  21
HETATM   21  C2  UNL     1      26.635   0.921  51.835  1.00  0.00    -0.174 C 
HETATM   22  C1  UNL     1      26.465   2.032  51.128  1.00  0.00     0.091 C 
ENDBRANCH  20  21
ENDBRANCH  19  20
ENDBRANCH  18  19
ENDBRANCH   1  18
BRANCH  10  23
HETATM   23  O2  UNL     1      23.207  -1.712  56.005  1.00  0.00    -0.358 OA
HETATM   24  H17 UNL     1      22.802  -2.572  56.352  1.00  0.00     0.217 HD
ENDBRANCH  10  23
TORSDOF 8
ENDMDL
MODEL 6
REMARK VINA RESULT:      -6.9      2.620      5.055
REMARK  8 active torsions:
REMARK  status: ('A' for Active; 'I' for Inactive)
REMARK    1  A    between atoms: C2_2  and  C3_3 
REMARK    2  A    between atoms: C3_3  and  C4_4 
REMARK    3  A    between atoms: C4_4  and  O1_5 
REMARK    4  A    between atoms: O1_5  and  C5_6 
REMARK    5  A    between atoms: C8_9  and  N1_10 
REMARK    6  A    between atoms: N1_10  and  C9_11 
REMARK    7  A    between atoms: C10_12  and  C11_13 
REMARK    8  A    between atoms: C17_21  and  O2_22 
ROOT
HETATM    1  C5  UNL     1      24.118  -0.653  54.162  1.00  0.00     0.102 A 
HETATM    2  C6  UNL     1      23.815   0.082  53.040  1.00  0.00     0.057 A 
HETATM    3  C7  UNL     1      22.471   0.291  52.830  1.00  0.00     0.042 A 
HETATM    4  C8  UNL     1      22.121   1.028  51.722  1.00  0.00     0.141 A 
HETATM    5  N2  UNL     1      20.828   1.282  51.449  1.00  0.00    -0.224 NA
HETATM    6  C14 UNL     1      19.826   0.824  52.250  1.00  0.00     0.236 A 
HETATM    7  N3  UNL     1      20.169   0.108  53.328  1.00  0.00    -0.241 NA
HETATM    8  C15 UNL     1      21.450  -0.167  53.633  1.00  0.00     0.075 A 
HETATM    9  C16 UNL     1      21.795  -0.904  54.753  1.00  0.00     0.072 A 
HETATM   10  C17 UNL     1      23.143  -1.146  55.015  1.00  0.00     0.101 A 
ENDROOT
BRANCH   4  11
HETATM   11  N1  UNL     1      23.029   1.569  50.775  1.00  0.00    -0.350 N 
HETATM   12  H7  UNL     1      23.709   1.344  50.035  1.00  0.00     0.166 HD
BRANCH  11  13
HETATM   13  C9  UNL     1      22.991   2.998  50.902  1.00  0.00     0.090 C 
HETATM   14  C10 UNL     1      23.640   4.099  51.268  1.00  0.00     0.017 C 
BRANCH  14  15
HETATM   15  C11 UNL     1      23.696   5.568  51.436  1.00  0.00    -0.003 C 
HETATM   16  C12 UNL     1      24.617   6.109  50.651  1.00  0.00    -0.031 C 
HETATM   17  C13 UNL     1      25.461   5.322  49.739  1.00  0.00     0.036 C 
ENDBRANCH  14  15
ENDBRANCH  11  13
ENDBRANCH   4  11
BRANCH   1  18
HETATM   18  O1  UNL     1      25.380  -0.975  54.560  1.00  0.00    -0.347 OA
BRANCH  18  19
HETATM   19  C4  UNL     1      26.524  -0.270  54.121  1.00  0.00     0.193 C 
BRANCH  19  20
HETATM   20  C3  UNL     1      27.234  -1.043  53.072  1.00  0.00     0.093 C 
BRANCH  20  21
HETATM   21  C2  UNL     1      28.539  -0.926  53.265  1.00  0.00    -0.174 C 
HETATM   22  C1  UNL     1      29.796  -0.955  53.691  1.00  0.00     0.091 C 
ENDBRANCH  20  21
ENDBRANCH  19  20
ENDBRANCH  18  19
ENDBRANCH   1  18
BRANCH  10  23
HETATM   23  O2  UNL     1      23.396  -1.893  56.157  1.00  0.00    -0.358 OA
HETATM   24  H17 UNL     1      22.774  -2.653  56.399  1.00  0.00     0.217 HD
ENDBRANCH  10  23
TORSDOF 8
ENDMDL
MODEL 7
REMARK VINA RESULT:      -6.8      2.591      4.978
REMARK  8 active torsions:
REMARK  status: ('A' for Active; 'I' for Inactive)
REMARK    1  A    between atoms: C2_2  and  C3_3 
REMARK    2  A    between atoms: C3_3  and  C4_4 
REMARK    3  A    between atoms: C4_4  and  O1_5 
REMARK    4  A    between atoms: O1_5  and  C5_6 
REMARK    5  A    between atoms: C8_9  and  N1_10 
REMARK    6  A    between atoms: N1_10  and  C9_11 
REMARK    7  A    between atoms: C10_12  and  C11_13 
REMARK    8  A    between atoms: C17_21  and  O2_22 
ROOT
HETATM    1  C5  UNL     1      25.859   1.664  53.778  1.00  0.00     0.102 A 
HETATM    2  C6  UNL     1      25.234   2.850  53.474  1.00  0.00     0.057 A 
HETATM    3  C7  UNL     1      23.980   2.719  52.921  1.00  0.00     0.042 A 
HETATM    4  C8  UNL     1      23.313   3.881  52.608  1.00  0.00     0.141 A 
HETATM    5  N2  UNL     1      22.080   3.839  52.070  1.00  0.00    -0.224 NA
HETATM    6  C14 UNL     1      21.452   2.657  51.817  1.00  0.00     0.236 A 
HETATM    7  N3  UNL     1      22.103   1.528  52.124  1.00  0.00    -0.241 NA
HETATM    8  C15 UNL     1      23.335   1.529  52.662  1.00  0.00     0.075 A 
HETATM    9  C16 UNL     1      23.998   0.357  52.980  1.00  0.00     0.072 A 
HETATM   10  C17 UNL     1      25.272   0.431  53.543  1.00  0.00     0.101 A 
ENDROOT
BRANCH   4  11
HETATM   11  N1  UNL     1      23.820   5.193  52.790  1.00  0.00    -0.350 N 
HETATM   12  H7  UNL     1      24.181   5.871  53.477  1.00  0.00     0.166 HD
BRANCH  11  13
HETATM   13  C9  UNL     1      23.832   5.837  51.507  1.00  0.00     0.090 C 
HETATM   14  C10 UNL     1      24.229   5.782  50.239  1.00  0.00     0.017 C 
BRANCH  14  15
HETATM   15  C11 UNL     1      24.296   6.365  48.881  1.00  0.00    -0.003 C 
HETATM   16  C12 UNL     1      25.497   6.204  48.345  1.00  0.00    -0.031 C 
HETATM   17  C13 UNL     1      26.604   5.527  49.037  1.00  0.00     0.036 C 
ENDBRANCH  14  15
ENDBRANCH  11  13
ENDBRANCH   4  11
BRANCH   1  18
HETATM   18  O1  UNL     1      27.100   1.561  54.331  1.00  0.00    -0.347 OA
BRANCH  18  19
HETATM   19  C4  UNL     1      28.287   1.791  53.598  1.00  0.00     0.193 C 
BRANCH  19  20
HETATM   20  C3  UNL     1      29.403   0.995  54.163  1.00  0.00     0.093 C 
BRANCH  20  21
HETATM   21  C2  UNL     1      29.362  -0.225  53.648  1.00  0.00    -0.174 C 
HETATM   22  C1  UNL     1      29.411  -1.525  53.384  1.00  0.00     0.091 C 
ENDBRANCH  20  21
ENDBRANCH  19  20
ENDBRANCH  18  19
ENDBRANCH   1  18
BRANCH  10  23
HETATM   23  O2  UNL     1      25.861  -0.793  53.830  1.00  0.00    -0.358 OA
HETATM   24  H17 UNL     1      26.866  -0.845  53.940  1.00  0.00     0.217 HD
ENDBRANCH  10  23
TORSDOF 8
ENDMDL
MODEL 8
REMARK VINA RESULT:      -6.8      3.077      5.868
REMARK  8 active torsions:
REMARK  status: ('A' for Active; 'I' for Inactive)
REMARK    1  A    between atoms: C2_2  and  C3_3 
REMARK    2  A    between atoms: C3_3  and  C4_4 
REMARK    3  A    between atoms: C4_4  and  O1_5 
REMARK    4  A    between atoms: O1_5  and  C5_6 
REMARK    5  A    between atoms: C8_9  and  N1_10 
REMARK    6  A    between atoms: N1_10  and  C9_11 
REMARK    7  A    between atoms: C10_12  and  C11_13 
REMARK    8  A    between atoms: C17_21  and  O2_22 
ROOT
HETATM    1  C5  UNL     1      21.410   0.762  51.680  1.00  0.00     0.102 A 
HETATM    2  C6  UNL     1      22.705   0.610  52.118  1.00  0.00     0.057 A 
HETATM    3  C7  UNL     1      22.842  -0.107  53.285  1.00  0.00     0.042 A 
HETATM    4  C8  UNL     1      24.122  -0.290  53.757  1.00  0.00     0.141 A 
HETATM    5  N2  UNL     1      24.341  -0.985  54.888  1.00  0.00    -0.224 NA
HETATM    6  C14 UNL     1      23.316  -1.528  55.602  1.00  0.00     0.236 A 
HETATM    7  N3  UNL     1      22.072  -1.349  55.140  1.00  0.00    -0.241 NA
HETATM    8  C15 UNL     1      21.813  -0.661  54.014  1.00  0.00     0.075 A 
HETATM    9  C16 UNL     1      20.524  -0.485  53.542  1.00  0.00     0.072 A 
HETATM   10  C17 UNL     1      20.327   0.233  52.363  1.00  0.00     0.101 A 
ENDROOT
BRANCH   4  11
HETATM   11  N1  UNL     1      25.300   0.216  53.150  1.00  0.00    -0.350 N 
HETATM   12  H7  UNL     1      25.702   0.990  52.603  1.00  0.00     0.166 HD
BRANCH  11  13
HETATM   13  C9  UNL     1      26.353  -0.731  53.389  1.00  0.00     0.090 C 
HETATM   14  C10 UNL     1      27.283  -1.518  52.856  1.00  0.00     0.017 C 
BRANCH  14  15
HETATM   15  C11 UNL     1      28.382  -2.498  53.002  1.00  0.00    -0.003 C 
HETATM   16  C12 UNL     1      29.521  -1.902  53.326  1.00  0.00    -0.031 C 
HETATM   17  C13 UNL     1      29.644  -0.448  53.511  1.00  0.00     0.036 C 
ENDBRANCH  14  15
ENDBRANCH  11  13
ENDBRANCH   4  11
BRANCH   1  18
HETATM   18  O1  UNL     1      21.048   1.432  50.551  1.00  0.00    -0.347 OA
BRANCH  18  19
HETATM   19  C4  UNL     1      21.211   0.891  49.254  1.00  0.00     0.193 C 
BRANCH  19  20
HETATM   20  C3  UNL     1      21.693   1.936  48.319  1.00  0.00     0.093 C 
BRANCH  20  21
HETATM   21  C2  UNL     1      22.714   2.570  48.877  1.00  0.00    -0.174 C 
HETATM   22  C1  UNL     1      23.801   3.273  49.173  1.00  0.00     0.091 C 
ENDBRANCH  20  21
ENDBRANCH  19  20
ENDBRANCH  18  19
ENDBRANCH   1  18
BRANCH  10  23
HETATM   23  O2  UNL     1      19.003   0.359  51.965  1.00  0.00    -0.358 OA
HETATM   24  H17 UNL     1      18.284  -0.145  52.469  1.00  0.00     0.217 HD
ENDBRANCH  10  23
TORSDOF 8
ENDMDL
MODEL 9
REMARK VINA RESULT:      -6.8      3.023      5.327
REMARK  8 active torsions:
REMARK  status: ('A' for Active; 'I' for Inactive)
REMARK    1  A    between atoms: C2_2  and  C3_3 
REMARK    2  A    between atoms: C3_3  and  C4_4 
REMARK    3  A    between atoms: C4_4  and  O1_5 
REMARK    4  A    between atoms: O1_5  and  C5_6 
REMARK    5  A    between atoms: C8_9  and  N1_10 
REMARK    6  A    between atoms: N1_10  and  C9_11 
REMARK    7  A    between atoms: C10_12  and  C11_13 
REMARK    8  A    between atoms: C17_21  and  O2_22 
ROOT
HETATM    1  C5  UNL     1      24.125  -0.594  54.199  1.00  0.00     0.102 A 
HETATM    2  C6  UNL     1      23.875   0.192  53.099  1.00  0.00     0.057 A 
HETATM    3  C7  UNL     1      22.542   0.378  52.811  1.00  0.00     0.042 A 
HETATM    4  C8  UNL     1      22.245   1.165  51.722  1.00  0.00     0.141 A 
HETATM    5  N2  UNL     1      20.965   1.401  51.377  1.00  0.00    -0.224 NA
HETATM    6  C14 UNL     1      19.927   0.877  52.086  1.00  0.00     0.236 A 
HETATM    7  N3  UNL     1      20.219   0.112  53.145  1.00  0.00    -0.241 NA
HETATM    8  C15 UNL     1      21.485  -0.147  53.520  1.00  0.00     0.075 A 
HETATM    9  C16 UNL     1      21.777  -0.934  54.620  1.00  0.00     0.072 A 
HETATM   10  C17 UNL     1      23.112  -1.157  54.958  1.00  0.00     0.101 A 
ENDROOT
BRANCH   4  11
HETATM   11  N1  UNL     1      23.197   1.778  50.867  1.00  0.00    -0.350 N 
HETATM   12  H7  UNL     1      24.161   2.132  50.795  1.00  0.00     0.166 HD
BRANCH  11  13
HETATM   13  C9  UNL     1      22.565   1.997  49.597  1.00  0.00     0.090 C 
HETATM   14  C10 UNL     1      22.532   2.719  48.481  1.00  0.00     0.017 C 
BRANCH  14  15
HETATM   15  C11 UNL     1      21.946   3.022  47.157  1.00  0.00    -0.003 C 
HETATM   16  C12 UNL     1      22.101   4.300  46.841  1.00  0.00    -0.031 C 
HETATM   17  C13 UNL     1      22.774   5.270  47.717  1.00  0.00     0.036 C 
ENDBRANCH  14  15
ENDBRANCH  11  13
ENDBRANCH   4  11
BRANCH   1  18
HETATM   18  O1  UNL     1      25.368  -0.906  54.662  1.00  0.00    -0.347 OA
BRANCH  18  19
HETATM   19  C4  UNL     1      26.539  -0.733  53.889  1.00  0.00     0.193 C 
BRANCH  19  20
HETATM   20  C3  UNL     1      27.546   0.046  54.649  1.00  0.00     0.093 C 
BRANCH  20  21
HETATM   21  C2  UNL     1      28.752  -0.249  54.187  1.00  0.00    -0.174 C 
HETATM   22  C1  UNL     1      29.822  -0.719  53.557  1.00  0.00     0.091 C 
ENDBRANCH  20  21
ENDBRANCH  19  20
ENDBRANCH  18  19
ENDBRANCH   1  18
BRANCH  10  23
HETATM   23  O2  UNL     1      23.311  -1.957  56.075  1.00  0.00    -0.358 OA
HETATM   24  H17 UNL     1      22.824  -1.737  56.934  1.00  0.00     0.217 HD
ENDBRANCH  10  23
TORSDOF 8
ENDMDL
