MODEL 1
REMARK VINA RESULT:      -9.2      0.000      0.000
REMARK  4 active torsions:
REMARK  status: ('A' for Active; 'I' for Inactive)
REMARK    1  A    between atoms: O1_2  and  C2_3 
REMARK    2  A    between atoms: C5_6  and  O2_7 
REMARK    3  A    between atoms: C12_15  and  C13_16 
REMARK    4  A    between atoms: N4_25  and  N5_26 
ROOT
HETATM    1  C2  UNL     1      28.969   8.780  47.031  1.00  0.00     0.064 C 
HETATM    2  C3  UNL     1      27.979   9.158  46.238  1.00  0.00     0.016 C 
HETATM    3  C4  UNL     1      26.566   8.816  45.941  1.00  0.00     0.096 C 
HETATM    4  C5  UNL     1      25.820   8.330  47.130  1.00  0.00     0.072 C 
HETATM    5  C7  UNL     1      25.970   7.314  47.998  1.00  0.00     0.049 C 
HETATM    6  N1  UNL     1      24.986   7.221  49.022  1.00  0.00    -0.363 N 
HETATM    7  C8  UNL     1      25.593   6.383  50.064  1.00  0.00     0.254 C 
HETATM    8  C9  UNL     1      26.378   5.449  49.290  1.00  0.00    -0.021 C 
HETATM    9  C10 UNL     1      26.747   4.160  49.264  1.00  0.00     0.010 C 
HETATM   10  C11 UNL     1      26.412   3.071  50.180  1.00  0.00     0.034 C 
HETATM   11  C12 UNL     1      25.491   2.776  51.055  1.00  0.00     0.091 C 
HETATM   12  N2  UNL     1      24.359   3.535  51.446  1.00  0.00    -0.131 NA
HETATM   13  N3  UNL     1      24.055   4.740  51.429  1.00  0.00    -0.052 NA
HETATM   14  N4  UNL     1      24.673   5.924  51.019  1.00  0.00    -0.189 N 
HETATM   15  C19 UNL     1      26.962   6.229  48.135  1.00  0.00     0.093 C 
HETATM   16  C20 UNL     1      28.320   6.737  48.518  1.00  0.00    -0.009 C 
HETATM   17  C21 UNL     1      29.056   7.739  48.050  1.00  0.00     0.033 C 
HETATM   18  H10 UNL     1      24.021   7.663  49.030  1.00  0.00     0.162 HD
ENDROOT
BRANCH  11  19
HETATM   19  C13 UNL     1      25.567   1.513  51.768  1.00  0.00    -0.004 A 
HETATM   20  C14 UNL     1      26.623   0.648  51.889  1.00  0.00     0.014 A 
HETATM   21  C15 UNL     1      26.621  -0.534  52.580  1.00  0.00     0.002 A 
HETATM   22  C16 UNL     1      25.473  -0.931  53.227  1.00  0.00     0.019 A 
HETATM   23  C17 UNL     1      24.376  -0.110  53.145  1.00  0.00     0.011 A 
HETATM   24 BR1  UNL     1      22.764  -0.618  54.024  1.00  0.00    -0.051 Br
HETATM   25  C18 UNL     1      24.454   1.058  52.435  1.00  0.00     0.033 A 
ENDBRANCH  11  19
BRANCH  14  26
HETATM   26  N5  UNL     1      24.271   7.052  51.790  1.00  0.00    -0.227 NA
HETATM   27  H18 UNL     1      24.940   7.823  51.569  1.00  0.00     0.145 HD
HETATM   28  H19 UNL     1      24.538   6.757  52.775  1.00  0.00     0.145 HD
ENDBRANCH  14  26
BRANCH   4  29
HETATM   29  O2  UNL     1      24.680   9.083  47.462  1.00  0.00    -0.358 OA
HETATM   30  C6  UNL     1      24.610  10.470  47.356  1.00  0.00     0.209 C 
ENDBRANCH   4  29
BRANCH   1  31
HETATM   31  O1  UNL     1      30.200   9.409  46.978  1.00  0.00    -0.356 OA
HETATM   32  C1  UNL     1      30.901   9.674  48.169  1.00  0.00     0.210 C 
ENDBRANCH   1  31
TORSDOF 4
ENDMDL
MODEL 2
REMARK VINA RESULT:      -9.0      4.730      8.935
REMARK  4 active torsions:
REMARK  status: ('A' for Active; 'I' for Inactive)
REMARK    1  A    between atoms: O1_2  and  C2_3 
REMARK    2  A    between atoms: C5_6  and  O2_7 
REMARK    3  A    between atoms: C12_15  and  C13_16 
REMARK    4  A    between atoms: N4_25  and  N5_26 
ROOT
HETATM    1  C2  UNL     1      19.153   2.638  51.822  1.00  0.00     0.064 C 
HETATM    2  C3  UNL     1      19.180   1.320  51.695  1.00  0.00     0.016 C 
HETATM    3  C4  UNL     1      20.099   0.238  51.261  1.00  0.00     0.096 C 
HETATM    4  C5  UNL     1      21.526   0.534  51.548  1.00  0.00     0.072 C 
HETATM    5  C7  UNL     1      22.383   1.511  51.204  1.00  0.00     0.049 C 
HETATM    6  N1  UNL     1      23.703   1.392  51.722  1.00  0.00    -0.363 N 
HETATM    7  C8  UNL     1      24.281   2.737  51.617  1.00  0.00     0.254 C 
HETATM    8  C9  UNL     1      23.684   3.236  50.398  1.00  0.00    -0.021 C 
HETATM    9  C10 UNL     1      23.971   3.977  49.319  1.00  0.00     0.010 C 
HETATM   10  C11 UNL     1      25.215   4.650  48.949  1.00  0.00     0.034 C 
HETATM   11  C12 UNL     1      26.489   4.570  49.215  1.00  0.00     0.091 C 
HETATM   12  N2  UNL     1      27.163   3.667  50.076  1.00  0.00    -0.131 NA
HETATM   13  N3  UNL     1      26.842   2.980  51.061  1.00  0.00    -0.052 NA
HETATM   14  N4  UNL     1      25.673   2.764  51.794  1.00  0.00    -0.189 N 
HETATM   15  C19 UNL     1      22.261   2.729  50.377  1.00  0.00     0.093 C 
HETATM   16  C20 UNL     1      21.361   3.756  50.995  1.00  0.00    -0.009 C 
HETATM   17  C21 UNL     1      20.155   3.663  51.544  1.00  0.00     0.033 C 
HETATM   18  H10 UNL     1      24.168   0.516  52.102  1.00  0.00     0.162 HD
ENDROOT
BRANCH  11  19
HETATM   19  C13 UNL     1      27.407   5.499  48.580  1.00  0.00    -0.004 A 
HETATM   20  C14 UNL     1      27.168   6.754  48.087  1.00  0.00     0.014 A 
HETATM   21  C15 UNL     1      28.089   7.577  47.496  1.00  0.00     0.002 A 
HETATM   22  C16 UNL     1      29.389   7.142  47.362  1.00  0.00     0.019 A 
HETATM   23  C17 UNL     1      29.697   5.891  47.835  1.00  0.00     0.011 A 
HETATM   24 BR1  UNL     1      31.482   5.248  47.672  1.00  0.00    -0.051 Br
HETATM   25  C18 UNL     1      28.722   5.126  48.415  1.00  0.00     0.033 A 
ENDBRANCH  11  19
BRANCH  14  26
HETATM   26  N5  UNL     1      25.927   2.474  53.165  1.00  0.00    -0.227 NA
HETATM   27  H18 UNL     1      25.553   1.516  53.346  1.00  0.00     0.145 HD
HETATM   28  H19 UNL     1      25.238   3.114  53.660  1.00  0.00     0.145 HD
ENDBRANCH  14  26
BRANCH   4  29
HETATM   29  O2  UNL     1      22.171  -0.406  52.370  1.00  0.00    -0.358 OA
HETATM   30  C6  UNL     1      21.629  -0.903  53.553  1.00  0.00     0.209 C 
ENDBRANCH   4  29
BRANCH   1  31
HETATM   31  O1  UNL     1      18.024   3.282  52.294  1.00  0.00    -0.356 OA
HETATM   32  C1  UNL     1      17.179   3.960  51.396  1.00  0.00     0.210 C 
ENDBRANCH   1  31
TORSDOF 4
ENDMDL
MODEL 3
REMARK VINA RESULT:      -8.6      2.882      4.536
REMARK  4 active torsions:
REMARK  status: ('A' for Active; 'I' for Inactive)
REMARK    1  A    between atoms: O1_2  and  C2_3 
REMARK    2  A    between atoms: C5_6  and  O2_7 
REMARK    3  A    between atoms: C12_15  and  C13_16 
REMARK    4  A    between atoms: N4_25  and  N5_26 
ROOT
HETATM    1  C2  UNL     1      23.398   7.369  46.926  1.00  0.00     0.064 C 
HETATM    2  C3  UNL     1      23.914   8.384  47.601  1.00  0.00     0.016 C 
HETATM    3  C4  UNL     1      24.383   8.720  48.968  1.00  0.00     0.096 C 
HETATM    4  C5  UNL     1      24.978   7.561  49.682  1.00  0.00     0.072 C 
HETATM    5  C7  UNL     1      24.545   6.340  50.041  1.00  0.00     0.049 C 
HETATM    6  N1  UNL     1      25.485   5.527  50.736  1.00  0.00    -0.363 N 
HETATM    7  C8  UNL     1      24.979   4.155  50.603  1.00  0.00     0.254 C 
HETATM    8  C9  UNL     1      23.547   4.349  50.637  1.00  0.00    -0.021 C 
HETATM    9  C10 UNL     1      22.426   3.787  51.108  1.00  0.00     0.010 C 
HETATM   10  C11 UNL     1      22.247   2.564  51.889  1.00  0.00     0.034 C 
HETATM   11  C12 UNL     1      22.947   1.792  52.674  1.00  0.00     0.091 C 
HETATM   12  N2  UNL     1      24.302   1.922  53.072  1.00  0.00    -0.131 NA
HETATM   13  N3  UNL     1      25.310   2.480  52.605  1.00  0.00    -0.052 NA
HETATM   14  N4  UNL     1      25.598   3.244  51.472  1.00  0.00    -0.189 N 
HETATM   15  C19 UNL     1      23.266   5.622  49.873  1.00  0.00     0.093 C 
HETATM   16  C20 UNL     1      22.979   5.286  48.440  1.00  0.00    -0.009 C 
HETATM   17  C21 UNL     1      23.048   6.010  47.329  1.00  0.00     0.033 C 
HETATM   18  H10 UNL     1      26.362   5.846  51.241  1.00  0.00     0.162 HD
ENDROOT
BRANCH  11  19
HETATM   19  C13 UNL     1      22.321   0.620  53.260  1.00  0.00    -0.004 A 
HETATM   20  C14 UNL     1      22.868  -0.342  54.068  1.00  0.00     0.014 A 
HETATM   21  C15 UNL     1      22.213  -1.428  54.584  1.00  0.00     0.002 A 
HETATM   22  C16 UNL     1      20.881  -1.611  54.289  1.00  0.00     0.019 A 
HETATM   23  C17 UNL     1      20.271  -0.684  53.482  1.00  0.00     0.011 A 
HETATM   24 BR1  UNL     1      18.429  -0.895  53.046  1.00  0.00    -0.051 Br
HETATM   25  C18 UNL     1      20.992   0.377  53.003  1.00  0.00     0.033 A 
ENDBRANCH  11  19
BRANCH  14  26
HETATM   26  N5  UNL     1      26.938   3.076  51.019  1.00  0.00    -0.227 NA
HETATM   27  H18 UNL     1      26.964   3.399  50.026  1.00  0.00     0.145 HD
HETATM   28  H19 UNL     1      27.018   2.019  50.945  1.00  0.00     0.145 HD
ENDBRANCH  14  26
BRANCH   4  29
HETATM   29  O2  UNL     1      26.308   7.743  50.098  1.00  0.00    -0.358 OA
HETATM   30  C6  UNL     1      26.970   8.968  50.065  1.00  0.00     0.209 C 
ENDBRANCH   4  29
BRANCH   1  31
HETATM   31  O1  UNL     1      23.089   7.492  45.583  1.00  0.00    -0.356 OA
HETATM   32  C1  UNL     1      22.240   6.552  44.972  1.00  0.00     0.210 C 
ENDBRANCH   1  31
TORSDOF 4
ENDMDL
MODEL 4
REMARK VINA RESULT:      -8.6      4.634      9.306
REMARK  4 active torsions:
REMARK  status: ('A' for Active; 'I' for Inactive)
REMARK    1  A    between atoms: O1_2  and  C2_3 
REMARK    2  A    between atoms: C5_6  and  O2_7 
REMARK    3  A    between atoms: C12_15  and  C13_16 
REMARK    4  A    between atoms: N4_25  and  N5_26 
ROOT
HETATM    1  C2  UNL     1      22.720  -0.656  54.545  1.00  0.00     0.064 C 
HETATM    2  C3  UNL     1      21.431  -0.412  54.725  1.00  0.00     0.016 C 
HETATM    3  C4  UNL     1      20.373   0.516  54.254  1.00  0.00     0.096 C 
HETATM    4  C5  UNL     1      20.559   0.947  52.845  1.00  0.00     0.072 C 
HETATM    5  C7  UNL     1      21.531   1.578  52.163  1.00  0.00     0.049 C 
HETATM    6  N1  UNL     1      21.280   1.794  50.779  1.00  0.00    -0.363 N 
HETATM    7  C8  UNL     1      22.598   2.046  50.183  1.00  0.00     0.254 C 
HETATM    8  C9  UNL     1      23.282   2.759  51.239  1.00  0.00    -0.021 C 
HETATM    9  C10 UNL     1      24.146   3.766  51.433  1.00  0.00     0.010 C 
HETATM   10  C11 UNL     1      24.801   4.638  50.462  1.00  0.00     0.034 C 
HETATM   11  C12 UNL     1      24.625   5.045  49.235  1.00  0.00     0.091 C 
HETATM   12  N2  UNL     1      23.584   4.717  48.330  1.00  0.00    -0.131 NA
HETATM   13  N3  UNL     1      22.789   3.770  48.204  1.00  0.00    -0.052 NA
HETATM   14  N4  UNL     1      22.533   2.579  48.887  1.00  0.00    -0.189 N 
HETATM   15  C19 UNL     1      22.852   2.121  52.539  1.00  0.00     0.093 C 
HETATM   16  C20 UNL     1      23.831   1.047  52.910  1.00  0.00    -0.009 C 
HETATM   17  C21 UNL     1      23.723  -0.015  53.700  1.00  0.00     0.033 C 
HETATM   18  H10 UNL     1      20.341   1.776  50.285  1.00  0.00     0.162 HD
ENDROOT
BRANCH  11  19
HETATM   19  C13 UNL     1      25.584   5.963  48.646  1.00  0.00    -0.004 A 
HETATM   20  C14 UNL     1      25.368   7.171  48.036  1.00  0.00     0.014 A 
HETATM   21  C15 UNL     1      26.328   7.986  47.499  1.00  0.00     0.002 A 
HETATM   22  C16 UNL     1      27.647   7.595  47.552  1.00  0.00     0.019 A 
HETATM   23  C17 UNL     1      27.934   6.393  48.149  1.00  0.00     0.011 A 
HETATM   24 BR1  UNL     1      29.744   5.810  48.246  1.00  0.00    -0.051 Br
HETATM   25  C18 UNL     1      26.920   5.632  48.665  1.00  0.00     0.033 A 
ENDBRANCH  11  19
BRANCH  14  26
HETATM   26  N5  UNL     1      22.052   1.546  48.032  1.00  0.00    -0.227 NA
HETATM   27  H18 UNL     1      22.110   0.655  48.574  1.00  0.00     0.145 HD
HETATM   28  H19 UNL     1      22.835   1.462  47.320  1.00  0.00     0.145 HD
ENDBRANCH  14  26
BRANCH   4  29
HETATM   29  O2  UNL     1      19.489   0.642  51.987  1.00  0.00    -0.358 OA
HETATM   30  C6  UNL     1      18.520  -0.319  52.268  1.00  0.00     0.209 C 
ENDBRANCH   4  29
BRANCH   1  31
HETATM   31  O1  UNL     1      23.350  -1.682  55.227  1.00  0.00    -0.356 OA
HETATM   32  C1  UNL     1      24.561  -1.435  55.899  1.00  0.00     0.210 C 
ENDBRANCH   1  31
TORSDOF 4
ENDMDL
MODEL 5
REMARK VINA RESULT:      -8.6      5.266      9.165
REMARK  4 active torsions:
REMARK  status: ('A' for Active; 'I' for Inactive)
REMARK    1  A    between atoms: O1_2  and  C2_3 
REMARK    2  A    between atoms: C5_6  and  O2_7 
REMARK    3  A    between atoms: C12_15  and  C13_16 
REMARK    4  A    between atoms: N4_25  and  N5_26 
ROOT
HETATM    1  C2  UNL     1      23.382  -0.582  54.214  1.00  0.00     0.064 C 
HETATM    2  C3  UNL     1      24.692  -0.647  54.400  1.00  0.00     0.016 C 
HETATM    3  C4  UNL     1      25.947  -0.073  53.857  1.00  0.00     0.096 C 
HETATM    4  C5  UNL     1      25.790   1.323  53.374  1.00  0.00     0.072 C 
HETATM    5  C7  UNL     1      25.018   1.931  52.457  1.00  0.00     0.049 C 
HETATM    6  N1  UNL     1      25.205   3.335  52.319  1.00  0.00    -0.363 N 
HETATM    7  C8  UNL     1      23.993   3.822  51.649  1.00  0.00     0.254 C 
HETATM    8  C9  UNL     1      23.668   2.725  50.765  1.00  0.00    -0.021 C 
HETATM    9  C10 UNL     1      23.194   2.476  49.536  1.00  0.00     0.010 C 
HETATM   10  C11 UNL     1      22.773   3.404  48.488  1.00  0.00     0.034 C 
HETATM   11  C12 UNL     1      22.966   4.648  48.147  1.00  0.00     0.091 C 
HETATM   12  N2  UNL     1      23.764   5.632  48.783  1.00  0.00    -0.131 NA
HETATM   13  N3  UNL     1      24.198   5.807  49.934  1.00  0.00    -0.052 NA
HETATM   14  N4  UNL     1      24.114   5.128  51.151  1.00  0.00    -0.189 N 
HETATM   15  C19 UNL     1      23.979   1.455  51.521  1.00  0.00     0.093 C 
HETATM   16  C20 UNL     1      22.743   0.983  52.227  1.00  0.00    -0.009 C 
HETATM   17  C21 UNL     1      22.570   0.186  53.275  1.00  0.00     0.033 C 
HETATM   18  H10 UNL     1      26.043   3.907  52.633  1.00  0.00     0.162 HD
ENDROOT
BRANCH  11  19
HETATM   19  C13 UNL     1      22.306   5.170  46.963  1.00  0.00    -0.004 A 
HETATM   20  C14 UNL     1      21.950   4.519  45.811  1.00  0.00     0.014 A 
HETATM   21  C15 UNL     1      21.328   5.080  44.728  1.00  0.00     0.002 A 
HETATM   22  C16 UNL     1      21.013   6.420  44.754  1.00  0.00     0.019 A 
HETATM   23  C17 UNL     1      21.343   7.133  45.880  1.00  0.00     0.011 A 
HETATM   24 BR1  UNL     1      20.928   8.989  45.962  1.00  0.00    -0.051 Br
HETATM   25  C18 UNL     1      21.965   6.502  46.924  1.00  0.00     0.033 A 
ENDBRANCH  11  19
BRANCH  14  26
HETATM   26  N5  UNL     1      24.161   6.002  52.275  1.00  0.00    -0.227 NA
HETATM   27  H18 UNL     1      23.719   5.493  53.073  1.00  0.00     0.145 HD
HETATM   28  H19 UNL     1      23.444   6.740  52.016  1.00  0.00     0.145 HD
ENDBRANCH  14  26
BRANCH   4  29
HETATM   29  O2  UNL     1      26.627   2.263  53.999  1.00  0.00    -0.358 OA
HETATM   30  C6  UNL     1      28.009   2.304  53.830  1.00  0.00     0.209 C 
ENDBRANCH   4  29
BRANCH   1  31
HETATM   31  O1  UNL     1      22.517  -1.333  54.990  1.00  0.00    -0.356 OA
HETATM   32  C1  UNL     1      21.213  -1.591  54.530  1.00  0.00     0.210 C 
ENDBRANCH   1  31
TORSDOF 4
ENDMDL
MODEL 6
REMARK VINA RESULT:      -8.4      1.858      2.519
REMARK  4 active torsions:
REMARK  status: ('A' for Active; 'I' for Inactive)
REMARK    1  A    between atoms: O1_2  and  C2_3 
REMARK    2  A    between atoms: C5_6  and  O2_7 
REMARK    3  A    between atoms: C12_15  and  C13_16 
REMARK    4  A    between atoms: N4_25  and  N5_26 
ROOT
HETATM    1  C2  UNL     1      31.458   8.311  46.726  1.00  0.00     0.064 C 
HETATM    2  C3  UNL     1      30.784   8.911  45.757  1.00  0.00     0.016 C 
HETATM    3  C4  UNL     1      29.404   9.002  45.219  1.00  0.00     0.096 C 
HETATM    4  C5  UNL     1      28.359   8.875  46.267  1.00  0.00     0.072 C 
HETATM    5  C7  UNL     1      28.032   7.940  47.175  1.00  0.00     0.049 C 
HETATM    6  N1  UNL     1      26.918   8.245  48.007  1.00  0.00    -0.363 N 
HETATM    7  C8  UNL     1      27.045   7.350  49.164  1.00  0.00     0.254 C 
HETATM    8  C9  UNL     1      27.603   6.155  48.571  1.00  0.00    -0.021 C 
HETATM    9  C10 UNL     1      27.536   4.819  48.648  1.00  0.00     0.010 C 
HETATM   10  C11 UNL     1      26.725   3.970  49.519  1.00  0.00     0.034 C 
HETATM   11  C12 UNL     1      25.629   4.051  50.221  1.00  0.00     0.091 C 
HETATM   12  N2  UNL     1      24.754   5.156  50.380  1.00  0.00    -0.131 NA
HETATM   13  N3  UNL     1      24.861   6.389  50.274  1.00  0.00    -0.052 NA
HETATM   14  N4  UNL     1      25.884   7.282  49.950  1.00  0.00    -0.189 N 
HETATM   15  C19 UNL     1      28.586   6.615  47.520  1.00  0.00     0.093 C 
HETATM   16  C20 UNL     1      29.954   6.705  48.128  1.00  0.00    -0.009 C 
HETATM   17  C21 UNL     1      31.038   7.385  47.773  1.00  0.00     0.033 C 
HETATM   18  H10 UNL     1      26.158   8.964  47.827  1.00  0.00     0.162 HD
ENDROOT
BRANCH  11  19
HETATM   19  C13 UNL     1      25.178   2.892  50.971  1.00  0.00    -0.004 A 
HETATM   20  C14 UNL     1      23.904   2.525  51.317  1.00  0.00     0.014 A 
HETATM   21  C15 UNL     1      23.553   1.411  52.032  1.00  0.00     0.002 A 
HETATM   22  C16 UNL     1      24.538   0.552  52.464  1.00  0.00     0.019 A 
HETATM   23  C17 UNL     1      25.838   0.861  52.151  1.00  0.00     0.011 A 
HETATM   24 BR1  UNL     1      27.236  -0.297  52.727  1.00  0.00    -0.051 Br
HETATM   25  C18 UNL     1      26.113   1.994  51.432  1.00  0.00     0.033 A 
ENDBRANCH  11  19
BRANCH  14  26
HETATM   26  N5  UNL     1      25.746   8.540  50.604  1.00  0.00    -0.227 NA
HETATM   27  H18 UNL     1      26.168   8.435  51.553  1.00  0.00     0.145 HD
HETATM   28  H19 UNL     1      24.702   8.581  50.792  1.00  0.00     0.145 HD
ENDBRANCH  14  26
BRANCH   4  29
HETATM   29  O2  UNL     1      27.485   9.971  46.365  1.00  0.00    -0.358 OA
HETATM   30  C6  UNL     1      27.191  10.826  45.306  1.00  0.00     0.209 C 
ENDBRANCH   4  29
BRANCH   1  31
HETATM   31  O1  UNL     1      32.817   8.519  46.880  1.00  0.00    -0.356 OA
HETATM   32  C1  UNL     1      33.573   7.638  47.674  1.00  0.00     0.210 C 
ENDBRANCH   1  31
TORSDOF 4
ENDMDL
MODEL 7
REMARK VINA RESULT:      -8.3      5.381      9.188
REMARK  4 active torsions:
REMARK  status: ('A' for Active; 'I' for Inactive)
REMARK    1  A    between atoms: O1_2  and  C2_3 
REMARK    2  A    between atoms: C5_6  and  O2_7 
REMARK    3  A    between atoms: C12_15  and  C13_16 
REMARK    4  A    between atoms: N4_25  and  N5_26 
ROOT
HETATM    1  C2  UNL     1      26.494  -0.388  53.865  1.00  0.00     0.064 C 
HETATM    2  C3  UNL     1      25.556  -0.986  54.584  1.00  0.00     0.016 C 
HETATM    3  C4  UNL     1      24.108  -0.870  54.887  1.00  0.00     0.096 C 
HETATM    4  C5  UNL     1      23.313  -0.345  53.748  1.00  0.00     0.072 C 
HETATM    5  C7  UNL     1      23.333   0.780  53.012  1.00  0.00     0.049 C 
HETATM    6  N1  UNL     1      22.353   0.868  51.983  1.00  0.00    -0.363 N 
HETATM    7  C8  UNL     1      22.851   1.899  51.064  1.00  0.00     0.254 C 
HETATM    8  C9  UNL     1      23.500   2.826  51.962  1.00  0.00    -0.021 C 
HETATM    9  C10 UNL     1      23.694   4.139  52.151  1.00  0.00     0.010 C 
HETATM   10  C11 UNL     1      23.225   5.278  51.365  1.00  0.00     0.034 C 
HETATM   11  C12 UNL     1      22.279   5.555  50.510  1.00  0.00     0.091 C 
HETATM   12  N2  UNL     1      21.260   4.708  50.005  1.00  0.00    -0.131 NA
HETATM   13  N3  UNL     1      21.119   3.480  49.871  1.00  0.00    -0.052 NA
HETATM   14  N4  UNL     1      21.885   2.347  50.150  1.00  0.00    -0.189 N 
HETATM   15  C19 UNL     1      24.174   1.994  53.028  1.00  0.00     0.093 C 
HETATM   16  C20 UNL     1      25.590   1.719  52.619  1.00  0.00    -0.009 C 
HETATM   17  C21 UNL     1      26.449   0.772  52.980  1.00  0.00     0.033 C 
HETATM   18  H10 UNL     1      21.455   0.308  51.901  1.00  0.00     0.162 HD
ENDROOT
BRANCH  11  19
HETATM   19  C13 UNL     1      22.192   6.895  49.956  1.00  0.00    -0.004 A 
HETATM   20  C14 UNL     1      23.162   7.644  49.341  1.00  0.00     0.014 A 
HETATM   21  C15 UNL     1      23.006   8.909  48.842  1.00  0.00     0.002 A 
HETATM   22  C16 UNL     1      21.780   9.526  48.947  1.00  0.00     0.019 A 
HETATM   23  C17 UNL     1      20.764   8.831  49.553  1.00  0.00     0.011 A 
HETATM   24 BR1  UNL     1      19.050   9.644  49.720  1.00  0.00    -0.051 Br
HETATM   25  C18 UNL     1      20.995   7.568  50.028  1.00  0.00     0.033 A 
ENDBRANCH  11  19
BRANCH  14  26
HETATM   26  N5  UNL     1      21.641   1.278  49.240  1.00  0.00    -0.227 NA
HETATM   27  H18 UNL     1      21.314   1.710  48.348  1.00  0.00     0.145 HD
HETATM   28  H19 UNL     1      20.766   0.835  49.645  1.00  0.00     0.145 HD
ENDBRANCH  14  26
BRANCH   4  29
HETATM   29  O2  UNL     1      22.286  -1.194  53.302  1.00  0.00    -0.358 OA
HETATM   30  C6  UNL     1      21.254  -1.657  54.116  1.00  0.00     0.209 C 
ENDBRANCH   4  29
BRANCH   1  31
HETATM   31  O1  UNL     1      27.797  -0.853  53.870  1.00  0.00    -0.356 OA
HETATM   32  C1  UNL     1      28.798  -0.118  54.530  1.00  0.00     0.210 C 
ENDBRANCH   1  31
TORSDOF 4
ENDMDL
MODEL 8
REMARK VINA RESULT:      -8.3      6.101      8.561
REMARK  4 active torsions:
REMARK  status: ('A' for Active; 'I' for Inactive)
REMARK    1  A    between atoms: O1_2  and  C2_3 
REMARK    2  A    between atoms: C5_6  and  O2_7 
REMARK    3  A    between atoms: C12_15  and  C13_16 
REMARK    4  A    between atoms: N4_25  and  N5_26 
ROOT
HETATM    1  C2  UNL     1      17.751   0.568  51.493  1.00  0.00     0.064 C 
HETATM    2  C3  UNL     1      17.291   1.810  51.486  1.00  0.00     0.016 C 
HETATM    3  C4  UNL     1      17.782   3.206  51.593  1.00  0.00     0.096 C 
HETATM    4  C5  UNL     1      19.138   3.393  51.016  1.00  0.00     0.072 C 
HETATM    5  C7  UNL     1      20.351   2.862  51.244  1.00  0.00     0.049 C 
HETATM    6  N1  UNL     1      21.409   3.352  50.428  1.00  0.00    -0.363 N 
HETATM    7  C8  UNL     1      22.470   2.341  50.523  1.00  0.00     0.254 C 
HETATM    8  C9  UNL     1      22.337   1.883  51.888  1.00  0.00    -0.021 C 
HETATM    9  C10 UNL     1      23.074   1.492  52.937  1.00  0.00     0.010 C 
HETATM   10  C11 UNL     1      24.525   1.382  53.074  1.00  0.00     0.034 C 
HETATM   11  C12 UNL     1      25.601   1.864  52.516  1.00  0.00     0.091 C 
HETATM   12  N2  UNL     1      25.711   2.784  51.442  1.00  0.00    -0.131 NA
HETATM   13  N3  UNL     1      24.981   3.128  50.497  1.00  0.00    -0.052 NA
HETATM   14  N4  UNL     1      23.709   2.783  50.035  1.00  0.00    -0.189 N 
HETATM   15  C19 UNL     1      20.857   1.844  52.188  1.00  0.00     0.093 C 
HETATM   16  C20 UNL     1      20.328   0.472  51.893  1.00  0.00    -0.009 C 
HETATM   17  C21 UNL     1      19.103   0.033  51.629  1.00  0.00     0.033 C 
HETATM   18  H10 UNL     1      21.426   4.255  49.871  1.00  0.00     0.162 HD
ENDROOT
BRANCH  11  19
HETATM   19  C13 UNL     1      26.903   1.449  53.008  1.00  0.00    -0.004 A 
HETATM   20  C14 UNL     1      27.885   2.199  53.601  1.00  0.00     0.014 A 
HETATM   21  C15 UNL     1      29.096   1.736  54.041  1.00  0.00     0.002 A 
HETATM   22  C16 UNL     1      29.400   0.402  53.892  1.00  0.00     0.019 A 
HETATM   23  C17 UNL     1      28.460  -0.406  53.303  1.00  0.00     0.011 A 
HETATM   24 BR1  UNL     1      28.835  -2.259  53.075  1.00  0.00    -0.051 Br
HETATM   25  C18 UNL     1      27.269   0.128  52.888  1.00  0.00     0.033 A 
ENDBRANCH  11  19
BRANCH  14  26
HETATM   26  N5  UNL     1      23.585   2.900  48.621  1.00  0.00    -0.227 NA
HETATM   27  H18 UNL     1      24.187   2.157  48.202  1.00  0.00     0.145 HD
HETATM   28  H19 UNL     1      24.115   3.799  48.424  1.00  0.00     0.145 HD
ENDBRANCH  14  26
BRANCH   4  29
HETATM   29  O2  UNL     1      19.215   4.343  49.982  1.00  0.00    -0.358 OA
HETATM   30  C6  UNL     1      18.102   4.897  49.354  1.00  0.00     0.209 C 
ENDBRANCH   4  29
BRANCH   1  31
HETATM   31  O1  UNL     1      16.893  -0.508  51.355  1.00  0.00    -0.356 OA
HETATM   32  C1  UNL     1      16.649  -1.352  52.454  1.00  0.00     0.210 C 
ENDBRANCH   1  31
TORSDOF 4
ENDMDL
MODEL 9
REMARK VINA RESULT:      -8.3      4.346      8.886
REMARK  4 active torsions:
REMARK  status: ('A' for Active; 'I' for Inactive)
REMARK    1  A    between atoms: O1_2  and  C2_3 
REMARK    2  A    between atoms: C5_6  and  O2_7 
REMARK    3  A    between atoms: C12_15  and  C13_16 
REMARK    4  A    between atoms: N4_25  and  N5_26 
ROOT
HETATM    1  C2  UNL     1      26.413  -1.030  53.120  1.00  0.00     0.064 C 
HETATM    2  C3  UNL     1      25.415  -1.010  53.989  1.00  0.00     0.016 C 
HETATM    3  C4  UNL     1      24.226  -0.193  54.337  1.00  0.00     0.096 C 
HETATM    4  C5  UNL     1      23.599   0.457  53.157  1.00  0.00     0.072 C 
HETATM    5  C7  UNL     1      24.016   1.317  52.212  1.00  0.00     0.049 C 
HETATM    6  N1  UNL     1      23.047   1.688  51.237  1.00  0.00    -0.363 N 
HETATM    7  C8  UNL     1      23.819   2.218  50.107  1.00  0.00     0.254 C 
HETATM    8  C9  UNL     1      24.929   2.867  50.769  1.00  0.00    -0.021 C 
HETATM    9  C10 UNL     1      25.708   3.954  50.683  1.00  0.00     0.010 C 
HETATM   10  C11 UNL     1      25.691   5.045  49.710  1.00  0.00     0.034 C 
HETATM   11  C12 UNL     1      24.859   5.591  48.866  1.00  0.00     0.091 C 
HETATM   12  N2  UNL     1      23.512   5.243  48.592  1.00  0.00    -0.131 NA
HETATM   13  N3  UNL     1      22.825   4.215  48.712  1.00  0.00    -0.052 NA
HETATM   14  N4  UNL     1      23.038   2.914  49.172  1.00  0.00    -0.189 N 
HETATM   15  C19 UNL     1      25.301   1.993  51.943  1.00  0.00     0.093 C 
HETATM   16  C20 UNL     1      26.378   1.036  51.526  1.00  0.00    -0.009 C 
HETATM   17  C21 UNL     1      26.768  -0.131  52.025  1.00  0.00     0.033 C 
HETATM   18  H10 UNL     1      21.991   1.600  51.314  1.00  0.00     0.162 HD
ENDROOT
BRANCH  11  19
HETATM   19  C13 UNL     1      25.301   6.717  48.062  1.00  0.00    -0.004 A 
HETATM   20  C14 UNL     1      24.558   7.601  47.325  1.00  0.00     0.014 A 
HETATM   21  C15 UNL     1      25.047   8.644  46.585  1.00  0.00     0.002 A 
HETATM   22  C16 UNL     1      26.406   8.861  46.547  1.00  0.00     0.019 A 
HETATM   23  C17 UNL     1      27.210   8.010  47.263  1.00  0.00     0.011 A 
HETATM   24 BR1  UNL     1      29.096   8.270  47.240  1.00  0.00    -0.051 Br
HETATM   25  C18 UNL     1      26.648   6.988  47.980  1.00  0.00     0.033 A 
ENDBRANCH  11  19
BRANCH  14  26
HETATM   26  N5  UNL     1      22.225   1.953  48.507  1.00  0.00    -0.227 NA
HETATM   27  H18 UNL     1      22.861   1.380  47.909  1.00  0.00     0.145 HD
HETATM   28  H19 UNL     1      21.693   2.553  47.811  1.00  0.00     0.145 HD
ENDBRANCH  14  26
BRANCH   4  29
HETATM   29  O2  UNL     1      22.252   0.120  52.942  1.00  0.00    -0.358 OA
HETATM   30  C6  UNL     1      21.309   0.004  53.961  1.00  0.00     0.209 C 
ENDBRANCH   4  29
BRANCH   1  31
HETATM   31  O1  UNL     1      27.362  -2.036  53.151  1.00  0.00    -0.356 OA
HETATM   32  C1  UNL     1      28.723  -1.709  53.296  1.00  0.00     0.210 C 
ENDBRANCH   1  31
TORSDOF 4
ENDMDL
