MODEL 1
REMARK VINA RESULT:      -7.0      0.000      0.000
REMARK  9 active torsions:
REMARK  status: ('A' for Active; 'I' for Inactive)
REMARK    1  A    between atoms: C2_2  and  O1_3 
REMARK    2  A    between atoms: O1_3  and  C3_4 
REMARK    3  A    between atoms: C3_4  and  C4_5 
REMARK    4  A    between atoms: C4_5  and  C16_21 
REMARK    5  A    between atoms: C5_6  and  C6_7 
REMARK    6  A    between atoms: C10_12  and  N2_13 
REMARK    7  A    between atoms: N2_13  and  C11_14 
REMARK    8  A    between atoms: C18_23  and  C19_24 
REMARK    9  A    between atoms: C19_24  and  N3_25 
ROOT
HETATM    1  C6  UNL     1      23.326  -0.556  53.572  1.00  0.00     0.009 A 
HETATM    2  C7  UNL     1      22.831  -0.969  54.800  1.00  0.00     0.130 A 
HETATM    3  N1  UNL     1      21.585  -0.638  55.210  1.00  0.00    -0.272 NA
HETATM    4  C8  UNL     1      20.789   0.123  54.401  1.00  0.00     0.118 A 
HETATM    5  C9  UNL     1      21.243   0.549  53.180  1.00  0.00     0.049 A 
HETATM    6  C10 UNL     1      22.498   0.210  52.777  1.00  0.00     0.045 A 
ENDROOT
BRANCH   1   7
HETATM    7  C5  UNL     1      24.690  -0.890  53.203  1.00  0.00     0.025 C 
HETATM    8  C4  UNL     1      25.855  -0.346  52.901  1.00  0.00    -0.028 C 
BRANCH   8   9
HETATM    9  C3  UNL     1      27.008  -1.271  52.585  1.00  0.00     0.206 C 
BRANCH   9  10
HETATM   10  O1  UNL     1      27.851  -1.460  53.646  1.00  0.00    -0.387 OA
BRANCH  10  11
HETATM   11  C2  UNL     1      29.197  -1.281  53.365  1.00  0.00     0.163 C 
HETATM   12  C1  UNL     1      29.647   0.138  53.665  1.00  0.00     0.033 C 
ENDBRANCH  10  11
ENDBRANCH   9  10
ENDBRANCH   8   9
BRANCH   8  13
HETATM   13  C16 UNL     1      26.100   1.081  52.788  1.00  0.00    -0.056 C 
HETATM   14  C17 UNL     1      26.054   2.097  53.860  1.00  0.00     0.048 C 
HETATM   15  C18 UNL     1      26.394   1.614  51.623  1.00  0.00     0.010 C 
BRANCH  15  16
HETATM   16  C19 UNL     1      26.705   2.902  51.007  1.00  0.00     0.294 C 
BRANCH  16  17
HETATM   17  N3  UNL     1      25.817   3.213  49.869  1.00  0.00     0.081 N 
HETATM   18  H23 UNL     1      25.146   3.977  50.195  1.00  0.00     0.313 HD
HETATM   19  H24 UNL     1      25.327   2.386  49.503  1.00  0.00     0.313 HD
ENDBRANCH  16  17
ENDBRANCH  15  16
ENDBRANCH   8  13
ENDBRANCH   1   7
BRANCH   6  20
HETATM   20  N2  UNL     1      22.925   0.657  51.500  1.00  0.00    -0.351 N 
HETATM   21  H12 UNL     1      23.321   0.103  50.693  1.00  0.00     0.166 HD
BRANCH  20  22
HETATM   22  C11 UNL     1      22.753   2.062  51.382  1.00  0.00     0.096 A 
HETATM   23  C12 UNL     1      22.265   2.439  50.211  1.00  0.00     0.252 A 
HETATM   24  F1  UNL     1      21.991   1.481  49.286  1.00  0.00    -0.176 F 
HETATM   25  O2  UNL     1      21.980   3.717  49.771  1.00  0.00    -0.322 OA
HETATM   26  C13 UNL     1      22.225   4.809  50.623  1.00  0.00     0.206 A 
HETATM   27  C14 UNL     1      22.765   4.341  51.909  1.00  0.00     0.002 A 
HETATM   28  C15 UNL     1      23.033   3.124  52.332  1.00  0.00     0.033 A 
ENDBRANCH  20  22
ENDBRANCH   6  20
TORSDOF 9
ENDMDL
MODEL 2
REMARK VINA RESULT:      -6.9      2.168      3.548
REMARK  9 active torsions:
REMARK  status: ('A' for Active; 'I' for Inactive)
REMARK    1  A    between atoms: C2_2  and  O1_3 
REMARK    2  A    between atoms: O1_3  and  C3_4 
REMARK    3  A    between atoms: C3_4  and  C4_5 
REMARK    4  A    between atoms: C4_5  and  C16_21 
REMARK    5  A    between atoms: C5_6  and  C6_7 
REMARK    6  A    between atoms: C10_12  and  N2_13 
REMARK    7  A    between atoms: N2_13  and  C11_14 
REMARK    8  A    between atoms: C18_23  and  C19_24 
REMARK    9  A    between atoms: C19_24  and  N3_25 
ROOT
HETATM    1  C6  UNL     1      23.610   0.475  53.111  1.00  0.00     0.009 A 
HETATM    2  C7  UNL     1      23.735  -0.702  53.834  1.00  0.00     0.130 A 
HETATM    3  N1  UNL     1      22.684  -1.247  54.491  1.00  0.00    -0.272 NA
HETATM    4  C8  UNL     1      21.467  -0.627  54.445  1.00  0.00     0.118 A 
HETATM    5  C9  UNL     1      21.304   0.537  53.740  1.00  0.00     0.049 A 
HETATM    6  C10 UNL     1      22.367   1.075  53.083  1.00  0.00     0.045 A 
ENDROOT
BRANCH   1   7
HETATM    7  C5  UNL     1      24.780   1.048  52.471  1.00  0.00     0.025 C 
HETATM    8  C4  UNL     1      26.100   1.004  52.473  1.00  0.00    -0.028 C 
BRANCH   8   9
HETATM    9  C3  UNL     1      26.840   1.896  51.503  1.00  0.00     0.206 C 
BRANCH   9  10
HETATM   10  O1  UNL     1      26.028   2.807  50.884  1.00  0.00    -0.387 OA
BRANCH  10  11
HETATM   11  C2  UNL     1      26.449   3.210  49.627  1.00  0.00     0.163 C 
HETATM   12  C1  UNL     1      26.174   4.684  49.391  1.00  0.00     0.033 C 
ENDBRANCH  10  11
ENDBRANCH   9  10
ENDBRANCH   8   9
BRANCH   8  13
HETATM   13  C16 UNL     1      26.903   0.205  53.383  1.00  0.00    -0.056 C 
HETATM   14  C17 UNL     1      26.931   0.265  54.859  1.00  0.00     0.048 C 
HETATM   15  C18 UNL     1      27.740  -0.694  52.915  1.00  0.00     0.010 C 
BRANCH  15  16
HETATM   16  C19 UNL     1      28.711  -1.688  53.367  1.00  0.00     0.294 C 
BRANCH  16  17
HETATM   17  N3  UNL     1      28.303  -3.067  53.034  1.00  0.00     0.081 N 
HETATM   18  H23 UNL     1      28.689  -3.282  52.062  1.00  0.00     0.313 HD
HETATM   19  H24 UNL     1      27.287  -3.214  53.097  1.00  0.00     0.313 HD
ENDBRANCH  16  17
ENDBRANCH  15  16
ENDBRANCH   8  13
ENDBRANCH   1   7
BRANCH   6  20
HETATM   20  N2  UNL     1      22.154   2.272  52.351  1.00  0.00    -0.351 N 
HETATM   21  H12 UNL     1      22.083   3.266  52.699  1.00  0.00     0.166 HD
BRANCH  20  22
HETATM   22  C11 UNL     1      22.035   1.993  50.964  1.00  0.00     0.096 A 
HETATM   23  C12 UNL     1      22.589   2.912  50.190  1.00  0.00     0.252 A 
HETATM   24  F1  UNL     1      23.188   3.980  50.781  1.00  0.00    -0.176 F 
HETATM   25  O2  UNL     1      22.652   2.949  48.810  1.00  0.00    -0.322 OA
HETATM   26  C13 UNL     1      22.062   1.911  48.067  1.00  0.00     0.206 A 
HETATM   27  C14 UNL     1      21.462   0.916  48.969  1.00  0.00     0.002 A 
HETATM   28  C15 UNL     1      21.405   0.876  50.282  1.00  0.00     0.033 A 
ENDBRANCH  20  22
ENDBRANCH   6  20
TORSDOF 9
ENDMDL
MODEL 3
REMARK VINA RESULT:      -6.9      1.984      3.227
REMARK  9 active torsions:
REMARK  status: ('A' for Active; 'I' for Inactive)
REMARK    1  A    between atoms: C2_2  and  O1_3 
REMARK    2  A    between atoms: O1_3  and  C3_4 
REMARK    3  A    between atoms: C3_4  and  C4_5 
REMARK    4  A    between atoms: C4_5  and  C16_21 
REMARK    5  A    between atoms: C5_6  and  C6_7 
REMARK    6  A    between atoms: C10_12  and  N2_13 
REMARK    7  A    between atoms: N2_13  and  C11_14 
REMARK    8  A    between atoms: C18_23  and  C19_24 
REMARK    9  A    between atoms: C19_24  and  N3_25 
ROOT
HETATM    1  C6  UNL     1      23.489  -0.195  53.352  1.00  0.00     0.009 A 
HETATM    2  C7  UNL     1      23.815  -0.705  54.599  1.00  0.00     0.130 A 
HETATM    3  N1  UNL     1      22.928  -1.421  55.328  1.00  0.00    -0.272 NA
HETATM    4  C8  UNL     1      21.676  -1.650  54.830  1.00  0.00     0.118 A 
HETATM    5  C9  UNL     1      21.317  -1.163  53.601  1.00  0.00     0.049 A 
HETATM    6  C10 UNL     1      22.218  -0.445  52.876  1.00  0.00     0.045 A 
ENDROOT
BRANCH   1   7
HETATM    7  C5  UNL     1      24.458   0.615  52.635  1.00  0.00     0.025 C 
HETATM    8  C4  UNL     1      25.735   0.669  52.306  1.00  0.00    -0.028 C 
BRANCH   8   9
HETATM    9  C3  UNL     1      26.203   1.842  51.475  1.00  0.00     0.206 C 
BRANCH   9  10
HETATM   10  O1  UNL     1      25.368   2.924  51.555  1.00  0.00    -0.387 OA
BRANCH  10  11
HETATM   11  C2  UNL     1      25.413   3.781  50.466  1.00  0.00     0.163 C 
HETATM   12  C1  UNL     1      26.582   3.462  49.551  1.00  0.00     0.033 C 
ENDBRANCH  10  11
ENDBRANCH   9  10
ENDBRANCH   8   9
BRANCH   8  13
HETATM   13  C16 UNL     1      26.745  -0.283  52.735  1.00  0.00    -0.056 C 
HETATM   14  C17 UNL     1      26.788  -1.737  52.476  1.00  0.00     0.048 C 
HETATM   15  C18 UNL     1      27.770   0.115  53.454  1.00  0.00     0.010 C 
BRANCH  15  16
HETATM   16  C19 UNL     1      28.976  -0.400  54.099  1.00  0.00     0.294 C 
BRANCH  16  17
HETATM   17  N3  UNL     1      30.212   0.100  53.465  1.00  0.00     0.081 N 
HETATM   18  H23 UNL     1      29.955   0.995  52.943  1.00  0.00     0.313 HD
HETATM   19  H24 UNL     1      30.665  -0.597  52.859  1.00  0.00     0.313 HD
ENDBRANCH  16  17
ENDBRANCH  15  16
ENDBRANCH   8  13
ENDBRANCH   1   7
BRANCH   6  20
HETATM   20  N2  UNL     1      21.812   0.029  51.601  1.00  0.00    -0.351 N 
HETATM   21  H12 UNL     1      21.773  -0.482  50.678  1.00  0.00     0.166 HD
BRANCH  20  22
HETATM   22  C11 UNL     1      21.418   1.391  51.678  1.00  0.00     0.096 A 
HETATM   23  C12 UNL     1      21.976   2.157  50.755  1.00  0.00     0.252 A 
HETATM   24  F1  UNL     1      22.830   1.581  49.868  1.00  0.00    -0.176 F 
HETATM   25  O2  UNL     1      21.811   3.513  50.550  1.00  0.00    -0.322 OA
HETATM   26  C13 UNL     1      20.961   4.240  51.403  1.00  0.00     0.206 A 
HETATM   27  C14 UNL     1      20.366   3.347  52.409  1.00  0.00     0.002 A 
HETATM   28  C15 UNL     1      20.517   2.055  52.604  1.00  0.00     0.033 A 
ENDBRANCH  20  22
ENDBRANCH   6  20
TORSDOF 9
ENDMDL
MODEL 4
REMARK VINA RESULT:      -6.8      2.045      5.536
REMARK  9 active torsions:
REMARK  status: ('A' for Active; 'I' for Inactive)
REMARK    1  A    between atoms: C2_2  and  O1_3 
REMARK    2  A    between atoms: O1_3  and  C3_4 
REMARK    3  A    between atoms: C3_4  and  C4_5 
REMARK    4  A    between atoms: C4_5  and  C16_21 
REMARK    5  A    between atoms: C5_6  and  C6_7 
REMARK    6  A    between atoms: C10_12  and  N2_13 
REMARK    7  A    between atoms: N2_13  and  C11_14 
REMARK    8  A    between atoms: C18_23  and  C19_24 
REMARK    9  A    between atoms: C19_24  and  N3_25 
ROOT
HETATM    1  C6  UNL     1      22.494  -0.476  53.241  1.00  0.00     0.009 A 
HETATM    2  C7  UNL     1      21.701  -1.149  54.158  1.00  0.00     0.130 A 
HETATM    3  N1  UNL     1      22.209  -1.632  55.316  1.00  0.00    -0.272 NA
HETATM    4  C8  UNL     1      23.536  -1.459  55.594  1.00  0.00     0.118 A 
HETATM    5  C9  UNL     1      24.350  -0.799  54.712  1.00  0.00     0.049 A 
HETATM    6  C10 UNL     1      23.829  -0.315  53.551  1.00  0.00     0.045 A 
ENDROOT
BRANCH   1   7
HETATM    7  C5  UNL     1      21.913  -0.027  51.988  1.00  0.00     0.025 C 
HETATM    8  C4  UNL     1      21.519   1.060  51.349  1.00  0.00    -0.028 C 
BRANCH   8   9
HETATM    9  C3  UNL     1      20.956   0.896  49.956  1.00  0.00     0.206 C 
BRANCH   9  10
HETATM   10  O1  UNL     1      21.880   1.119  48.972  1.00  0.00    -0.387 OA
BRANCH  10  11
HETATM   11  C2  UNL     1      21.612   2.203  48.150  1.00  0.00     0.163 C 
HETATM   12  C1  UNL     1      22.683   3.272  48.267  1.00  0.00     0.033 C 
ENDBRANCH  10  11
ENDBRANCH   9  10
ENDBRANCH   8   9
BRANCH   8  13
HETATM   13  C16 UNL     1      21.528   2.401  51.907  1.00  0.00    -0.056 C 
HETATM   14  C17 UNL     1      20.382   3.175  52.427  1.00  0.00     0.048 C 
HETATM   15  C18 UNL     1      22.651   3.081  51.982  1.00  0.00     0.010 C 
BRANCH  15  16
HETATM   16  C19 UNL     1      23.170   4.373  52.422  1.00  0.00     0.294 C 
BRANCH  16  17
HETATM   17  N3  UNL     1      24.423   4.742  51.733  1.00  0.00     0.081 N 
HETATM   18  H23 UNL     1      24.163   5.429  50.957  1.00  0.00     0.313 HD
HETATM   19  H24 UNL     1      24.945   3.928  51.383  1.00  0.00     0.313 HD
ENDBRANCH  16  17
ENDBRANCH  15  16
ENDBRANCH   8  13
ENDBRANCH   1   7
BRANCH   6  20
HETATM   20  N2  UNL     1      24.702   0.376  52.672  1.00  0.00    -0.351 N 
HETATM   21  H12 UNL     1      24.482   0.897  51.781  1.00  0.00     0.166 HD
BRANCH  20  22
HETATM   22  C11 UNL     1      26.040   0.305  53.143  1.00  0.00     0.096 A 
HETATM   23  C12 UNL     1      26.430   1.390  53.793  1.00  0.00     0.252 A 
HETATM   24  F1  UNL     1      25.545   2.412  53.935  1.00  0.00    -0.176 F 
HETATM   25  O2  UNL     1      27.656   1.649  54.374  1.00  0.00    -0.322 OA
HETATM   26  C13 UNL     1      28.674   0.680  54.294  1.00  0.00     0.206 A 
HETATM   27  C14 UNL     1      28.194  -0.503  53.565  1.00  0.00     0.002 A 
HETATM   28  C15 UNL     1      27.025  -0.754  53.015  1.00  0.00     0.033 A 
ENDBRANCH  20  22
ENDBRANCH   6  20
TORSDOF 9
ENDMDL
MODEL 5
REMARK VINA RESULT:      -6.7      2.349      4.772
REMARK  9 active torsions:
REMARK  status: ('A' for Active; 'I' for Inactive)
REMARK    1  A    between atoms: C2_2  and  O1_3 
REMARK    2  A    between atoms: O1_3  and  C3_4 
REMARK    3  A    between atoms: C3_4  and  C4_5 
REMARK    4  A    between atoms: C4_5  and  C16_21 
REMARK    5  A    between atoms: C5_6  and  C6_7 
REMARK    6  A    between atoms: C10_12  and  N2_13 
REMARK    7  A    between atoms: N2_13  and  C11_14 
REMARK    8  A    between atoms: C18_23  and  C19_24 
REMARK    9  A    between atoms: C19_24  and  N3_25 
ROOT
HETATM    1  C6  UNL     1      25.207   2.081  51.735  1.00  0.00     0.009 A 
HETATM    2  C7  UNL     1      26.520   2.127  51.292  1.00  0.00     0.130 A 
HETATM    3  N1  UNL     1      26.948   3.085  50.438  1.00  0.00    -0.272 NA
HETATM    4  C8  UNL     1      26.070   4.034  49.995  1.00  0.00     0.118 A 
HETATM    5  C9  UNL     1      24.765   4.022  50.411  1.00  0.00     0.049 A 
HETATM    6  C10 UNL     1      24.345   3.054  51.272  1.00  0.00     0.045 A 
ENDROOT
BRANCH   1   7
HETATM    7  C5  UNL     1      24.784   0.999  52.607  1.00  0.00     0.025 C 
HETATM    8  C4  UNL     1      25.249   0.081  53.435  1.00  0.00    -0.028 C 
BRANCH   8   9
HETATM    9  C3  UNL     1      24.252  -0.832  54.111  1.00  0.00     0.206 C 
BRANCH   9  10
HETATM   10  O1  UNL     1      23.016  -0.806  53.524  1.00  0.00    -0.387 OA
BRANCH  10  11
HETATM   11  C2  UNL     1      21.955  -1.060  54.380  1.00  0.00     0.163 C 
HETATM   12  C1  UNL     1      21.062   0.157  54.540  1.00  0.00     0.033 C 
ENDBRANCH  10  11
ENDBRANCH   9  10
ENDBRANCH   8   9
BRANCH   8  13
HETATM   13  C16 UNL     1      26.656  -0.160  53.702  1.00  0.00    -0.056 C 
HETATM   14  C17 UNL     1      27.552   0.596  54.601  1.00  0.00     0.048 C 
HETATM   15  C18 UNL     1      27.286  -1.146  53.102  1.00  0.00     0.010 C 
BRANCH  15  16
HETATM   16  C19 UNL     1      28.604  -1.771  53.021  1.00  0.00     0.294 C 
BRANCH  16  17
HETATM   17  N3  UNL     1      28.537  -3.242  53.132  1.00  0.00     0.081 N 
HETATM   18  H23 UNL     1      29.316  -3.638  52.519  1.00  0.00     0.313 HD
HETATM   19  H24 UNL     1      27.612  -3.624  52.893  1.00  0.00     0.313 HD
ENDBRANCH  16  17
ENDBRANCH  15  16
ENDBRANCH   8  13
ENDBRANCH   1   7
BRANCH   6  20
HETATM   20  N2  UNL     1      22.990   3.085  51.691  1.00  0.00    -0.351 N 
HETATM   21  H12 UNL     1      22.582   3.383  52.618  1.00  0.00     0.166 HD
BRANCH  20  22
HETATM   22  C11 UNL     1      22.136   2.640  50.648  1.00  0.00     0.096 A 
HETATM   23  C12 UNL     1      21.225   3.531  50.293  1.00  0.00     0.252 A 
HETATM   24  F1  UNL     1      21.206   4.728  50.938  1.00  0.00    -0.176 F 
HETATM   25  O2  UNL     1      20.248   3.422  49.322  1.00  0.00    -0.322 OA
HETATM   26  C13 UNL     1      20.145   2.230  48.582  1.00  0.00     0.206 A 
HETATM   27  C14 UNL     1      21.176   1.273  49.011  1.00  0.00     0.002 A 
HETATM   28  C15 UNL     1      22.110   1.377  49.931  1.00  0.00     0.033 A 
ENDBRANCH  20  22
ENDBRANCH   6  20
TORSDOF 9
ENDMDL
MODEL 6
REMARK VINA RESULT:      -6.7      3.907      6.784
REMARK  9 active torsions:
REMARK  status: ('A' for Active; 'I' for Inactive)
REMARK    1  A    between atoms: C2_2  and  O1_3 
REMARK    2  A    between atoms: O1_3  and  C3_4 
REMARK    3  A    between atoms: C3_4  and  C4_5 
REMARK    4  A    between atoms: C4_5  and  C16_21 
REMARK    5  A    between atoms: C5_6  and  C6_7 
REMARK    6  A    between atoms: C10_12  and  N2_13 
REMARK    7  A    between atoms: N2_13  and  C11_14 
REMARK    8  A    between atoms: C18_23  and  C19_24 
REMARK    9  A    between atoms: C19_24  and  N3_25 
ROOT
HETATM    1  C6  UNL     1      25.585   3.400  49.995  1.00  0.00     0.009 A 
HETATM    2  C7  UNL     1      24.386   3.288  49.308  1.00  0.00     0.130 A 
HETATM    3  N1  UNL     1      23.307   2.684  49.857  1.00  0.00    -0.272 NA
HETATM    4  C8  UNL     1      23.393   2.168  51.120  1.00  0.00     0.118 A 
HETATM    5  C9  UNL     1      24.561   2.260  51.830  1.00  0.00     0.049 A 
HETATM    6  C10 UNL     1      25.640   2.871  51.268  1.00  0.00     0.045 A 
ENDROOT
BRANCH   1   7
HETATM    7  C5  UNL     1      26.730   4.007  49.340  1.00  0.00     0.025 C 
HETATM    8  C4  UNL     1      27.171   5.154  48.856  1.00  0.00    -0.028 C 
BRANCH   8   9
HETATM    9  C3  UNL     1      28.556   5.180  48.251  1.00  0.00     0.206 C 
BRANCH   9  10
HETATM   10  O1  UNL     1      29.277   6.288  48.607  1.00  0.00    -0.387 OA
BRANCH  10  11
HETATM   11  C2  UNL     1      30.654   6.139  48.538  1.00  0.00     0.163 C 
HETATM   12  C1  UNL     1      31.375   7.294  49.208  1.00  0.00     0.033 C 
ENDBRANCH  10  11
ENDBRANCH   9  10
ENDBRANCH   8   9
BRANCH   8  13
HETATM   13  C16 UNL     1      26.402   6.384  48.805  1.00  0.00    -0.056 C 
HETATM   14  C17 UNL     1      26.241   7.306  47.661  1.00  0.00     0.048 C 
HETATM   15  C18 UNL     1      25.750   6.805  49.866  1.00  0.00     0.010 C 
BRANCH  15  16
HETATM   16  C19 UNL     1      24.892   7.898  50.315  1.00  0.00     0.294 C 
BRANCH  16  17
HETATM   17  N3  UNL     1      24.229   7.604  51.601  1.00  0.00     0.081 N 
HETATM   18  H23 UNL     1      24.337   6.556  51.776  1.00  0.00     0.313 HD
HETATM   19  H24 UNL     1      23.247   7.911  51.628  1.00  0.00     0.313 HD
ENDBRANCH  16  17
ENDBRANCH  15  16
ENDBRANCH   8  13
ENDBRANCH   1   7
BRANCH   6  20
HETATM   20  N2  UNL     1      26.826   2.960  52.043  1.00  0.00    -0.351 N 
HETATM   21  H12 UNL     1      27.379   3.814  52.326  1.00  0.00     0.166 HD
BRANCH  20  22
HETATM   22  C11 UNL     1      27.251   1.669  52.453  1.00  0.00     0.096 A 
HETATM   23  C12 UNL     1      28.244   1.691  53.328  1.00  0.00     0.252 A 
HETATM   24  F1  UNL     1      28.729   2.898  53.724  1.00  0.00    -0.176 F 
HETATM   25  O2  UNL     1      28.887   0.624  53.924  1.00  0.00    -0.322 OA
HETATM   26  C13 UNL     1      28.494  -0.686  53.597  1.00  0.00     0.206 A 
HETATM   27  C14 UNL     1      27.391  -0.659  52.625  1.00  0.00     0.002 A 
HETATM   28  C15 UNL     1      26.773   0.355  52.060  1.00  0.00     0.033 A 
ENDBRANCH  20  22
ENDBRANCH   6  20
TORSDOF 9
ENDMDL
MODEL 7
REMARK VINA RESULT:      -6.6      1.898      5.313
REMARK  9 active torsions:
REMARK  status: ('A' for Active; 'I' for Inactive)
REMARK    1  A    between atoms: C2_2  and  O1_3 
REMARK    2  A    between atoms: O1_3  and  C3_4 
REMARK    3  A    between atoms: C3_4  and  C4_5 
REMARK    4  A    between atoms: C4_5  and  C16_21 
REMARK    5  A    between atoms: C5_6  and  C6_7 
REMARK    6  A    between atoms: C10_12  and  N2_13 
REMARK    7  A    between atoms: N2_13  and  C11_14 
REMARK    8  A    between atoms: C18_23  and  C19_24 
REMARK    9  A    between atoms: C19_24  and  N3_25 
ROOT
HETATM    1  C6  UNL     1      22.634   0.141  53.331  1.00  0.00     0.009 A 
HETATM    2  C7  UNL     1      21.652   0.001  54.299  1.00  0.00     0.130 A 
HETATM    3  N1  UNL     1      21.829  -0.790  55.383  1.00  0.00    -0.272 NA
HETATM    4  C8  UNL     1      23.003  -1.472  55.533  1.00  0.00     0.118 A 
HETATM    5  C9  UNL     1      23.998  -1.359  54.598  1.00  0.00     0.049 A 
HETATM    6  C10 UNL     1      23.809  -0.560  53.512  1.00  0.00     0.045 A 
ENDROOT
BRANCH   1   7
HETATM    7  C5  UNL     1      22.372   0.957  52.159  1.00  0.00     0.025 C 
HETATM    8  C4  UNL     1      22.871   1.948  51.442  1.00  0.00    -0.028 C 
BRANCH   8   9
HETATM    9  C3  UNL     1      22.094   2.404  50.229  1.00  0.00     0.206 C 
BRANCH   9  10
HETATM   10  O1  UNL     1      21.343   1.408  49.666  1.00  0.00    -0.387 OA
BRANCH  10  11
HETATM   11  C2  UNL     1      21.486   1.271  48.294  1.00  0.00     0.163 C 
HETATM   12  C1  UNL     1      22.562   2.192  47.748  1.00  0.00     0.033 C 
ENDBRANCH  10  11
ENDBRANCH   9  10
ENDBRANCH   8   9
BRANCH   8  13
HETATM   13  C16 UNL     1      24.084   2.678  51.766  1.00  0.00    -0.056 C 
HETATM   14  C17 UNL     1      24.353   3.506  52.960  1.00  0.00     0.048 C 
HETATM   15  C18 UNL     1      25.108   2.662  50.943  1.00  0.00     0.010 C 
BRANCH  15  16
HETATM   16  C19 UNL     1      26.463   3.191  50.802  1.00  0.00     0.294 C 
BRANCH  16  17
HETATM   17  N3  UNL     1      26.485   4.519  50.156  1.00  0.00     0.081 N 
HETATM   18  H23 UNL     1      27.428   4.611  49.663  1.00  0.00     0.313 HD
HETATM   19  H24 UNL     1      26.304   5.290  50.813  1.00  0.00     0.313 HD
ENDBRANCH  16  17
ENDBRANCH  15  16
ENDBRANCH   8  13
ENDBRANCH   1   7
BRANCH   6  20
HETATM   20  N2  UNL     1      24.870  -0.458  52.575  1.00  0.00    -0.351 N 
HETATM   21  H12 UNL     1      24.840  -0.511  51.521  1.00  0.00     0.166 HD
BRANCH  20  22
HETATM   22  C11 UNL     1      26.106  -0.251  53.243  1.00  0.00     0.096 A 
HETATM   23  C12 UNL     1      27.005  -1.189  52.993  1.00  0.00     0.252 A 
HETATM   24  F1  UNL     1      26.664  -2.206  52.158  1.00  0.00    -0.176 F 
HETATM   25  O2  UNL     1      28.296  -1.292  53.475  1.00  0.00    -0.322 OA
HETATM   26  C13 UNL     1      28.780  -0.312  54.360  1.00  0.00     0.206 A 
HETATM   27  C14 UNL     1      27.747   0.707  54.606  1.00  0.00     0.002 A 
HETATM   28  C15 UNL     1      26.520   0.810  54.144  1.00  0.00     0.033 A 
ENDBRANCH  20  22
ENDBRANCH   6  20
TORSDOF 9
ENDMDL
MODEL 8
REMARK VINA RESULT:      -6.5      2.852      6.746
REMARK  9 active torsions:
REMARK  status: ('A' for Active; 'I' for Inactive)
REMARK    1  A    between atoms: C2_2  and  O1_3 
REMARK    2  A    between atoms: O1_3  and  C3_4 
REMARK    3  A    between atoms: C3_4  and  C4_5 
REMARK    4  A    between atoms: C4_5  and  C16_21 
REMARK    5  A    between atoms: C5_6  and  C6_7 
REMARK    6  A    between atoms: C10_12  and  N2_13 
REMARK    7  A    between atoms: N2_13  and  C11_14 
REMARK    8  A    between atoms: C18_23  and  C19_24 
REMARK    9  A    between atoms: C19_24  and  N3_25 
ROOT
HETATM    1  C6  UNL     1      24.595   1.618  52.223  1.00  0.00     0.009 A 
HETATM    2  C7  UNL     1      24.306   2.309  51.056  1.00  0.00     0.130 A 
HETATM    3  N1  UNL     1      25.266   2.965  50.363  1.00  0.00    -0.272 NA
HETATM    4  C8  UNL     1      26.554   2.953  50.820  1.00  0.00     0.118 A 
HETATM    5  C9  UNL     1      26.878   2.281  51.969  1.00  0.00     0.049 A 
HETATM    6  C10 UNL     1      25.905   1.623  52.657  1.00  0.00     0.045 A 
ENDROOT
BRANCH   1   7
HETATM    7  C5  UNL     1      23.520   0.978  52.959  1.00  0.00     0.025 C 
HETATM    8  C4  UNL     1      22.206   0.850  52.991  1.00  0.00    -0.028 C 
BRANCH   8   9
HETATM    9  C3  UNL     1      21.605  -0.021  54.071  1.00  0.00     0.206 C 
BRANCH   9  10
HETATM   10  O1  UNL     1      21.067  -1.182  53.587  1.00  0.00    -0.387 OA
BRANCH  10  11
HETATM   11  C2  UNL     1      19.807  -1.493  54.075  1.00  0.00     0.163 C 
HETATM   12  C1  UNL     1      18.711  -0.938  53.184  1.00  0.00     0.033 C 
ENDBRANCH  10  11
ENDBRANCH   9  10
ENDBRANCH   8   9
BRANCH   8  13
HETATM   13  C16 UNL     1      21.283   1.534  52.102  1.00  0.00    -0.056 C 
HETATM   14  C17 UNL     1      20.670   2.867  52.282  1.00  0.00     0.048 C 
HETATM   15  C18 UNL     1      20.887   0.961  50.988  1.00  0.00     0.010 C 
BRANCH  15  16
HETATM   16  C19 UNL     1      20.029   1.198  49.830  1.00  0.00     0.294 C 
BRANCH  16  17
HETATM   17  N3  UNL     1      20.802   1.428  48.593  1.00  0.00     0.081 N 
HETATM   18  H23 UNL     1      20.273   2.162  48.025  1.00  0.00     0.313 HD
HETATM   19  H24 UNL     1      20.977   0.566  48.061  1.00  0.00     0.313 HD
ENDBRANCH  16  17
ENDBRANCH  15  16
ENDBRANCH   8  13
ENDBRANCH   1   7
BRANCH   6  20
HETATM   20  N2  UNL     1      26.284   0.926  53.834  1.00  0.00    -0.351 N 
HETATM   21  H12 UNL     1      26.118   1.178  54.845  1.00  0.00     0.166 HD
BRANCH  20  22
HETATM   22  C11 UNL     1      26.977  -0.269  53.503  1.00  0.00     0.096 A 
HETATM   23  C12 UNL     1      28.178  -0.353  54.051  1.00  0.00     0.252 A 
HETATM   24  F1  UNL     1      28.602   0.670  54.840  1.00  0.00    -0.176 F 
HETATM   25  O2  UNL     1      29.105  -1.371  53.935  1.00  0.00    -0.322 OA
HETATM   26  C13 UNL     1      28.803  -2.490  53.139  1.00  0.00     0.206 A 
HETATM   27  C14 UNL     1      27.461  -2.351  52.553  1.00  0.00     0.002 A 
HETATM   28  C15 UNL     1      26.574  -1.386  52.665  1.00  0.00     0.033 A 
ENDBRANCH  20  22
ENDBRANCH   6  20
TORSDOF 9
ENDMDL
MODEL 9
REMARK VINA RESULT:      -6.5      2.484      6.407
REMARK  9 active torsions:
REMARK  status: ('A' for Active; 'I' for Inactive)
REMARK    1  A    between atoms: C2_2  and  O1_3 
REMARK    2  A    between atoms: O1_3  and  C3_4 
REMARK    3  A    between atoms: C3_4  and  C4_5 
REMARK    4  A    between atoms: C4_5  and  C16_21 
REMARK    5  A    between atoms: C5_6  and  C6_7 
REMARK    6  A    between atoms: C10_12  and  N2_13 
REMARK    7  A    between atoms: N2_13  and  C11_14 
REMARK    8  A    between atoms: C18_23  and  C19_24 
REMARK    9  A    between atoms: C19_24  and  N3_25 
ROOT
HETATM    1  C6  UNL     1      24.562   1.848  52.073  1.00  0.00     0.009 A 
HETATM    2  C7  UNL     1      24.354   2.479  50.856  1.00  0.00     0.130 A 
HETATM    3  N1  UNL     1      25.369   3.060  50.174  1.00  0.00    -0.272 NA
HETATM    4  C8  UNL     1      26.632   3.030  50.694  1.00  0.00     0.118 A 
HETATM    5  C9  UNL     1      26.877   2.416  51.894  1.00  0.00     0.049 A 
HETATM    6  C10 UNL     1      25.849   1.833  52.570  1.00  0.00     0.045 A 
ENDROOT
BRANCH   1   7
HETATM    7  C5  UNL     1      23.430   1.290  52.790  1.00  0.00     0.025 C 
HETATM    8  C4  UNL     1      22.114   1.189  52.752  1.00  0.00    -0.028 C 
BRANCH   8   9
HETATM    9  C3  UNL     1      21.430   0.419  53.859  1.00  0.00     0.206 C 
BRANCH   9  10
HETATM   10  O1  UNL     1      21.158  -0.879  53.522  1.00  0.00    -0.387 OA
BRANCH  10  11
HETATM   11  C2  UNL     1      21.549  -1.822  54.460  1.00  0.00     0.163 C 
HETATM   12  C1  UNL     1      22.744  -1.347  55.266  1.00  0.00     0.033 C 
ENDBRANCH  10  11
ENDBRANCH   9  10
ENDBRANCH   8   9
BRANCH   8  13
HETATM   13  C16 UNL     1      21.262   1.815  51.756  1.00  0.00    -0.056 C 
HETATM   14  C17 UNL     1      20.841   1.269  50.449  1.00  0.00     0.048 C 
HETATM   15  C18 UNL     1      20.774   3.019  51.962  1.00  0.00     0.010 C 
BRANCH  15  16
HETATM   16  C19 UNL     1      19.931   4.027  51.326  1.00  0.00     0.294 C 
BRANCH  16  17
HETATM   17  N3  UNL     1      18.491   3.732  51.472  1.00  0.00     0.081 N 
HETATM   18  H23 UNL     1      17.984   4.249  50.687  1.00  0.00     0.313 HD
HETATM   19  H24 UNL     1      18.124   3.968  52.404  1.00  0.00     0.313 HD
ENDBRANCH  16  17
ENDBRANCH  15  16
ENDBRANCH   8  13
ENDBRANCH   1   7
BRANCH   6  20
HETATM   20  N2  UNL     1      26.147   1.194  53.801  1.00  0.00    -0.351 N 
HETATM   21  H12 UNL     1      25.673   1.293  54.739  1.00  0.00     0.166 HD
BRANCH  20  22
HETATM   22  C11 UNL     1      27.249   0.312  53.650  1.00  0.00     0.096 A 
HETATM   23  C12 UNL     1      26.899  -0.918  53.308  1.00  0.00     0.252 A 
HETATM   24  F1  UNL     1      25.577  -1.192  53.144  1.00  0.00    -0.176 F 
HETATM   25  O2  UNL     1      27.713  -2.011  53.083  1.00  0.00    -0.322 OA
HETATM   26  C13 UNL     1      29.105  -1.874  53.227  1.00  0.00     0.206 A 
HETATM   27  C14 UNL     1      29.444  -0.493  53.606  1.00  0.00     0.002 A 
HETATM   28  C15 UNL     1      28.672   0.550  53.817  1.00  0.00     0.033 A 
ENDBRANCH  20  22
ENDBRANCH   6  20
TORSDOF 9
ENDMDL
