MODEL 1
REMARK VINA RESULT:      -7.2      0.000      0.000
REMARK  5 active torsions:
REMARK  status: ('A' for Active; 'I' for Inactive)
REMARK    1  A    between atoms: C2_2  and  N1_3 
REMARK    2  A    between atoms: N1_3  and  O1_4 
REMARK    3  A    between atoms: N1_3  and  C4_6 
REMARK    4  A    between atoms: C6_8  and  N2_9 
REMARK    5  A    between atoms: N2_9  and  C7_10 
ROOT
HETATM    1  C4  UNL     1      24.600  -0.297  54.021  1.00  0.00     0.058 A 
HETATM    2  C5  UNL     1      23.321  -0.308  53.680  1.00  0.00     0.046 A 
HETATM    3  C6  UNL     1      22.799   0.276  52.545  1.00  0.00     0.069 A 
HETATM    4  C13 UNL     1      21.417   0.149  52.372  1.00  0.00     0.089 A 
HETATM    5  C14 UNL     1      20.835   0.748  51.193  1.00  0.00     0.103 C 
HETATM    6  N3  UNL     1      20.369   1.210  50.246  1.00  0.00    -0.191 NA
HETATM    7  C15 UNL     1      20.620  -0.520  53.282  1.00  0.00     0.142 A 
HETATM    8  N4  UNL     1      21.210  -1.065  54.370  1.00  0.00    -0.259 NA
HETATM    9  C16 UNL     1      22.548  -0.970  54.585  1.00  0.00     0.067 A 
HETATM   10  C17 UNL     1      23.246  -1.445  55.587  1.00  0.00     0.012 A 
HETATM   11  C18 UNL     1      24.669  -1.048  55.313  1.00  0.00     0.090 A 
ENDROOT
BRANCH   3  12
HETATM   12  N2  UNL     1      23.589   0.973  51.585  1.00  0.00    -0.354 N 
HETATM   13  H7  UNL     1      24.166   0.509  50.842  1.00  0.00     0.166 HD
BRANCH  12  14
HETATM   14  C7  UNL     1      23.616   2.402  51.613  1.00  0.00     0.033 A 
HETATM   15  C8  UNL     1      23.562   3.129  52.775  1.00  0.00     0.029 A 
HETATM   16  C9  UNL     1      23.591   4.507  52.726  1.00  0.00     0.004 A 
HETATM   17  C10 UNL     1      23.673   5.221  51.558  1.00  0.00     0.019 A 
HETATM   18  C11 UNL     1      23.728   4.508  50.371  1.00  0.00     0.013 A 
HETATM   19 BR1  UNL     1      23.843   5.385  48.684  1.00  0.00    -0.051 Br
HETATM   20  C12 UNL     1      23.697   3.126  50.434  1.00  0.00     0.048 A 
ENDBRANCH  12  14
ENDBRANCH   3  12
BRANCH   1  21
HETATM   21  N1  UNL     1      25.776   0.215  53.484  1.00  0.00    -0.238 N 
BRANCH  21  22
HETATM   22  C2  UNL     1      26.648   1.244  53.802  1.00  0.00     0.113 C 
HETATM   23  C1  UNL     1      27.097   1.988  52.777  1.00  0.00     0.032 C 
ENDBRANCH  21  22
BRANCH  21  24
HETATM   24  O1  UNL     1      26.475  -0.199  52.372  1.00  0.00    -0.279 OA
HETATM   25  C3  UNL     1      26.712  -1.580  52.411  1.00  0.00     0.238 C 
ENDBRANCH  21  24
ENDBRANCH   1  21
TORSDOF 5
ENDMDL
MODEL 2
REMARK VINA RESULT:      -7.1      1.669      3.922
REMARK  5 active torsions:
REMARK  status: ('A' for Active; 'I' for Inactive)
REMARK    1  A    between atoms: C2_2  and  N1_3 
REMARK    2  A    between atoms: N1_3  and  O1_4 
REMARK    3  A    between atoms: N1_3  and  C4_6 
REMARK    4  A    between atoms: C6_8  and  N2_9 
REMARK    5  A    between atoms: N2_9  and  C7_10 
ROOT
HETATM    1  C4  UNL     1      22.292  -0.141  52.919  1.00  0.00     0.058 A 
HETATM    2  C5  UNL     1      23.544  -0.067  53.341  1.00  0.00     0.046 A 
HETATM    3  C6  UNL     1      24.548   0.645  52.721  1.00  0.00     0.069 A 
HETATM    4  C13 UNL     1      25.805   0.590  53.333  1.00  0.00     0.089 A 
HETATM    5  C14 UNL     1      26.882   1.325  52.710  1.00  0.00     0.103 C 
HETATM    6  N3  UNL     1      27.739   1.925  52.227  1.00  0.00    -0.191 NA
HETATM    7  C15 UNL     1      26.030  -0.133  54.488  1.00  0.00     0.142 A 
HETATM    8  N4  UNL     1      24.992  -0.805  55.035  1.00  0.00    -0.259 NA
HETATM    9  C16 UNL     1      23.751  -0.785  54.480  1.00  0.00     0.067 A 
HETATM   10  C17 UNL     1      22.664  -1.384  54.898  1.00  0.00     0.012 A 
HETATM   11  C18 UNL     1      21.593  -1.018  53.910  1.00  0.00     0.090 A 
ENDROOT
BRANCH   3  12
HETATM   12  N2  UNL     1      24.354   1.403  51.529  1.00  0.00    -0.354 N 
HETATM   13  H7  UNL     1      24.359   0.999  50.562  1.00  0.00     0.166 HD
BRANCH  12  14
HETATM   14  C7  UNL     1      24.134   2.812  51.630  1.00  0.00     0.033 A 
HETATM   15  C8  UNL     1      23.671   3.418  52.771  1.00  0.00     0.029 A 
HETATM   16  C9  UNL     1      23.482   4.783  52.795  1.00  0.00     0.004 A 
HETATM   17  C10 UNL     1      23.734   5.602  51.724  1.00  0.00     0.019 A 
HETATM   18  C11 UNL     1      24.203   5.012  50.561  1.00  0.00     0.013 A 
HETATM   19 BR1  UNL     1      24.591   6.042  49.006  1.00  0.00    -0.051 Br
HETATM   20  C12 UNL     1      24.388   3.641  50.549  1.00  0.00     0.048 A 
ENDBRANCH  12  14
ENDBRANCH   3  12
BRANCH   1  21
HETATM   21  N1  UNL     1      21.561   0.376  51.854  1.00  0.00    -0.238 N 
BRANCH  21  22
HETATM   22  C2  UNL     1      20.637   1.394  51.685  1.00  0.00     0.113 C 
HETATM   23  C1  UNL     1      20.311   2.097  52.784  1.00  0.00     0.032 C 
ENDBRANCH  21  22
BRANCH  21  24
HETATM   24  O1  UNL     1      21.549  -0.022  50.536  1.00  0.00    -0.279 OA
HETATM   25  C3  UNL     1      21.415   1.078  49.679  1.00  0.00     0.238 C 
ENDBRANCH  21  24
ENDBRANCH   1  21
TORSDOF 5
ENDMDL
MODEL 3
REMARK VINA RESULT:      -7.0      2.447      4.973
REMARK  5 active torsions:
REMARK  status: ('A' for Active; 'I' for Inactive)
REMARK    1  A    between atoms: C2_2  and  N1_3 
REMARK    2  A    between atoms: N1_3  and  O1_4 
REMARK    3  A    between atoms: N1_3  and  C4_6 
REMARK    4  A    between atoms: C6_8  and  N2_9 
REMARK    5  A    between atoms: N2_9  and  C7_10 
ROOT
HETATM    1  C4  UNL     1      23.415   2.157  50.887  1.00  0.00     0.058 A 
HETATM    2  C5  UNL     1      22.686   1.244  51.510  1.00  0.00     0.046 A 
HETATM    3  C6  UNL     1      22.966   0.724  52.755  1.00  0.00     0.069 A 
HETATM    4  C13 UNL     1      22.066  -0.234  53.234  1.00  0.00     0.089 A 
HETATM    5  C14 UNL     1      22.327  -0.802  54.537  1.00  0.00     0.103 C 
HETATM    6  N3  UNL     1      22.522  -1.243  55.583  1.00  0.00    -0.191 NA
HETATM    7  C15 UNL     1      20.963  -0.636  52.506  1.00  0.00     0.142 A 
HETATM    8  N4  UNL     1      20.759  -0.077  51.292  1.00  0.00    -0.259 NA
HETATM    9  C16 UNL     1      21.604   0.858  50.780  1.00  0.00     0.067 A 
HETATM   10  C17 UNL     1      21.529   1.477  49.628  1.00  0.00     0.012 A 
HETATM   11  C18 UNL     1      22.716   2.396  49.584  1.00  0.00     0.090 A 
ENDROOT
BRANCH   3  12
HETATM   12  N2  UNL     1      24.093   1.115  53.536  1.00  0.00    -0.354 N 
HETATM   13  H7  UNL     1      24.080   1.876  54.257  1.00  0.00     0.166 HD
BRANCH  12  14
HETATM   14  C7  UNL     1      25.339   0.439  53.345  1.00  0.00     0.033 A 
HETATM   15  C8  UNL     1      25.442  -0.778  52.718  1.00  0.00     0.029 A 
HETATM   16  C9  UNL     1      26.677  -1.371  52.569  1.00  0.00     0.004 A 
HETATM   17  C10 UNL     1      27.846  -0.811  53.019  1.00  0.00     0.019 A 
HETATM   18  C11 UNL     1      27.766   0.418  53.655  1.00  0.00     0.013 A 
HETATM   19 BR1  UNL     1      29.317   1.298  54.323  1.00  0.00    -0.051 Br
HETATM   20  C12 UNL     1      26.520   1.003  53.798  1.00  0.00     0.048 A 
ENDBRANCH  12  14
ENDBRANCH   3  12
BRANCH   1  21
HETATM   21  N1  UNL     1      24.576   2.871  51.161  1.00  0.00    -0.238 N 
BRANCH  21  22
HETATM   22  C2  UNL     1      25.869   2.892  50.662  1.00  0.00     0.113 C 
HETATM   23  C1  UNL     1      26.122   3.781  49.686  1.00  0.00     0.032 C 
ENDBRANCH  21  22
BRANCH  21  24
HETATM   24  O1  UNL     1      24.790   3.855  52.099  1.00  0.00    -0.279 OA
HETATM   25  C3  UNL     1      23.619   4.587  52.337  1.00  0.00     0.238 C 
ENDBRANCH  21  24
ENDBRANCH   1  21
TORSDOF 5
ENDMDL
MODEL 4
REMARK VINA RESULT:      -6.9      2.533      4.797
REMARK  5 active torsions:
REMARK  status: ('A' for Active; 'I' for Inactive)
REMARK    1  A    between atoms: C2_2  and  N1_3 
REMARK    2  A    between atoms: N1_3  and  O1_4 
REMARK    3  A    between atoms: N1_3  and  C4_6 
REMARK    4  A    between atoms: C6_8  and  N2_9 
REMARK    5  A    between atoms: N2_9  and  C7_10 
ROOT
HETATM    1  C4  UNL     1      21.040   0.839  53.047  1.00  0.00     0.058 A 
HETATM    2  C5  UNL     1      22.358   0.742  52.974  1.00  0.00     0.046 A 
HETATM    3  C6  UNL     1      23.181   1.624  52.308  1.00  0.00     0.069 A 
HETATM    4  C13 UNL     1      24.550   1.338  52.354  1.00  0.00     0.089 A 
HETATM    5  C14 UNL     1      25.443   2.242  51.665  1.00  0.00     0.103 C 
HETATM    6  N3  UNL     1      26.160   2.970  51.133  1.00  0.00    -0.191 NA
HETATM    7  C15 UNL     1      25.050   0.240  53.026  1.00  0.00     0.142 A 
HETATM    8  N4  UNL     1      24.175  -0.577  53.655  1.00  0.00    -0.259 NA
HETATM    9  C16 UNL     1      22.836  -0.345  53.641  1.00  0.00     0.067 A 
HETATM   10  C17 UNL     1      21.883  -1.047  54.202  1.00  0.00     0.012 A 
HETATM   11  C18 UNL     1      20.604  -0.336  53.866  1.00  0.00     0.090 A 
ENDROOT
BRANCH   3  12
HETATM   12  N2  UNL     1      22.702   2.768  51.604  1.00  0.00    -0.354 N 
HETATM   13  H7  UNL     1      22.507   3.698  52.047  1.00  0.00     0.166 HD
BRANCH  12  14
HETATM   14  C7  UNL     1      22.465   2.670  50.198  1.00  0.00     0.033 A 
HETATM   15  C8  UNL     1      22.146   1.490  49.573  1.00  0.00     0.029 A 
HETATM   16  C9  UNL     1      21.931   1.469  48.212  1.00  0.00     0.004 A 
HETATM   17  C10 UNL     1      22.015   2.583  47.415  1.00  0.00     0.019 A 
HETATM   18  C11 UNL     1      22.335   3.786  48.024  1.00  0.00     0.013 A 
HETATM   19 BR1  UNL     1      22.482   5.402  47.026  1.00  0.00    -0.051 Br
HETATM   20  C12 UNL     1      22.550   3.793  49.391  1.00  0.00     0.048 A 
ENDBRANCH  12  14
ENDBRANCH   3  12
BRANCH   1  21
HETATM   21  N1  UNL     1      20.072   1.715  52.570  1.00  0.00    -0.238 N 
BRANCH  21  22
HETATM   22  C2  UNL     1      18.964   1.617  51.743  1.00  0.00     0.113 C 
HETATM   23  C1  UNL     1      18.837   0.477  51.044  1.00  0.00     0.032 C 
ENDBRANCH  21  22
BRANCH  21  24
HETATM   24  O1  UNL     1      19.928   3.063  52.810  1.00  0.00    -0.279 OA
HETATM   25  C3  UNL     1      19.327   3.708  51.720  1.00  0.00     0.238 C 
ENDBRANCH  21  24
ENDBRANCH   1  21
TORSDOF 5
ENDMDL
MODEL 5
REMARK VINA RESULT:      -6.8      2.389      4.888
REMARK  5 active torsions:
REMARK  status: ('A' for Active; 'I' for Inactive)
REMARK    1  A    between atoms: C2_2  and  N1_3 
REMARK    2  A    between atoms: N1_3  and  O1_4 
REMARK    3  A    between atoms: N1_3  and  C4_6 
REMARK    4  A    between atoms: C6_8  and  N2_9 
REMARK    5  A    between atoms: N2_9  and  C7_10 
ROOT
HETATM    1  C4  UNL     1      24.851   2.560  51.576  1.00  0.00     0.058 A 
HETATM    2  C5  UNL     1      24.777   1.438  52.274  1.00  0.00     0.046 A 
HETATM    3  C6  UNL     1      23.671   1.017  52.981  1.00  0.00     0.069 A 
HETATM    4  C13 UNL     1      23.803  -0.203  53.653  1.00  0.00     0.089 A 
HETATM    5  C14 UNL     1      22.663  -0.676  54.405  1.00  0.00     0.103 C 
HETATM    6  N3  UNL     1      21.750  -1.065  54.991  1.00  0.00    -0.191 NA
HETATM    7  C15 UNL     1      24.969  -0.943  53.613  1.00  0.00     0.142 A 
HETATM    8  N4  UNL     1      26.008  -0.460  52.896  1.00  0.00    -0.259 NA
HETATM    9  C16 UNL     1      25.933   0.720  52.226  1.00  0.00     0.067 A 
HETATM   10  C17 UNL     1      26.854   1.302  51.499  1.00  0.00     0.012 A 
HETATM   11  C18 UNL     1      26.232   2.574  50.998  1.00  0.00     0.090 A 
ENDROOT
BRANCH   3  12
HETATM   12  N2  UNL     1      22.452   1.753  53.045  1.00  0.00    -0.354 N 
HETATM   13  H7  UNL     1      22.222   2.456  53.788  1.00  0.00     0.166 HD
BRANCH  12  14
HETATM   14  C7  UNL     1      21.457   1.537  52.041  1.00  0.00     0.033 A 
HETATM   15  C8  UNL     1      21.621   0.657  51.001  1.00  0.00     0.029 A 
HETATM   16  C9  UNL     1      20.618   0.501  50.068  1.00  0.00     0.004 A 
HETATM   17  C10 UNL     1      19.431   1.187  50.110  1.00  0.00     0.019 A 
HETATM   18  C11 UNL     1      19.243   2.082  51.152  1.00  0.00     0.013 A 
HETATM   19 BR1  UNL     1      17.638   3.093  51.321  1.00  0.00    -0.051 Br
HETATM   20  C12 UNL     1      20.257   2.230  52.081  1.00  0.00     0.048 A 
ENDBRANCH  12  14
ENDBRANCH   3  12
BRANCH   1  21
HETATM   21  N1  UNL     1      24.000   3.623  51.293  1.00  0.00    -0.238 N 
BRANCH  21  22
HETATM   22  C2  UNL     1      23.348   4.101  50.168  1.00  0.00     0.113 C 
HETATM   23  C1  UNL     1      23.274   3.266  49.118  1.00  0.00     0.032 C 
ENDBRANCH  21  22
BRANCH  21  24
HETATM   24  O1  UNL     1      23.519   4.598  52.138  1.00  0.00    -0.279 OA
HETATM   25  C3  UNL     1      23.761   5.878  51.621  1.00  0.00     0.238 C 
ENDBRANCH  21  24
ENDBRANCH   1  21
TORSDOF 5
ENDMDL
MODEL 6
REMARK VINA RESULT:      -6.5      2.860      5.014
REMARK  5 active torsions:
REMARK  status: ('A' for Active; 'I' for Inactive)
REMARK    1  A    between atoms: C2_2  and  N1_3 
REMARK    2  A    between atoms: N1_3  and  O1_4 
REMARK    3  A    between atoms: N1_3  and  C4_6 
REMARK    4  A    between atoms: C6_8  and  N2_9 
REMARK    5  A    between atoms: N2_9  and  C7_10 
ROOT
HETATM    1  C4  UNL     1      22.222   3.667  50.443  1.00  0.00     0.058 A 
HETATM    2  C5  UNL     1      21.658   2.863  51.331  1.00  0.00     0.046 A 
HETATM    3  C6  UNL     1      22.202   1.682  51.787  1.00  0.00     0.069 A 
HETATM    4  C13 UNL     1      21.440   0.981  52.728  1.00  0.00     0.089 A 
HETATM    5  C14 UNL     1      21.979  -0.263  53.229  1.00  0.00     0.103 C 
HETATM    6  N3  UNL     1      22.413  -1.246  53.644  1.00  0.00    -0.191 NA
HETATM    7  C15 UNL     1      20.216   1.442  53.175  1.00  0.00     0.142 A 
HETATM    8  N4  UNL     1      19.753   2.611  52.678  1.00  0.00    -0.259 NA
HETATM    9  C16 UNL     1      20.454   3.331  51.761  1.00  0.00     0.067 A 
HETATM   10  C17 UNL     1      20.128   4.468  51.200  1.00  0.00     0.012 A 
HETATM   11  C18 UNL     1      21.263   4.803  50.274  1.00  0.00     0.090 A 
ENDROOT
BRANCH   3  12
HETATM   12  N2  UNL     1      23.460   1.175  51.350  1.00  0.00    -0.354 N 
HETATM   13  H7  UNL     1      23.620   0.694  50.432  1.00  0.00     0.166 HD
BRANCH  12  14
HETATM   14  C7  UNL     1      24.601   1.318  52.201  1.00  0.00     0.033 A 
HETATM   15  C8  UNL     1      24.817   2.425  52.983  1.00  0.00     0.029 A 
HETATM   16  C9  UNL     1      25.939   2.495  53.779  1.00  0.00     0.004 A 
HETATM   17  C10 UNL     1      26.885   1.503  53.845  1.00  0.00     0.019 A 
HETATM   18  C11 UNL     1      26.687   0.375  53.064  1.00  0.00     0.013 A 
HETATM   19 BR1  UNL     1      27.927  -1.071  53.068  1.00  0.00    -0.051 Br
HETATM   20  C12 UNL     1      25.556   0.317  52.269  1.00  0.00     0.048 A 
ENDBRANCH  12  14
ENDBRANCH   3  12
BRANCH   1  21
HETATM   21  N1  UNL     1      23.402   3.676  49.707  1.00  0.00    -0.238 N 
BRANCH  21  22
HETATM   22  C2  UNL     1      24.544   4.461  49.672  1.00  0.00     0.113 C 
HETATM   23  C1  UNL     1      25.719   3.810  49.639  1.00  0.00     0.032 C 
ENDBRANCH  21  22
BRANCH  21  24
HETATM   24  O1  UNL     1      23.808   2.823  48.706  1.00  0.00    -0.279 OA
HETATM   25  C3  UNL     1      22.718   2.393  47.937  1.00  0.00     0.238 C 
ENDBRANCH  21  24
ENDBRANCH   1  21
TORSDOF 5
ENDMDL
MODEL 7
REMARK VINA RESULT:      -6.3      2.944      5.678
REMARK  5 active torsions:
REMARK  status: ('A' for Active; 'I' for Inactive)
REMARK    1  A    between atoms: C2_2  and  N1_3 
REMARK    2  A    between atoms: N1_3  and  O1_4 
REMARK    3  A    between atoms: N1_3  and  C4_6 
REMARK    4  A    between atoms: C6_8  and  N2_9 
REMARK    5  A    between atoms: N2_9  and  C7_10 
ROOT
HETATM    1  C4  UNL     1      21.915   2.432  52.126  1.00  0.00     0.058 A 
HETATM    2  C5  UNL     1      22.744   3.263  51.515  1.00  0.00     0.046 A 
HETATM    3  C6  UNL     1      23.989   2.925  51.030  1.00  0.00     0.069 A 
HETATM    4  C13 UNL     1      24.707   3.956  50.415  1.00  0.00     0.089 A 
HETATM    5  C14 UNL     1      26.017   3.639  49.894  1.00  0.00     0.103 C 
HETATM    6  N3  UNL     1      27.054   3.385  49.462  1.00  0.00    -0.191 NA
HETATM    7  C15 UNL     1      24.202   5.238  50.300  1.00  0.00     0.142 A 
HETATM    8  N4  UNL     1      22.971   5.487  50.802  1.00  0.00    -0.259 NA
HETATM    9  C16 UNL     1      22.233   4.521  51.409  1.00  0.00     0.067 A 
HETATM   10  C17 UNL     1      21.038   4.621  51.936  1.00  0.00     0.012 A 
HETATM   11  C18 UNL     1      20.709   3.253  52.461  1.00  0.00     0.090 A 
ENDROOT
BRANCH   3  12
HETATM   12  N2  UNL     1      24.543   1.615  51.129  1.00  0.00    -0.354 N 
HETATM   13  H7  UNL     1      24.357   0.839  50.449  1.00  0.00     0.166 HD
BRANCH  12  14
HETATM   14  C7  UNL     1      25.417   1.312  52.220  1.00  0.00     0.033 A 
HETATM   15  C8  UNL     1      25.474   2.065  53.365  1.00  0.00     0.029 A 
HETATM   16  C9  UNL     1      26.342   1.713  54.377  1.00  0.00     0.004 A 
HETATM   17  C10 UNL     1      27.178   0.627  54.314  1.00  0.00     0.019 A 
HETATM   18  C11 UNL     1      27.138  -0.149  53.165  1.00  0.00     0.013 A 
HETATM   19 BR1  UNL     1      28.249  -1.681  52.958  1.00  0.00    -0.051 Br
HETATM   20  C12 UNL     1      26.263   0.216  52.158  1.00  0.00     0.048 A 
ENDBRANCH  12  14
ENDBRANCH   3  12
BRANCH   1  21
HETATM   21  N1  UNL     1      21.928   1.088  52.487  1.00  0.00    -0.238 N 
BRANCH  21  22
HETATM   22  C2  UNL     1      22.101   0.378  53.664  1.00  0.00     0.113 C 
HETATM   23  C1  UNL     1      21.011   0.215  54.432  1.00  0.00     0.032 C 
ENDBRANCH  21  22
BRANCH  21  24
HETATM   24  O1  UNL     1      21.755  -0.024  51.695  1.00  0.00    -0.279 OA
HETATM   25  C3  UNL     1      21.110   0.305  50.495  1.00  0.00     0.238 C 
ENDBRANCH  21  24
ENDBRANCH   1  21
TORSDOF 5
ENDMDL
MODEL 8
REMARK VINA RESULT:      -6.2      2.956      5.302
REMARK  5 active torsions:
REMARK  status: ('A' for Active; 'I' for Inactive)
REMARK    1  A    between atoms: C2_2  and  N1_3 
REMARK    2  A    between atoms: N1_3  and  O1_4 
REMARK    3  A    between atoms: N1_3  and  C4_6 
REMARK    4  A    between atoms: C6_8  and  N2_9 
REMARK    5  A    between atoms: N2_9  and  C7_10 
ROOT
HETATM    1  C4  UNL     1      22.680   2.338  51.274  1.00  0.00     0.058 A 
HETATM    2  C5  UNL     1      24.001   2.412  51.228  1.00  0.00     0.046 A 
HETATM    3  C6  UNL     1      24.720   3.154  50.316  1.00  0.00     0.069 A 
HETATM    4  C13 UNL     1      26.112   3.095  50.441  1.00  0.00     0.089 A 
HETATM    5  C14 UNL     1      26.899   3.860  49.501  1.00  0.00     0.103 C 
HETATM    6  N3  UNL     1      27.530   4.483  48.765  1.00  0.00    -0.191 NA
HETATM    7  C15 UNL     1      26.732   2.339  51.418  1.00  0.00     0.142 A 
HETATM    8  N4  UNL     1      25.954   1.640  52.275  1.00  0.00    -0.259 NA
HETATM    9  C16 UNL     1      24.597   1.663  52.196  1.00  0.00     0.067 A 
HETATM   10  C17 UNL     1      23.728   1.040  52.953  1.00  0.00     0.012 A 
HETATM   11  C18 UNL     1      22.377   1.423  52.420  1.00  0.00     0.090 A 
ENDROOT
BRANCH   3  12
HETATM   12  N2  UNL     1      24.117   3.945  49.295  1.00  0.00    -0.354 N 
HETATM   13  H7  UNL     1      23.746   3.565  48.391  1.00  0.00     0.166 HD
BRANCH  12  14
HETATM   14  C7  UNL     1      23.995   5.356  49.490  1.00  0.00     0.033 A 
HETATM   15  C8  UNL     1      23.756   5.925  50.716  1.00  0.00     0.029 A 
HETATM   16  C9  UNL     1      23.650   7.294  50.830  1.00  0.00     0.004 A 
HETATM   17  C10 UNL     1      23.770   8.154  49.768  1.00  0.00     0.019 A 
HETATM   18  C11 UNL     1      24.012   7.603  48.519  1.00  0.00     0.013 A 
HETATM   19 BR1  UNL     1      24.199   8.691  46.967  1.00  0.00    -0.051 Br
HETATM   20  C12 UNL     1      24.116   6.227  48.419  1.00  0.00     0.048 A 
ENDBRANCH  12  14
ENDBRANCH   3  12
BRANCH   1  21
HETATM   21  N1  UNL     1      21.620   2.878  50.554  1.00  0.00    -0.238 N 
BRANCH  21  22
HETATM   22  C2  UNL     1      20.529   3.681  50.845  1.00  0.00     0.113 C 
HETATM   23  C1  UNL     1      20.390   4.795  50.107  1.00  0.00     0.032 C 
ENDBRANCH  21  22
BRANCH  21  24
HETATM   24  O1  UNL     1      21.326   2.752  49.215  1.00  0.00    -0.279 OA
HETATM   25  C3  UNL     1      21.361   1.409  48.815  1.00  0.00     0.238 C 
ENDBRANCH  21  24
ENDBRANCH   1  21
TORSDOF 5
ENDMDL
MODEL 9
REMARK VINA RESULT:      -6.0      2.583      4.903
REMARK  5 active torsions:
REMARK  status: ('A' for Active; 'I' for Inactive)
REMARK    1  A    between atoms: C2_2  and  N1_3 
REMARK    2  A    between atoms: N1_3  and  O1_4 
REMARK    3  A    between atoms: N1_3  and  C4_6 
REMARK    4  A    between atoms: C6_8  and  N2_9 
REMARK    5  A    between atoms: N2_9  and  C7_10 
ROOT
HETATM    1  C4  UNL     1      21.448   2.373  50.843  1.00  0.00     0.058 A 
HETATM    2  C5  UNL     1      22.507   2.011  51.550  1.00  0.00     0.046 A 
HETATM    3  C6  UNL     1      23.813   2.312  51.230  1.00  0.00     0.069 A 
HETATM    4  C13 UNL     1      24.786   1.833  52.113  1.00  0.00     0.089 A 
HETATM    5  C14 UNL     1      26.167   2.130  51.809  1.00  0.00     0.103 C 
HETATM    6  N3  UNL     1      27.268   2.380  51.580  1.00  0.00    -0.191 NA
HETATM    7  C15 UNL     1      24.461   1.101  53.239  1.00  0.00     0.142 A 
HETATM    8  N4  UNL     1      23.155   0.848  53.482  1.00  0.00    -0.259 NA
HETATM    9  C16 UNL     1      22.171   1.290  52.656  1.00  0.00     0.067 A 
HETATM   10  C17 UNL     1      20.877   1.120  52.768  1.00  0.00     0.012 A 
HETATM   11  C18 UNL     1      20.272   1.818  51.583  1.00  0.00     0.090 A 
ENDROOT
BRANCH   3  12
HETATM   12  N2  UNL     1      24.187   3.065  50.078  1.00  0.00    -0.354 N 
HETATM   13  H7  UNL     1      24.231   2.677  49.105  1.00  0.00     0.166 HD
BRANCH  12  14
HETATM   14  C7  UNL     1      24.531   4.445  50.231  1.00  0.00     0.033 A 
HETATM   15  C8  UNL     1      23.914   5.274  51.134  1.00  0.00     0.029 A 
HETATM   16  C9  UNL     1      24.296   6.595  51.226  1.00  0.00     0.004 A 
HETATM   17  C10 UNL     1      25.282   7.154  50.453  1.00  0.00     0.019 A 
HETATM   18  C11 UNL     1      25.919   6.335  49.534  1.00  0.00     0.013 A 
HETATM   19 BR1  UNL     1      27.304   6.993  48.403  1.00  0.00    -0.051 Br
HETATM   20  C12 UNL     1      25.526   5.011  49.451  1.00  0.00     0.048 A 
ENDBRANCH  12  14
ENDBRANCH   3  12
BRANCH   1  21
HETATM   21  N1  UNL     1      21.221   3.090  49.673  1.00  0.00    -0.238 N 
BRANCH  21  22
HETATM   22  C2  UNL     1      20.513   4.231  49.329  1.00  0.00     0.113 C 
HETATM   23  C1  UNL     1      21.184   5.168  48.639  1.00  0.00     0.032 C 
ENDBRANCH  21  22
BRANCH  21  24
HETATM   24  O1  UNL     1      21.682   2.842  48.400  1.00  0.00    -0.279 OA
HETATM   25  C3  UNL     1      21.698   1.468  48.127  1.00  0.00     0.238 C 
ENDBRANCH  21  24
ENDBRANCH   1  21
TORSDOF 5
ENDMDL
