MODEL 1
REMARK VINA RESULT:      -8.0      0.000      0.000
REMARK  2 active torsions:
REMARK  status: ('A' for Active; 'I' for Inactive)
REMARK    1  A    between atoms: N2_3  and  C2_4 
REMARK    2  A    between atoms: C7_9  and  C8_10 
ROOT
HETATM    1  C2  UNL     1      21.921   0.474  51.860  1.00  0.00     0.056 A 
HETATM    2  C3  UNL     1      20.960   0.434  50.875  1.00  0.00     0.031 A 
HETATM    3  C4  UNL     1      21.023   1.081  49.661  1.00  0.00     0.002 A 
HETATM    4  C5  UNL     1      22.130   1.837  49.383  1.00  0.00     0.001 A 
HETATM    5  C6  UNL     1      23.141   1.929  50.316  1.00  0.00     0.014 A 
HETATM    6  C7  UNL     1      23.010   1.246  51.525  1.00  0.00     0.002 A 
ENDROOT
BRANCH   6   7
HETATM    7  C8  UNL     1      24.170   1.404  52.389  1.00  0.00    -0.021 A 
HETATM    8  C9  UNL     1      24.515   2.452  53.214  1.00  0.00     0.015 A 
HETATM    9  C10 UNL     1      25.686   2.412  53.943  1.00  0.00     0.040 A 
HETATM   10  C11 UNL     1      26.556   1.358  53.896  1.00  0.00     0.102 A 
HETATM   11  C12 UNL     1      26.248   0.288  53.083  1.00  0.00     0.102 A 
HETATM   12  O2  UNL     1      27.742   1.307  54.629  1.00  0.00    -0.346 OA
HETATM   13  C13 UNL     1      25.061   0.327  52.342  1.00  0.00     0.052 A 
HETATM   14  O1  UNL     1      27.099  -0.807  53.001  1.00  0.00    -0.346 OA
HETATM   15  C14 UNL     1      28.453  -0.597  53.405  1.00  0.00     0.202 C 
HETATM   16  C15 UNL     1      28.481   0.093  54.746  1.00  0.00     0.202 C 
ENDBRANCH   6   7
BRANCH   1  17
HETATM   17  N2  UNL     1      21.823  -0.173  53.121  1.00  0.00    -0.317 N 
HETATM   18  N1  UNL     1      22.248  -1.373  53.695  1.00  0.00    -0.251 NA
HETATM   19  C1  UNL     1      21.693  -0.986  54.792  1.00  0.00     0.292 A 
HETATM   20  C16 UNL     1      21.179   0.324  54.322  1.00  0.00     0.167 A 
ENDBRANCH   1  17
TORSDOF 2
ENDMDL
MODEL 2
REMARK VINA RESULT:      -7.8      1.800      3.100
REMARK  2 active torsions:
REMARK  status: ('A' for Active; 'I' for Inactive)
REMARK    1  A    between atoms: N2_3  and  C2_4 
REMARK    2  A    between atoms: C7_9  and  C8_10 
ROOT
HETATM    1  C2  UNL     1      22.498   0.923  52.616  1.00  0.00     0.056 A 
HETATM    2  C3  UNL     1      21.196   0.491  52.742  1.00  0.00     0.031 A 
HETATM    3  C4  UNL     1      20.762  -0.532  53.552  1.00  0.00     0.002 A 
HETATM    4  C5  UNL     1      21.686  -1.197  54.314  1.00  0.00     0.001 A 
HETATM    5  C6  UNL     1      23.012  -0.826  54.249  1.00  0.00     0.014 A 
HETATM    6  C7  UNL     1      23.381   0.221  53.405  1.00  0.00     0.002 A 
ENDROOT
BRANCH   6   7
HETATM    7  C8  UNL     1      24.802   0.524  53.472  1.00  0.00    -0.021 A 
HETATM    8  C9  UNL     1      25.440   1.745  53.518  1.00  0.00     0.015 A 
HETATM    9  C10 UNL     1      26.816   1.814  53.557  1.00  0.00     0.040 A 
HETATM   10  C11 UNL     1      27.618   0.705  53.554  1.00  0.00     0.102 A 
HETATM   11  C12 UNL     1      27.020  -0.536  53.510  1.00  0.00     0.102 A 
HETATM   12  O2  UNL     1      29.011   0.764  53.595  1.00  0.00    -0.346 OA
HETATM   13  C13 UNL     1      25.623  -0.608  53.469  1.00  0.00     0.052 A 
HETATM   14  O1  UNL     1      27.791  -1.692  53.505  1.00  0.00    -0.346 OA
HETATM   15  C14 UNL     1      29.154  -1.552  53.101  1.00  0.00     0.202 C 
HETATM   16  C15 UNL     1      29.788  -0.405  53.847  1.00  0.00     0.202 C 
ENDBRANCH   6   7
BRANCH   1  17
HETATM   17  N2  UNL     1      22.932   1.960  51.747  1.00  0.00    -0.317 N 
HETATM   18  N1  UNL     1      23.591   2.064  50.521  1.00  0.00    -0.251 NA
HETATM   19  C1  UNL     1      23.472   3.343  50.622  1.00  0.00     0.292 A 
HETATM   20  C16 UNL     1      22.764   3.390  51.925  1.00  0.00     0.167 A 
ENDBRANCH   1  17
TORSDOF 2
ENDMDL
MODEL 3
REMARK VINA RESULT:      -7.5      2.053      3.253
REMARK  2 active torsions:
REMARK  status: ('A' for Active; 'I' for Inactive)
REMARK    1  A    between atoms: N2_3  and  C2_4 
REMARK    2  A    between atoms: C7_9  and  C8_10 
ROOT
HETATM    1  C2  UNL     1      23.063   2.244  50.444  1.00  0.00     0.056 A 
HETATM    2  C3  UNL     1      21.879   2.008  49.782  1.00  0.00     0.031 A 
HETATM    3  C4  UNL     1      20.948   1.051  50.114  1.00  0.00     0.002 A 
HETATM    4  C5  UNL     1      21.195   0.249  51.197  1.00  0.00     0.001 A 
HETATM    5  C6  UNL     1      22.358   0.422  51.917  1.00  0.00     0.014 A 
HETATM    6  C7  UNL     1      23.258   1.412  51.523  1.00  0.00     0.002 A 
ENDROOT
BRANCH   6   7
HETATM    7  C8  UNL     1      24.416   1.502  52.399  1.00  0.00    -0.021 A 
HETATM    8  C9  UNL     1      24.785   2.505  53.267  1.00  0.00     0.015 A 
HETATM    9  C10 UNL     1      25.949   2.404  54.001  1.00  0.00     0.040 A 
HETATM   10  C11 UNL     1      26.789   1.327  53.917  1.00  0.00     0.102 A 
HETATM   11  C12 UNL     1      26.456   0.300  53.060  1.00  0.00     0.102 A 
HETATM   12  O2  UNL     1      27.967   1.214  54.655  1.00  0.00    -0.346 OA
HETATM   13  C13 UNL     1      25.276   0.402  52.315  1.00  0.00     0.052 A 
HETATM   14  O1  UNL     1      27.276  -0.815  52.940  1.00  0.00    -0.346 OA
HETATM   15  C14 UNL     1      28.633  -0.660  53.360  1.00  0.00     0.202 C 
HETATM   16  C15 UNL     1      28.671  -0.025  54.727  1.00  0.00     0.202 C 
ENDBRANCH   6   7
BRANCH   1  17
HETATM   17  N2  UNL     1      24.029   3.216  50.065  1.00  0.00    -0.317 N 
HETATM   18  N1  UNL     1      25.272   3.235  49.431  1.00  0.00    -0.251 NA
HETATM   19  C1  UNL     1      25.265   4.516  49.565  1.00  0.00     0.292 A 
HETATM   20  C16 UNL     1      23.956   4.653  50.249  1.00  0.00     0.167 A 
ENDBRANCH   1  17
TORSDOF 2
ENDMDL
MODEL 4
REMARK VINA RESULT:      -7.3      3.423      5.436
REMARK  2 active torsions:
REMARK  status: ('A' for Active; 'I' for Inactive)
REMARK    1  A    between atoms: N2_3  and  C2_4 
REMARK    2  A    between atoms: C7_9  and  C8_10 
ROOT
HETATM    1  C2  UNL     1      25.519   0.030  54.062  1.00  0.00     0.056 A 
HETATM    2  C3  UNL     1      24.864  -0.878  54.864  1.00  0.00     0.031 A 
HETATM    3  C4  UNL     1      23.520  -1.169  54.820  1.00  0.00     0.002 A 
HETATM    4  C5  UNL     1      22.741  -0.513  53.904  1.00  0.00     0.001 A 
HETATM    5  C6  UNL     1      23.319   0.412  53.060  1.00  0.00     0.014 A 
HETATM    6  C7  UNL     1      24.688   0.657  53.162  1.00  0.00     0.002 A 
ENDROOT
BRANCH   6   7
HETATM    7  C8  UNL     1      25.161   1.625  52.183  1.00  0.00    -0.021 A 
HETATM    8  C9  UNL     1      26.247   1.561  51.338  1.00  0.00     0.015 A 
HETATM    9  C10 UNL     1      26.536   2.610  50.490  1.00  0.00     0.040 A 
HETATM   10  C11 UNL     1      25.783   3.751  50.435  1.00  0.00     0.102 A 
HETATM   11  C12 UNL     1      24.686   3.855  51.263  1.00  0.00     0.102 A 
HETATM   12  O2  UNL     1      26.066   4.817  49.581  1.00  0.00    -0.346 OA
HETATM   13  C13 UNL     1      24.392   2.792  52.124  1.00  0.00     0.052 A 
HETATM   14  O1  UNL     1      23.890   4.993  51.243  1.00  0.00    -0.346 OA
HETATM   15  C14 UNL     1      24.479   6.177  50.703  1.00  0.00     0.202 C 
HETATM   16  C15 UNL     1      25.119   5.863  49.374  1.00  0.00     0.202 C 
ENDBRANCH   6   7
BRANCH   1  17
HETATM   17  N2  UNL     1      26.903   0.342  54.146  1.00  0.00    -0.317 N 
HETATM   18  N1  UNL     1      27.694   1.378  54.645  1.00  0.00    -0.251 NA
HETATM   19  C1  UNL     1      28.725   0.712  54.256  1.00  0.00     0.292 A 
HETATM   20  C16 UNL     1      28.019  -0.461  53.683  1.00  0.00     0.167 A 
ENDBRANCH   1  17
TORSDOF 2
ENDMDL
MODEL 5
REMARK VINA RESULT:      -7.2      3.170      5.448
REMARK  2 active torsions:
REMARK  status: ('A' for Active; 'I' for Inactive)
REMARK    1  A    between atoms: N2_3  and  C2_4 
REMARK    2  A    between atoms: C7_9  and  C8_10 
ROOT
HETATM    1  C2  UNL     1      24.147   0.063  53.592  1.00  0.00     0.056 A 
HETATM    2  C3  UNL     1      23.877  -0.880  54.559  1.00  0.00     0.031 A 
HETATM    3  C4  UNL     1      22.631  -1.200  55.048  1.00  0.00     0.002 A 
HETATM    4  C5  UNL     1      21.544  -0.537  54.543  1.00  0.00     0.001 A 
HETATM    5  C6  UNL     1      21.726   0.422  53.569  1.00  0.00     0.014 A 
HETATM    6  C7  UNL     1      23.018   0.695  53.121  1.00  0.00     0.002 A 
ENDROOT
BRANCH   6   7
HETATM    7  C8  UNL     1      23.049   1.697  52.067  1.00  0.00    -0.021 A 
HETATM    8  C9  UNL     1      22.919   1.545  50.704  1.00  0.00     0.015 A 
HETATM    9  C10 UNL     1      23.001   2.637  49.867  1.00  0.00     0.040 A 
HETATM   10  C11 UNL     1      23.210   3.910  50.322  1.00  0.00     0.102 A 
HETATM   11  C12 UNL     1      23.344   4.107  51.680  1.00  0.00     0.102 A 
HETATM   12  O2  UNL     1      23.293   5.022  49.484  1.00  0.00    -0.346 OA
HETATM   13  C13 UNL     1      23.262   3.000  52.531  1.00  0.00     0.052 A 
HETATM   14  O1  UNL     1      23.557   5.381  52.192  1.00  0.00    -0.346 OA
HETATM   15  C14 UNL     1      24.067   6.359  51.285  1.00  0.00     0.202 C 
HETATM   16  C15 UNL     1      23.254   6.345  50.015  1.00  0.00     0.202 C 
ENDBRANCH   6   7
BRANCH   1  17
HETATM   17  N2  UNL     1      25.445   0.403  53.125  1.00  0.00    -0.317 N 
HETATM   18  N1  UNL     1      26.259   0.087  52.036  1.00  0.00    -0.251 NA
HETATM   19  C1  UNL     1      27.142   0.885  52.530  1.00  0.00     0.292 A 
HETATM   20  C16 UNL     1      26.393   1.315  53.736  1.00  0.00     0.167 A 
ENDBRANCH   1  17
TORSDOF 2
ENDMDL
MODEL 6
REMARK VINA RESULT:      -7.0      3.027      5.636
REMARK  2 active torsions:
REMARK  status: ('A' for Active; 'I' for Inactive)
REMARK    1  A    between atoms: N2_3  and  C2_4 
REMARK    2  A    between atoms: C7_9  and  C8_10 
ROOT
HETATM    1  C2  UNL     1      24.236   0.015  53.710  1.00  0.00     0.056 A 
HETATM    2  C3  UNL     1      24.081  -0.971  54.660  1.00  0.00     0.031 A 
HETATM    3  C4  UNL     1      22.888  -1.369  55.219  1.00  0.00     0.002 A 
HETATM    4  C5  UNL     1      21.738  -0.747  54.811  1.00  0.00     0.001 A 
HETATM    5  C6  UNL     1      21.805   0.250  53.861  1.00  0.00     0.014 A 
HETATM    6  C7  UNL     1      23.049   0.602  53.338  1.00  0.00     0.002 A 
ENDROOT
BRANCH   6   7
HETATM    7  C8  UNL     1      22.958   1.638  52.319  1.00  0.00    -0.021 A 
HETATM    8  C9  UNL     1      23.213   2.988  52.414  1.00  0.00     0.015 A 
HETATM    9  C10 UNL     1      23.042   3.810  51.320  1.00  0.00     0.040 A 
HETATM   10  C11 UNL     1      22.621   3.351  50.102  1.00  0.00     0.102 A 
HETATM   11  C12 UNL     1      22.355   2.005  49.964  1.00  0.00     0.102 A 
HETATM   12  O2  UNL     1      22.446   4.174  48.989  1.00  0.00    -0.346 OA
HETATM   13  C13 UNL     1      22.527   1.169  51.073  1.00  0.00     0.052 A 
HETATM   14  O1  UNL     1      21.925   1.490  48.748  1.00  0.00    -0.346 OA
HETATM   15  C14 UNL     1      21.353   2.419  47.825  1.00  0.00     0.202 C 
HETATM   16  C15 UNL     1      22.256   3.619  47.689  1.00  0.00     0.202 C 
ENDBRANCH   6   7
BRANCH   1  17
HETATM   17  N2  UNL     1      25.481   0.435  53.169  1.00  0.00    -0.317 N 
HETATM   18  N1  UNL     1      26.257   0.159  52.041  1.00  0.00    -0.251 NA
HETATM   19  C1  UNL     1      27.107   1.023  52.477  1.00  0.00     0.292 A 
HETATM   20  C16 UNL     1      26.395   1.419  53.717  1.00  0.00     0.167 A 
ENDBRANCH   1  17
TORSDOF 2
ENDMDL
MODEL 7
REMARK VINA RESULT:      -6.9      3.837      5.126
REMARK  2 active torsions:
REMARK  status: ('A' for Active; 'I' for Inactive)
REMARK    1  A    between atoms: N2_3  and  C2_4 
REMARK    2  A    between atoms: C7_9  and  C8_10 
ROOT
HETATM    1  C2  UNL     1      25.071   5.383  49.747  1.00  0.00     0.056 A 
HETATM    2  C3  UNL     1      25.718   6.302  48.951  1.00  0.00     0.031 A 
HETATM    3  C4  UNL     1      26.954   6.135  48.370  1.00  0.00     0.002 A 
HETATM    4  C5  UNL     1      27.622   4.958  48.584  1.00  0.00     0.001 A 
HETATM    5  C6  UNL     1      27.042   3.982  49.368  1.00  0.00     0.014 A 
HETATM    6  C7  UNL     1      25.787   4.220  49.926  1.00  0.00     0.002 A 
ENDROOT
BRANCH   6   7
HETATM    7  C8  UNL     1      25.288   3.089  50.693  1.00  0.00    -0.021 A 
HETATM    8  C9  UNL     1      24.051   2.483  50.663  1.00  0.00     0.015 A 
HETATM    9  C10 UNL     1      23.771   1.423  51.499  1.00  0.00     0.040 A 
HETATM   10  C11 UNL     1      24.679   0.915  52.387  1.00  0.00     0.102 A 
HETATM   11  C12 UNL     1      25.930   1.491  52.448  1.00  0.00     0.102 A 
HETATM   12  O2  UNL     1      24.406  -0.158  53.236  1.00  0.00    -0.346 OA
HETATM   13  C13 UNL     1      26.215   2.569  51.602  1.00  0.00     0.052 A 
HETATM   14  O1  UNL     1      26.887   1.011  53.333  1.00  0.00    -0.346 OA
HETATM   15  C14 UNL     1      26.408   0.247  54.442  1.00  0.00     0.202 C 
HETATM   16  C15 UNL     1      25.452  -0.811  53.952  1.00  0.00     0.202 C 
ENDBRANCH   6   7
BRANCH   1  17
HETATM   17  N2  UNL     1      23.809   5.587  50.367  1.00  0.00    -0.317 N 
HETATM   18  N1  UNL     1      22.463   5.471  50.017  1.00  0.00    -0.251 NA
HETATM   19  C1  UNL     1      22.171   5.845  51.215  1.00  0.00     0.292 A 
HETATM   20  C16 UNL     1      23.552   6.012  51.729  1.00  0.00     0.167 A 
ENDBRANCH   1  17
TORSDOF 2
ENDMDL
MODEL 8
REMARK VINA RESULT:      -6.9      4.350      5.681
REMARK  2 active torsions:
REMARK  status: ('A' for Active; 'I' for Inactive)
REMARK    1  A    between atoms: N2_3  and  C2_4 
REMARK    2  A    between atoms: C7_9  and  C8_10 
ROOT
HETATM    1  C2  UNL     1      23.185   2.014  50.721  1.00  0.00     0.056 A 
HETATM    2  C3  UNL     1      22.090   1.180  50.655  1.00  0.00     0.031 A 
HETATM    3  C4  UNL     1      21.316   0.954  49.540  1.00  0.00     0.002 A 
HETATM    4  C5  UNL     1      21.643   1.601  48.378  1.00  0.00     0.001 A 
HETATM    5  C6  UNL     1      22.728   2.453  48.357  1.00  0.00     0.014 A 
HETATM    6  C7  UNL     1      23.467   2.635  49.526  1.00  0.00     0.002 A 
ENDROOT
BRANCH   6   7
HETATM    7  C8  UNL     1      24.601   3.527  49.341  1.00  0.00    -0.021 A 
HETATM    8  C9  UNL     1      25.950   3.269  49.450  1.00  0.00     0.015 A 
HETATM    9  C10 UNL     1      26.873   4.275  49.253  1.00  0.00     0.040 A 
HETATM   10  C11 UNL     1      26.519   5.560  48.944  1.00  0.00     0.102 A 
HETATM   11  C12 UNL     1      25.179   5.861  48.824  1.00  0.00     0.102 A 
HETATM   12  O2  UNL     1      27.444   6.584  48.742  1.00  0.00    -0.346 OA
HETATM   13  C13 UNL     1      24.241   4.842  49.025  1.00  0.00     0.052 A 
HETATM   14  O1  UNL     1      24.769   7.151  48.511  1.00  0.00    -0.346 OA
HETATM   15  C14 UNL     1      25.707   8.199  48.762  1.00  0.00     0.202 C 
HETATM   16  C15 UNL     1      27.047   7.831  48.176  1.00  0.00     0.202 C 
ENDBRANCH   6   7
BRANCH   1  17
HETATM   17  N2  UNL     1      23.951   2.261  51.891  1.00  0.00    -0.317 N 
HETATM   18  N1  UNL     1      24.082   3.279  52.837  1.00  0.00    -0.251 NA
HETATM   19  C1  UNL     1      24.958   2.545  53.432  1.00  0.00     0.292 A 
HETATM   20  C16 UNL     1      24.927   1.384  52.510  1.00  0.00     0.167 A 
ENDBRANCH   1  17
TORSDOF 2
ENDMDL
MODEL 9
REMARK VINA RESULT:      -6.7      5.210      6.964
REMARK  2 active torsions:
REMARK  status: ('A' for Active; 'I' for Inactive)
REMARK    1  A    between atoms: N2_3  and  C2_4 
REMARK    2  A    between atoms: C7_9  and  C8_10 
ROOT
HETATM    1  C2  UNL     1      26.179   6.684  49.103  1.00  0.00     0.056 A 
HETATM    2  C3  UNL     1      27.292   7.365  48.665  1.00  0.00     0.031 A 
HETATM    3  C4  UNL     1      28.477   6.794  48.258  1.00  0.00     0.002 A 
HETATM    4  C5  UNL     1      28.584   5.429  48.280  1.00  0.00     0.001 A 
HETATM    5  C6  UNL     1      27.513   4.671  48.704  1.00  0.00     0.014 A 
HETATM    6  C7  UNL     1      26.343   5.317  49.102  1.00  0.00     0.002 A 
ENDROOT
BRANCH   6   7
HETATM    7  C8  UNL     1      25.289   4.389  49.484  1.00  0.00    -0.021 A 
HETATM    8  C9  UNL     1      24.069   4.152  48.891  1.00  0.00     0.015 A 
HETATM    9  C10 UNL     1      23.195   3.232  49.431  1.00  0.00     0.040 A 
HETATM   10  C11 UNL     1      23.475   2.514  50.561  1.00  0.00     0.102 A 
HETATM   11  C12 UNL     1      24.687   2.720  51.186  1.00  0.00     0.102 A 
HETATM   12  O2  UNL     1      22.599   1.581  51.115  1.00  0.00    -0.346 OA
HETATM   13  C13 UNL     1      25.575   3.653  50.639  1.00  0.00     0.052 A 
HETATM   14  O1  UNL     1      25.019   2.014  52.335  1.00  0.00    -0.346 OA
HETATM   15  C14 UNL     1      23.936   1.441  53.070  1.00  0.00     0.202 C 
HETATM   16  C15 UNL     1      23.033   0.680  52.132  1.00  0.00     0.202 C 
ENDBRANCH   6   7
BRANCH   1  17
HETATM   17  N2  UNL     1      24.975   7.292  49.551  1.00  0.00    -0.317 N 
HETATM   18  N1  UNL     1      24.344   7.545  50.770  1.00  0.00    -0.251 NA
HETATM   19  C1  UNL     1      23.398   8.113  50.106  1.00  0.00     0.292 A 
HETATM   20  C16 UNL     1      23.947   7.918  48.741  1.00  0.00     0.167 A 
ENDBRANCH   1  17
TORSDOF 2
ENDMDL
