MODEL 1
REMARK VINA RESULT:      -9.6      0.000      0.000
REMARK  0 active torsions:
REMARK  status: ('A' for Active; 'I' for Inactive)
ROOT
HETATM    1  N1  UNL     1      22.291  -0.989  52.868  1.00  0.00    -0.192 NA
HETATM    2  C1  UNL     1      22.284   0.170  52.711  1.00  0.00     0.098 C 
HETATM    3  C2  UNL     1      22.270   1.590  52.496  1.00  0.00     0.060 A 
HETATM    4  C3  UNL     1      21.071   2.082  52.036  1.00  0.00     0.047 A 
HETATM    5  C4  UNL     1      21.022   3.438  51.825  1.00  0.00     0.018 A 
HETATM    6  C5  UNL     1      22.302   3.566  52.222  1.00  0.00     0.084 A 
HETATM    7  C6  UNL     1      23.588   3.674  52.625  1.00  0.00     0.048 A 
HETATM    8  C7  UNL     1      23.404   2.311  52.758  1.00  0.00     0.112 A 
HETATM    9  O1  UNL     1      24.591   1.807  53.199  1.00  0.00    -0.369 OA
HETATM   10  C8  UNL     1      25.000   0.530  53.500  1.00  0.00     0.208 C 
HETATM   11  C9  UNL     1      26.448   0.478  53.894  1.00  0.00    -0.024 A 
HETATM   12  C10 UNL     1      27.114   0.101  55.031  1.00  0.00     0.010 A 
HETATM   13  C11 UNL     1      28.486   0.186  55.056  1.00  0.00     0.001 A 
HETATM   14  C12 UNL     1      29.234   0.625  54.010  1.00  0.00     0.001 A 
HETATM   15  C13 UNL     1      28.576   1.009  52.850  1.00  0.00     0.012 A 
HETATM   16  C14 UNL     1      27.199   0.935  52.794  1.00  0.00    -0.026 A 
HETATM   17  C15 UNL     1      26.692   1.380  51.489  1.00  0.00     0.031 C 
HETATM   18  C16 UNL     1      26.328   2.564  51.038  1.00  0.00     0.115 C 
HETATM   19  N2  UNL     1      25.830   3.170  49.855  1.00  0.00    -0.278 N 
HETATM   20  O2  UNL     1      24.559   3.463  49.493  1.00  0.00    -0.278 OA
HETATM   21  C17 UNL     1      24.397   4.761  49.090  1.00  0.00     0.242 C 
HETATM   22  C18 UNL     1      22.965   4.935  48.575  1.00  0.00     0.220 C 
HETATM   23  F1  UNL     1      22.816   4.049  47.529  1.00  0.00    -0.243 F 
HETATM   24  C19 UNL     1      21.946   4.693  49.586  1.00  0.00     0.029 C 
HETATM   25  C20 UNL     1      20.927   5.090  50.374  1.00  0.00     0.087 C 
HETATM   26  N3  UNL     1      20.112   4.408  51.359  1.00  0.00    -0.369 N 
HETATM   27  H12 UNL     1      26.650   3.395  49.215  1.00  0.00     0.193 HD
HETATM   28  H18 UNL     1      19.186   4.830  51.401  1.00  0.00     0.165 HD
ENDROOT
TORSDOF 0
ENDMDL
MODEL 2
REMARK VINA RESULT:      -9.0      1.918      2.552
REMARK  0 active torsions:
REMARK  status: ('A' for Active; 'I' for Inactive)
ROOT
HETATM    1  N1  UNL     1      20.858   1.422  50.267  1.00  0.00    -0.192 NA
HETATM    2  C1  UNL     1      21.274   2.462  50.603  1.00  0.00     0.098 C 
HETATM    3  C2  UNL     1      21.788   3.745  50.993  1.00  0.00     0.060 A 
HETATM    4  C3  UNL     1      21.064   4.814  50.519  1.00  0.00     0.047 A 
HETATM    5  C4  UNL     1      21.526   6.056  50.879  1.00  0.00     0.018 A 
HETATM    6  C5  UNL     1      22.538   5.501  51.571  1.00  0.00     0.084 A 
HETATM    7  C6  UNL     1      23.548   4.925  52.262  1.00  0.00     0.048 A 
HETATM    8  C7  UNL     1      22.909   3.799  51.777  1.00  0.00     0.112 A 
HETATM    9  O1  UNL     1      23.625   2.730  52.229  1.00  0.00    -0.369 OA
HETATM   10  C8  UNL     1      23.470   1.375  52.061  1.00  0.00     0.208 C 
HETATM   11  C9  UNL     1      24.573   0.595  52.715  1.00  0.00    -0.024 A 
HETATM   12  C10 UNL     1      24.616  -0.342  53.715  1.00  0.00     0.010 A 
HETATM   13  C11 UNL     1      25.833  -0.866  54.082  1.00  0.00     0.001 A 
HETATM   14  C12 UNL     1      27.012  -0.510  53.508  1.00  0.00     0.001 A 
HETATM   15  C13 UNL     1      26.987   0.436  52.493  1.00  0.00     0.012 A 
HETATM   16  C14 UNL     1      25.781   0.980  52.102  1.00  0.00    -0.026 A 
HETATM   17  C15 UNL     1      25.960   1.955  51.018  1.00  0.00     0.031 C 
HETATM   18  C16 UNL     1      26.182   3.255  51.024  1.00  0.00     0.115 C 
HETATM   19  N2  UNL     1      26.375   4.329  50.116  1.00  0.00    -0.278 N 
HETATM   20  O2  UNL     1      25.489   5.230  49.629  1.00  0.00    -0.278 OA
HETATM   21  C17 UNL     1      25.905   6.526  49.770  1.00  0.00     0.242 C 
HETATM   22  C18 UNL     1      24.899   7.439  49.063  1.00  0.00     0.220 C 
HETATM   23  F1  UNL     1      24.877   7.046  47.741  1.00  0.00    -0.243 F 
HETATM   24  C19 UNL     1      23.557   7.378  49.626  1.00  0.00     0.029 C 
HETATM   25  C20 UNL     1      22.500   7.929  50.255  1.00  0.00     0.087 C 
HETATM   26  N3  UNL     1      21.208   7.412  50.660  1.00  0.00    -0.369 N 
HETATM   27  H12 UNL     1      27.399   4.353  49.828  1.00  0.00     0.193 HD
HETATM   28  H18 UNL     1      20.516   8.158  50.661  1.00  0.00     0.165 HD
ENDROOT
TORSDOF 0
ENDMDL
MODEL 3
REMARK VINA RESULT:      -8.8      2.480      6.820
REMARK  0 active torsions:
REMARK  status: ('A' for Active; 'I' for Inactive)
ROOT
HETATM    1  N1  UNL     1      26.797   3.162  49.200  1.00  0.00    -0.192 NA
HETATM    2  C1  UNL     1      26.466   2.854  50.278  1.00  0.00     0.098 C 
HETATM    3  C2  UNL     1      26.052   2.454  51.594  1.00  0.00     0.060 A 
HETATM    4  C3  UNL     1      26.701   1.343  52.080  1.00  0.00     0.047 A 
HETATM    5  C4  UNL     1      26.332   0.938  53.339  1.00  0.00     0.018 A 
HETATM    6  C5  UNL     1      25.447   1.949  53.427  1.00  0.00     0.084 A 
HETATM    7  C6  UNL     1      24.564   2.970  53.496  1.00  0.00     0.048 A 
HETATM    8  C7  UNL     1      25.087   3.184  52.235  1.00  0.00     0.112 A 
HETATM    9  O1  UNL     1      24.441   4.276  51.735  1.00  0.00    -0.369 OA
HETATM   10  C8  UNL     1      24.540   4.940  50.536  1.00  0.00     0.208 C 
HETATM   11  C9  UNL     1      23.554   6.067  50.431  1.00  0.00    -0.024 A 
HETATM   12  C10 UNL     1      23.669   7.425  50.280  1.00  0.00     0.010 A 
HETATM   13  C11 UNL     1      22.526   8.187  50.225  1.00  0.00     0.001 A 
HETATM   14  C12 UNL     1      21.272   7.672  50.311  1.00  0.00     0.001 A 
HETATM   15  C13 UNL     1      21.136   6.299  50.463  1.00  0.00     0.012 A 
HETATM   16  C14 UNL     1      22.265   5.508  50.522  1.00  0.00    -0.026 A 
HETATM   17  C15 UNL     1      21.916   4.090  50.681  1.00  0.00     0.031 C 
HETATM   18  C16 UNL     1      21.723   3.340  51.748  1.00  0.00     0.115 C 
HETATM   19  N2  UNL     1      21.394   2.003  52.092  1.00  0.00    -0.278 N 
HETATM   20  O2  UNL     1      22.197   0.963  52.417  1.00  0.00    -0.278 OA
HETATM   21  C17 UNL     1      21.837   0.346  53.585  1.00  0.00     0.242 C 
HETATM   22  C18 UNL     1      22.720  -0.891  53.775  1.00  0.00     0.220 C 
HETATM   23  F1  UNL     1      22.503  -1.698  52.678  1.00  0.00    -0.243 F 
HETATM   24  C19 UNL     1      24.138  -0.583  53.898  1.00  0.00     0.029 C 
HETATM   25  C20 UNL     1      25.299  -0.556  54.582  1.00  0.00     0.087 C 
HETATM   26  N3  UNL     1      26.632  -0.091  54.254  1.00  0.00    -0.369 N 
HETATM   27  H12 UNL     1      20.336   1.894  52.065  1.00  0.00     0.193 HD
HETATM   28  H18 UNL     1      27.328  -0.629  54.767  1.00  0.00     0.165 HD
ENDROOT
TORSDOF 0
ENDMDL
MODEL 4
REMARK VINA RESULT:      -8.7      2.655      5.923
REMARK  0 active torsions:
REMARK  status: ('A' for Active; 'I' for Inactive)
ROOT
HETATM    1  N1  UNL     1      25.096   1.231  53.367  1.00  0.00    -0.192 NA
HETATM    2  C1  UNL     1      25.134   1.829  52.362  1.00  0.00     0.098 C 
HETATM    3  C2  UNL     1      25.189   2.583  51.141  1.00  0.00     0.060 A 
HETATM    4  C3  UNL     1      26.431   3.090  50.842  1.00  0.00     0.047 A 
HETATM    5  C4  UNL     1      26.518   3.812  49.677  1.00  0.00     0.018 A 
HETATM    6  C5  UNL     1      25.210   3.612  49.432  1.00  0.00     0.084 A 
HETATM    7  C6  UNL     1      23.895   3.400  49.203  1.00  0.00     0.048 A 
HETATM    8  C7  UNL     1      24.046   2.727  50.400  1.00  0.00     0.112 A 
HETATM    9  O1  UNL     1      22.816   2.230  50.717  1.00  0.00    -0.369 OA
HETATM   10  C8  UNL     1      22.364   1.490  51.782  1.00  0.00     0.208 C 
HETATM   11  C9  UNL     1      20.886   1.237  51.708  1.00  0.00    -0.024 A 
HETATM   12  C10 UNL     1      20.114   0.107  51.622  1.00  0.00     0.010 A 
HETATM   13  C11 UNL     1      18.747   0.239  51.565  1.00  0.00     0.001 A 
HETATM   14  C12 UNL     1      18.103   1.436  51.589  1.00  0.00     0.001 A 
HETATM   15  C13 UNL     1      18.869   2.590  51.675  1.00  0.00     0.012 A 
HETATM   16  C14 UNL     1      20.244   2.490  51.735  1.00  0.00    -0.026 A 
HETATM   17  C15 UNL     1      20.873   3.814  51.827  1.00  0.00     0.031 C 
HETATM   18  C16 UNL     1      21.293   4.660  50.907  1.00  0.00     0.115 C 
HETATM   19  N2  UNL     1      21.904   5.937  50.803  1.00  0.00    -0.278 N 
HETATM   20  O2  UNL     1      23.207   6.270  50.648  1.00  0.00    -0.278 OA
HETATM   21  C17 UNL     1      23.424   7.134  49.609  1.00  0.00     0.242 C 
HETATM   22  C18 UNL     1      24.899   7.548  49.619  1.00  0.00     0.220 C 
HETATM   23  F1  UNL     1      25.129   8.144  50.841  1.00  0.00    -0.243 F 
HETATM   24  C19 UNL     1      25.819   6.436  49.422  1.00  0.00     0.029 C 
HETATM   25  C20 UNL     1      26.768   5.781  48.725  1.00  0.00     0.087 C 
HETATM   26  N3  UNL     1      27.481   4.539  48.948  1.00  0.00    -0.369 N 
HETATM   27  H12 UNL     1      21.149   6.684  50.866  1.00  0.00     0.193 HD
HETATM   28  H18 UNL     1      28.406   4.584  48.523  1.00  0.00     0.165 HD
ENDROOT
TORSDOF 0
ENDMDL
MODEL 5
REMARK VINA RESULT:      -8.7      3.195      5.309
REMARK  0 active torsions:
REMARK  status: ('A' for Active; 'I' for Inactive)
ROOT
HETATM    1  N1  UNL     1      24.814   4.064  50.834  1.00  0.00    -0.192 NA
HETATM    2  C1  UNL     1      24.019   3.617  50.101  1.00  0.00     0.098 C 
HETATM    3  C2  UNL     1      23.031   3.091  49.201  1.00  0.00     0.060 A 
HETATM    4  C3  UNL     1      22.920   3.778  48.015  1.00  0.00     0.047 A 
HETATM    5  C4  UNL     1      21.988   3.296  47.130  1.00  0.00     0.018 A 
HETATM    6  C5  UNL     1      21.653   2.313  47.986  1.00  0.00     0.084 A 
HETATM    7  C6  UNL     1      21.332   1.332  48.860  1.00  0.00     0.048 A 
HETATM    8  C7  UNL     1      22.311   1.990  49.579  1.00  0.00     0.112 A 
HETATM    9  O1  UNL     1      22.421   1.327  50.766  1.00  0.00    -0.369 OA
HETATM   10  C8  UNL     1      23.219   1.528  51.867  1.00  0.00     0.208 C 
HETATM   11  C9  UNL     1      22.920   0.551  52.968  1.00  0.00    -0.024 A 
HETATM   12  C10 UNL     1      23.650  -0.416  53.610  1.00  0.00     0.010 A 
HETATM   13  C11 UNL     1      23.047  -1.156  54.599  1.00  0.00     0.001 A 
HETATM   14  C12 UNL     1      21.755  -0.986  54.987  1.00  0.00     0.001 A 
HETATM   15  C13 UNL     1      21.002  -0.011  54.348  1.00  0.00     0.012 A 
HETATM   16  C14 UNL     1      21.579   0.748  53.351  1.00  0.00    -0.026 A 
HETATM   17  C15 UNL     1      20.628   1.723  52.802  1.00  0.00     0.031 C 
HETATM   18  C16 UNL     1      19.763   1.654  51.809  1.00  0.00     0.115 C 
HETATM   19  N2  UNL     1      18.796   2.458  51.152  1.00  0.00    -0.278 N 
HETATM   20  O2  UNL     1      18.900   3.208  50.030  1.00  0.00    -0.278 OA
HETATM   21  C17 UNL     1      17.918   2.949  49.113  1.00  0.00     0.242 C 
HETATM   22  C18 UNL     1      18.054   3.945  47.958  1.00  0.00     0.220 C 
HETATM   23  F1  UNL     1      17.925   5.203  48.510  1.00  0.00    -0.243 F 
HETATM   24  C19 UNL     1      19.317   3.840  47.241  1.00  0.00     0.029 C 
HETATM   25  C20 UNL     1      20.045   3.586  46.136  1.00  0.00     0.087 C 
HETATM   26  N3  UNL     1      21.467   3.612  45.858  1.00  0.00    -0.369 N 
HETATM   27  H12 UNL     1      17.881   2.403  51.694  1.00  0.00     0.193 HD
HETATM   28  H18 UNL     1      21.630   3.836  44.879  1.00  0.00     0.165 HD
ENDROOT
TORSDOF 0
ENDMDL
MODEL 6
REMARK VINA RESULT:      -8.6      2.879      4.647
REMARK  0 active torsions:
REMARK  status: ('A' for Active; 'I' for Inactive)
ROOT
HETATM    1  N1  UNL     1      23.605   5.400  51.313  1.00  0.00    -0.192 NA
HETATM    2  C1  UNL     1      22.918   4.668  50.714  1.00  0.00     0.098 C 
HETATM    3  C2  UNL     1      22.055   3.775  49.991  1.00  0.00     0.060 A 
HETATM    4  C3  UNL     1      21.004   4.393  49.355  1.00  0.00     0.047 A 
HETATM    5  C4  UNL     1      20.163   3.567  48.650  1.00  0.00     0.018 A 
HETATM    6  C5  UNL     1      20.896   2.492  48.996  1.00  0.00     0.084 A 
HETATM    7  C6  UNL     1      21.645   1.425  49.354  1.00  0.00     0.048 A 
HETATM    8  C7  UNL     1      22.340   2.436  49.990  1.00  0.00     0.112 A 
HETATM    9  O1  UNL     1      23.378   1.835  50.638  1.00  0.00    -0.369 OA
HETATM   10  C8  UNL     1      24.387   2.331  51.428  1.00  0.00     0.208 C 
HETATM   11  C9  UNL     1      25.267   1.243  51.971  1.00  0.00    -0.024 A 
HETATM   12  C10 UNL     1      26.599   0.942  51.846  1.00  0.00     0.010 A 
HETATM   13  C11 UNL     1      27.093  -0.166  52.493  1.00  0.00     0.001 A 
HETATM   14  C12 UNL     1      26.334  -0.992  53.260  1.00  0.00     0.001 A 
HETATM   15  C13 UNL     1      24.984  -0.702  53.398  1.00  0.00     0.012 A 
HETATM   16  C14 UNL     1      24.459   0.403  52.761  1.00  0.00    -0.026 A 
HETATM   17  C15 UNL     1      23.022   0.543  53.030  1.00  0.00     0.031 C 
HETATM   18  C16 UNL     1      21.955   0.076  52.410  1.00  0.00     0.115 C 
HETATM   19  N2  UNL     1      20.540   0.102  52.513  1.00  0.00    -0.278 N 
HETATM   20  O2  UNL     1      19.635   0.900  51.899  1.00  0.00    -0.278 OA
HETATM   21  C17 UNL     1      18.628   0.205  51.287  1.00  0.00     0.242 C 
HETATM   22  C18 UNL     1      17.598   1.206  50.754  1.00  0.00     0.220 C 
HETATM   23  F1  UNL     1      17.144   1.917  51.845  1.00  0.00    -0.243 F 
HETATM   24  C19 UNL     1      18.133   2.116  49.751  1.00  0.00     0.029 C 
HETATM   25  C20 UNL     1      18.181   2.621  48.502  1.00  0.00     0.087 C 
HETATM   26  N3  UNL     1      18.984   3.657  47.883  1.00  0.00    -0.369 N 
HETATM   27  H12 UNL     1      20.233  -0.653  53.197  1.00  0.00     0.193 HD
HETATM   28  H18 UNL     1      18.466   4.096  47.125  1.00  0.00     0.165 HD
ENDROOT
TORSDOF 0
ENDMDL
MODEL 7
REMARK VINA RESULT:      -8.2      2.688      6.836
REMARK  0 active torsions:
REMARK  status: ('A' for Active; 'I' for Inactive)
ROOT
HETATM    1  N1  UNL     1      18.398   3.657  51.800  1.00  0.00    -0.192 NA
HETATM    2  C1  UNL     1      19.174   2.781  51.808  1.00  0.00     0.098 C 
HETATM    3  C2  UNL     1      20.139   1.718  51.834  1.00  0.00     0.060 A 
HETATM    4  C3  UNL     1      20.280   1.110  53.060  1.00  0.00     0.047 A 
HETATM    5  C4  UNL     1      21.192   0.085  53.117  1.00  0.00     0.018 A 
HETATM    6  C5  UNL     1      21.483   0.244  51.812  1.00  0.00     0.084 A 
HETATM    7  C6  UNL     1      21.762   0.419  50.501  1.00  0.00     0.048 A 
HETATM    8  C7  UNL     1      20.811   1.405  50.683  1.00  0.00     0.112 A 
HETATM    9  O1  UNL     1      20.671   2.027  49.478  1.00  0.00    -0.369 OA
HETATM   10  C8  UNL     1      19.882   3.073  49.062  1.00  0.00     0.208 C 
HETATM   11  C9  UNL     1      20.138   3.439  47.629  1.00  0.00    -0.024 A 
HETATM   12  C10 UNL     1      19.367   3.454  46.495  1.00  0.00     0.010 A 
HETATM   13  C11 UNL     1      19.937   3.852  45.309  1.00  0.00     0.001 A 
HETATM   14  C12 UNL     1      21.234   4.239  45.188  1.00  0.00     0.001 A 
HETATM   15  C13 UNL     1      22.029   4.230  46.326  1.00  0.00     0.012 A 
HETATM   16  C14 UNL     1      21.485   3.836  47.531  1.00  0.00    -0.026 A 
HETATM   17  C15 UNL     1      22.478   3.899  48.612  1.00  0.00     0.031 C 
HETATM   18  C16 UNL     1      23.340   3.014  49.074  1.00  0.00     0.115 C 
HETATM   19  N2  UNL     1      24.342   2.892  50.072  1.00  0.00    -0.278 N 
HETATM   20  O2  UNL     1      24.270   2.376  51.322  1.00  0.00    -0.278 OA
HETATM   21  C17 UNL     1      25.241   1.447  51.580  1.00  0.00     0.242 C 
HETATM   22  C18 UNL     1      25.149   1.043  53.055  1.00  0.00     0.220 C 
HETATM   23  F1  UNL     1      25.332   2.197  53.788  1.00  0.00    -0.243 F 
HETATM   24  C19 UNL     1      23.883   0.418  53.411  1.00  0.00     0.029 C 
HETATM   25  C20 UNL     1      23.146  -0.626  53.840  1.00  0.00     0.087 C 
HETATM   26  N3  UNL     1      21.726  -0.809  54.067  1.00  0.00    -0.369 N 
HETATM   27  H12 UNL     1      25.253   3.291  49.693  1.00  0.00     0.193 HD
HETATM   28  H18 UNL     1      21.574  -1.496  54.803  1.00  0.00     0.165 HD
ENDROOT
TORSDOF 0
ENDMDL
MODEL 8
REMARK VINA RESULT:      -8.1      3.169      4.907
REMARK  0 active torsions:
REMARK  status: ('A' for Active; 'I' for Inactive)
ROOT
HETATM    1  N1  UNL     1      21.574   3.819  47.905  1.00  0.00    -0.192 NA
HETATM    2  C1  UNL     1      22.188   4.733  48.299  1.00  0.00     0.098 C 
HETATM    3  C2  UNL     1      22.951   5.858  48.761  1.00  0.00     0.060 A 
HETATM    4  C3  UNL     1      22.685   7.035  48.100  1.00  0.00     0.047 A 
HETATM    5  C4  UNL     1      23.394   8.132  48.522  1.00  0.00     0.018 A 
HETATM    6  C5  UNL     1      24.030   7.390  49.447  1.00  0.00     0.084 A 
HETATM    7  C6  UNL     1      24.658   6.628  50.371  1.00  0.00     0.048 A 
HETATM    8  C7  UNL     1      23.843   5.679  49.783  1.00  0.00     0.112 A 
HETATM    9  O1  UNL     1      24.108   4.502  50.420  1.00  0.00    -0.369 OA
HETATM   10  C8  UNL     1      23.611   3.231  50.260  1.00  0.00     0.208 C 
HETATM   11  C9  UNL     1      24.276   2.244  51.176  1.00  0.00    -0.024 A 
HETATM   12  C10 UNL     1      23.831   1.430  52.185  1.00  0.00     0.010 A 
HETATM   13  C11 UNL     1      24.737   0.631  52.841  1.00  0.00     0.001 A 
HETATM   14  C12 UNL     1      26.063   0.596  52.548  1.00  0.00     0.001 A 
HETATM   15  C13 UNL     1      26.530   1.414  51.529  1.00  0.00     0.012 A 
HETATM   16  C14 UNL     1      25.645   2.227  50.851  1.00  0.00    -0.026 A 
HETATM   17  C15 UNL     1      26.326   3.009  49.811  1.00  0.00     0.031 C 
HETATM   18  C16 UNL     1      26.905   4.195  49.831  1.00  0.00     0.115 C 
HETATM   19  N2  UNL     1      27.589   5.085  48.963  1.00  0.00    -0.278 N 
HETATM   20  O2  UNL     1      27.126   6.143  48.257  1.00  0.00    -0.278 OA
HETATM   21  C17 UNL     1      27.855   7.285  48.454  1.00  0.00     0.242 C 
HETATM   22  C18 UNL     1      27.331   8.367  47.505  1.00  0.00     0.220 C 
HETATM   23  F1  UNL     1      27.483   7.873  46.227  1.00  0.00    -0.243 F 
HETATM   24  C19 UNL     1      25.939   8.727  47.741  1.00  0.00     0.029 C 
HETATM   25  C20 UNL     1      24.975   9.602  48.089  1.00  0.00     0.087 C 
HETATM   26  N3  UNL     1      23.534   9.496  48.196  1.00  0.00    -0.369 N 
HETATM   27  H12 UNL     1      28.614   4.802  48.922  1.00  0.00     0.193 HD
HETATM   28  H18 UNL     1      23.101  10.400  48.014  1.00  0.00     0.165 HD
ENDROOT
TORSDOF 0
ENDMDL
MODEL 9
REMARK VINA RESULT:      -7.8      5.236      8.645
REMARK  0 active torsions:
REMARK  status: ('A' for Active; 'I' for Inactive)
ROOT
HETATM    1  N1  UNL     1      26.875   3.399  49.963  1.00  0.00    -0.192 NA
HETATM    2  C1  UNL     1      27.250   4.292  49.308  1.00  0.00     0.098 C 
HETATM    3  C2  UNL     1      27.727   5.395  48.521  1.00  0.00     0.060 A 
HETATM    4  C3  UNL     1      29.066   5.337  48.215  1.00  0.00     0.047 A 
HETATM    5  C4  UNL     1      29.552   6.375  47.458  1.00  0.00     0.018 A 
HETATM    6  C5  UNL     1      28.333   6.944  47.420  1.00  0.00     0.084 A 
HETATM    7  C6  UNL     1      27.101   7.501  47.393  1.00  0.00     0.048 A 
HETATM    8  C7  UNL     1      26.844   6.374  48.150  1.00  0.00     0.112 A 
HETATM    9  O1  UNL     1      25.521   6.426  48.474  1.00  0.00    -0.369 OA
HETATM   10  C8  UNL     1      24.714   5.590  49.208  1.00  0.00     0.208 C 
HETATM   11  C9  UNL     1      23.315   6.120  49.334  1.00  0.00    -0.024 A 
HETATM   12  C10 UNL     1      22.082   5.662  48.948  1.00  0.00     0.010 A 
HETATM   13  C11 UNL     1      20.973   6.425  49.225  1.00  0.00     0.001 A 
HETATM   14  C12 UNL     1      21.022   7.621  49.866  1.00  0.00     0.001 A 
HETATM   15  C13 UNL     1      22.262   8.101  50.265  1.00  0.00     0.012 A 
HETATM   16  C14 UNL     1      23.394   7.357  50.001  1.00  0.00    -0.026 A 
HETATM   17  C15 UNL     1      24.602   8.027  50.502  1.00  0.00     0.031 C 
HETATM   18  C16 UNL     1      25.429   8.892  49.947  1.00  0.00     0.115 C 
HETATM   19  N2  UNL     1      26.605   9.623  50.257  1.00  0.00    -0.278 N 
HETATM   20  O2  UNL     1      27.903   9.340  49.995  1.00  0.00    -0.278 OA
HETATM   21  C17 UNL     1      28.567  10.367  49.383  1.00  0.00     0.242 C 
HETATM   22  C18 UNL     1      30.047   9.989  49.266  1.00  0.00     0.220 C 
HETATM   23  F1  UNL     1      30.498   9.777  50.552  1.00  0.00    -0.243 F 
HETATM   24  C19 UNL     1      30.286   8.807  48.450  1.00  0.00     0.029 C 
HETATM   25  C20 UNL     1      30.800   8.186  47.371  1.00  0.00     0.087 C 
HETATM   26  N3  UNL     1      30.778   6.810  46.915  1.00  0.00    -0.369 N 
HETATM   27  H12 UNL     1      26.329  10.513  50.771  1.00  0.00     0.193 HD
HETATM   28  H18 UNL     1      31.614   6.607  46.371  1.00  0.00     0.165 HD
ENDROOT
TORSDOF 0
ENDMDL
