MODEL 1
REMARK VINA RESULT:      -8.2      0.000      0.000
REMARK  5 active torsions:
REMARK  status: ('A' for Active; 'I' for Inactive)
REMARK    1  A    between atoms: C2_2  and  C5_5 
REMARK    2  A    between atoms: C8_8  and  C9_9 
REMARK    3  A    between atoms: C10_12  and  S1_13 
REMARK    4  A    between atoms: S1_13  and  C11_14 
REMARK    5  A    between atoms: C11_14  and  C12_15 
ROOT
HETATM    1  C9  UNL     1      25.144   3.466  50.350  1.00  0.00     0.204 C 
HETATM    2  N1  UNL     1      23.918   3.104  50.091  1.00  0.00    -0.104 NA
HETATM    3  O1  UNL     1      23.542   2.061  50.928  1.00  0.00    -0.209 OA
HETATM    4  C10 UNL     1      24.743   1.493  51.450  1.00  0.00     0.363 C 
HETATM    5  O2  UNL     1      25.586   2.630  51.395  1.00  0.00    -0.289 OA
ENDROOT
BRANCH   1   6
HETATM    6  C8  UNL     1      25.909   4.525  49.691  1.00  0.00     0.019 A 
HETATM    7  C7  UNL     1      25.450   5.824  49.612  1.00  0.00     0.016 A 
HETATM    8  C6  UNL     1      26.255   6.752  48.973  1.00  0.00     0.009 A 
HETATM    9  C5  UNL     1      27.491   6.394  48.424  1.00  0.00    -0.051 A 
HETATM   10  C19 UNL     1      27.949   5.095  48.504  1.00  0.00     0.009 A 
HETATM   11  C18 UNL     1      27.131   4.203  49.141  1.00  0.00     0.016 A 
BRANCH   9  12
HETATM   12  C2  UNL     1      28.277   7.475  47.764  1.00  0.00    -0.024 C 
HETATM   13  C1  UNL     1      29.623   6.945  47.357  1.00  0.00     0.019 C 
HETATM   14  C3  UNL     1      28.545   8.526  48.838  1.00  0.00     0.019 C 
HETATM   15  C4  UNL     1      27.587   8.065  46.571  1.00  0.00     0.019 C 
ENDBRANCH   9  12
ENDBRANCH   1   6
BRANCH   4  16
HETATM   16  S1  UNL     1      24.395   0.957  53.141  1.00  0.00    -0.103 SA
BRANCH  16  17
HETATM   17  C11 UNL     1      25.197  -0.636  53.426  1.00  0.00     0.117 C 
BRANCH  17  18
HETATM   18  C12 UNL     1      26.644  -0.522  53.727  1.00  0.00    -0.049 A 
HETATM   19  C13 UNL     1      27.461  -1.347  52.972  1.00  0.00     0.008 A 
HETATM   20  C14 UNL     1      28.831  -1.364  53.125  1.00  0.00     0.001 A 
HETATM   21  C15 UNL     1      29.373  -0.519  54.069  1.00  0.00     0.000 A 
HETATM   22  C16 UNL     1      28.568   0.316  54.836  1.00  0.00     0.001 A 
HETATM   23  C17 UNL     1      27.187   0.325  54.674  1.00  0.00     0.008 A 
ENDBRANCH  17  18
ENDBRANCH  16  17
ENDBRANCH   4  16
TORSDOF 5
ENDMDL
MODEL 2
REMARK VINA RESULT:      -8.2      0.505      1.760
REMARK  5 active torsions:
REMARK  status: ('A' for Active; 'I' for Inactive)
REMARK    1  A    between atoms: C2_2  and  C5_5 
REMARK    2  A    between atoms: C8_8  and  C9_9 
REMARK    3  A    between atoms: C10_12  and  S1_13 
REMARK    4  A    between atoms: S1_13  and  C11_14 
REMARK    5  A    between atoms: C11_14  and  C12_15 
ROOT
HETATM    1  C9  UNL     1      24.993   3.430  50.217  1.00  0.00     0.204 C 
HETATM    2  N1  UNL     1      23.859   2.996  49.739  1.00  0.00    -0.104 NA
HETATM    3  O1  UNL     1      23.312   2.050  50.597  1.00  0.00    -0.209 OA
HETATM    4  C10 UNL     1      24.369   1.591  51.439  1.00  0.00     0.363 C 
HETATM    5  O2  UNL     1      25.195   2.742  51.430  1.00  0.00    -0.289 OA
ENDROOT
BRANCH   1   6
HETATM    6  C8  UNL     1      25.878   4.429  49.617  1.00  0.00     0.019 A 
HETATM    7  C7  UNL     1      27.109   4.098  49.090  1.00  0.00     0.016 A 
HETATM    8  C6  UNL     1      27.867   5.118  48.539  1.00  0.00     0.009 A 
HETATM    9  C5  UNL     1      27.408   6.439  48.513  1.00  0.00    -0.051 A 
HETATM   10  C19 UNL     1      26.176   6.768  49.039  1.00  0.00     0.009 A 
HETATM   11  C18 UNL     1      25.452   5.739  49.577  1.00  0.00     0.016 A 
BRANCH   9  12
HETATM   12  C2  UNL     1      28.303   7.455  47.890  1.00  0.00    -0.024 C 
HETATM   13  C1  UNL     1      28.578   8.558  48.873  1.00  0.00     0.019 C 
HETATM   14  C3  UNL     1      27.504   8.092  46.756  1.00  0.00     0.019 C 
HETATM   15  C4  UNL     1      29.599   6.883  47.401  1.00  0.00     0.019 C 
ENDBRANCH   9  12
ENDBRANCH   1   6
BRANCH   4  16
HETATM   16  S1  UNL     1      23.655   1.251  53.064  1.00  0.00    -0.103 SA
BRANCH  16  17
HETATM   17  C11 UNL     1      24.258  -0.350  53.644  1.00  0.00     0.117 C 
BRANCH  17  18
HETATM   18  C12 UNL     1      25.736  -0.458  53.646  1.00  0.00    -0.049 A 
HETATM   19  C13 UNL     1      26.371   0.281  54.631  1.00  0.00     0.008 A 
HETATM   20  C14 UNL     1      27.742   0.291  54.773  1.00  0.00     0.001 A 
HETATM   21  C15 UNL     1      28.476  -0.471  53.889  1.00  0.00     0.000 A 
HETATM   22  C16 UNL     1      27.855  -1.218  52.895  1.00  0.00     0.001 A 
HETATM   23  C17 UNL     1      26.471  -1.221  52.760  1.00  0.00     0.008 A 
ENDBRANCH  17  18
ENDBRANCH  16  17
ENDBRANCH   4  16
TORSDOF 5
ENDMDL
MODEL 3
REMARK VINA RESULT:      -7.8      1.687      2.473
REMARK  5 active torsions:
REMARK  status: ('A' for Active; 'I' for Inactive)
REMARK    1  A    between atoms: C2_2  and  C5_5 
REMARK    2  A    between atoms: C8_8  and  C9_9 
REMARK    3  A    between atoms: C10_12  and  S1_13 
REMARK    4  A    between atoms: S1_13  and  C11_14 
REMARK    5  A    between atoms: C11_14  and  C12_15 
ROOT
HETATM    1  C9  UNL     1      24.879   4.707  49.801  1.00  0.00     0.204 C 
HETATM    2  N1  UNL     1      24.101   5.151  50.750  1.00  0.00    -0.104 NA
HETATM    3  O1  UNL     1      23.092   4.231  51.008  1.00  0.00    -0.209 OA
HETATM    4  C10 UNL     1      23.019   3.365  49.876  1.00  0.00     0.363 C 
HETATM    5  O2  UNL     1      24.359   3.452  49.425  1.00  0.00    -0.289 OA
ENDROOT
BRANCH   1   6
HETATM    6  C8  UNL     1      26.053   5.374  49.239  1.00  0.00     0.019 A 
HETATM    7  C7  UNL     1      26.085   6.733  49.006  1.00  0.00     0.016 A 
HETATM    8  C6  UNL     1      27.249   7.266  48.477  1.00  0.00     0.009 A 
HETATM    9  C5  UNL     1      28.357   6.463  48.187  1.00  0.00    -0.051 A 
HETATM   10  C19 UNL     1      28.323   5.104  48.421  1.00  0.00     0.009 A 
HETATM   11  C18 UNL     1      27.160   4.608  48.943  1.00  0.00     0.016 A 
BRANCH   9  12
HETATM   12  C2  UNL     1      29.559   7.143  47.626  1.00  0.00    -0.024 C 
HETATM   13  C1  UNL     1      29.965   8.275  48.525  1.00  0.00     0.019 C 
HETATM   14  C3  UNL     1      29.114   7.786  46.315  1.00  0.00     0.019 C 
HETATM   15  C4  UNL     1      30.721   6.219  47.423  1.00  0.00     0.019 C 
ENDBRANCH   9  12
ENDBRANCH   1   6
BRANCH   4  16
HETATM   16  S1  UNL     1      22.587   1.718  50.484  1.00  0.00    -0.103 SA
BRANCH  16  17
HETATM   17  C11 UNL     1      23.108   1.577  52.208  1.00  0.00     0.117 C 
BRANCH  17  18
HETATM   18  C12 UNL     1      24.448   0.964  52.370  1.00  0.00    -0.049 A 
HETATM   19  C13 UNL     1      24.476  -0.169  53.168  1.00  0.00     0.008 A 
HETATM   20  C14 UNL     1      25.642  -0.861  53.420  1.00  0.00     0.001 A 
HETATM   21  C15 UNL     1      26.799  -0.382  52.844  1.00  0.00     0.000 A 
HETATM   22  C16 UNL     1      26.790   0.753  52.041  1.00  0.00     0.001 A 
HETATM   23  C17 UNL     1      25.608   1.443  51.793  1.00  0.00     0.008 A 
ENDBRANCH  17  18
ENDBRANCH  16  17
ENDBRANCH   4  16
TORSDOF 5
ENDMDL
MODEL 4
REMARK VINA RESULT:      -7.7      4.969      8.148
REMARK  5 active torsions:
REMARK  status: ('A' for Active; 'I' for Inactive)
REMARK    1  A    between atoms: C2_2  and  C5_5 
REMARK    2  A    between atoms: C8_8  and  C9_9 
REMARK    3  A    between atoms: C10_12  and  S1_13 
REMARK    4  A    between atoms: S1_13  and  C11_14 
REMARK    5  A    between atoms: C11_14  and  C12_15 
ROOT
HETATM    1  C9  UNL     1      21.304   2.493  52.200  1.00  0.00     0.204 C 
HETATM    2  N1  UNL     1      20.510   3.169  52.984  1.00  0.00    -0.104 NA
HETATM    3  O1  UNL     1      19.312   3.435  52.333  1.00  0.00    -0.209 OA
HETATM    4  C10 UNL     1      19.548   3.258  50.937  1.00  0.00     0.363 C 
HETATM    5  O2  UNL     1      20.600   2.310  50.994  1.00  0.00    -0.289 OA
ENDROOT
BRANCH   1   6
HETATM    6  C8  UNL     1      22.653   2.018  52.509  1.00  0.00     0.019 A 
HETATM    7  C7  UNL     1      22.946   0.678  52.655  1.00  0.00     0.016 A 
HETATM    8  C6  UNL     1      24.258   0.335  52.940  1.00  0.00     0.009 A 
HETATM    9  C5  UNL     1      25.255   1.306  53.077  1.00  0.00    -0.051 A 
HETATM   10  C19 UNL     1      24.961   2.646  52.931  1.00  0.00     0.009 A 
HETATM   11  C18 UNL     1      23.657   2.952  52.650  1.00  0.00     0.016 A 
BRANCH   9  12
HETATM   12  C2  UNL     1      26.633   0.823  53.378  1.00  0.00    -0.024 C 
HETATM   13  C1  UNL     1      27.623   1.922  53.115  1.00  0.00     0.019 C 
HETATM   14  C3  UNL     1      26.936  -0.271  52.358  1.00  0.00     0.019 C 
HETATM   15  C4  UNL     1      26.793   0.329  54.784  1.00  0.00     0.019 C 
ENDBRANCH   9  12
ENDBRANCH   1   6
BRANCH   4  16
HETATM   16  S1  UNL     1      18.034   2.585  50.214  1.00  0.00    -0.103 SA
BRANCH  16  17
HETATM   17  C11 UNL     1      18.262   0.818  49.921  1.00  0.00     0.117 C 
BRANCH  17  18
HETATM   18  C12 UNL     1      17.851  -0.028  51.067  1.00  0.00    -0.049 A 
HETATM   19  C13 UNL     1      18.827  -0.214  52.031  1.00  0.00     0.008 A 
HETATM   20  C14 UNL     1      18.608  -0.972  53.162  1.00  0.00     0.001 A 
HETATM   21  C15 UNL     1      17.365  -1.549  53.306  1.00  0.00     0.000 A 
HETATM   22  C16 UNL     1      16.373  -1.373  52.348  1.00  0.00     0.001 A 
HETATM   23  C17 UNL     1      16.604  -0.606  51.211  1.00  0.00     0.008 A 
ENDBRANCH  17  18
ENDBRANCH  16  17
ENDBRANCH   4  16
TORSDOF 5
ENDMDL
MODEL 5
REMARK VINA RESULT:      -7.7      2.749      3.590
REMARK  5 active torsions:
REMARK  status: ('A' for Active; 'I' for Inactive)
REMARK    1  A    between atoms: C2_2  and  C5_5 
REMARK    2  A    between atoms: C8_8  and  C9_9 
REMARK    3  A    between atoms: C10_12  and  S1_13 
REMARK    4  A    between atoms: S1_13  and  C11_14 
REMARK    5  A    between atoms: C11_14  and  C12_15 
ROOT
HETATM    1  C9  UNL     1      24.662   4.646  49.410  1.00  0.00     0.204 C 
HETATM    2  N1  UNL     1      23.626   5.209  49.970  1.00  0.00    -0.104 NA
HETATM    3  O1  UNL     1      22.664   4.251  50.262  1.00  0.00    -0.209 OA
HETATM    4  C10 UNL     1      22.965   3.102  49.471  1.00  0.00     0.363 C 
HETATM    5  O2  UNL     1      24.365   3.270  49.333  1.00  0.00    -0.289 OA
ENDROOT
BRANCH   1   6
HETATM    6  C8  UNL     1      25.884   5.306  48.952  1.00  0.00     0.019 A 
HETATM    7  C7  UNL     1      25.905   6.630  48.567  1.00  0.00     0.016 A 
HETATM    8  C6  UNL     1      27.117   7.161  48.156  1.00  0.00     0.009 A 
HETATM    9  C5  UNL     1      28.282   6.388  48.130  1.00  0.00    -0.051 A 
HETATM   10  C19 UNL     1      28.261   5.064  48.515  1.00  0.00     0.009 A 
HETATM   11  C18 UNL     1      27.049   4.569  48.914  1.00  0.00     0.016 A 
BRANCH   9  12
HETATM   12  C2  UNL     1      29.532   7.063  47.676  1.00  0.00    -0.024 C 
HETATM   13  C1  UNL     1      29.905   8.144  48.649  1.00  0.00     0.019 C 
HETATM   14  C3  UNL     1      29.184   7.774  46.370  1.00  0.00     0.019 C 
HETATM   15  C4  UNL     1      30.685   6.121  47.504  1.00  0.00     0.019 C 
ENDBRANCH   9  12
ENDBRANCH   1   6
BRANCH   4  16
HETATM   16  S1  UNL     1      22.524   1.645  50.445  1.00  0.00    -0.103 SA
BRANCH  16  17
HETATM   17  C11 UNL     1      22.342   2.131  52.175  1.00  0.00     0.117 C 
BRANCH  17  18
HETATM   18  C12 UNL     1      22.301   0.981  53.109  1.00  0.00    -0.049 A 
HETATM   19  C13 UNL     1      23.516   0.344  53.299  1.00  0.00     0.008 A 
HETATM   20  C14 UNL     1      23.653  -0.742  54.138  1.00  0.00     0.001 A 
HETATM   21  C15 UNL     1      22.523  -1.183  54.792  1.00  0.00     0.000 A 
HETATM   22  C16 UNL     1      21.295  -0.556  54.613  1.00  0.00     0.001 A 
HETATM   23  C17 UNL     1      21.168   0.539  53.765  1.00  0.00     0.008 A 
ENDBRANCH  17  18
ENDBRANCH  16  17
ENDBRANCH   4  16
TORSDOF 5
ENDMDL
MODEL 6
REMARK VINA RESULT:      -7.7      2.275      7.646
REMARK  5 active torsions:
REMARK  status: ('A' for Active; 'I' for Inactive)
REMARK    1  A    between atoms: C2_2  and  C5_5 
REMARK    2  A    between atoms: C8_8  and  C9_9 
REMARK    3  A    between atoms: C10_12  and  S1_13 
REMARK    4  A    between atoms: S1_13  and  C11_14 
REMARK    5  A    between atoms: C11_14  and  C12_15 
ROOT
HETATM    1  C9  UNL     1      24.233   4.256  50.852  1.00  0.00     0.204 C 
HETATM    2  N1  UNL     1      23.326   4.284  49.914  1.00  0.00    -0.104 NA
HETATM    3  O1  UNL     1      23.123   5.591  49.488  1.00  0.00    -0.209 OA
HETATM    4  C10 UNL     1      23.645   6.446  50.505  1.00  0.00     0.363 C 
HETATM    5  O2  UNL     1      24.636   5.592  51.046  1.00  0.00    -0.289 OA
ENDROOT
BRANCH   1   6
HETATM    6  C8  UNL     1      24.732   3.077  51.560  1.00  0.00     0.019 A 
HETATM    7  C7  UNL     1      24.083   2.550  52.658  1.00  0.00     0.016 A 
HETATM    8  C6  UNL     1      24.635   1.426  53.252  1.00  0.00     0.009 A 
HETATM    9  C5  UNL     1      25.808   0.842  52.763  1.00  0.00    -0.051 A 
HETATM   10  C19 UNL     1      26.456   1.371  51.666  1.00  0.00     0.009 A 
HETATM   11  C18 UNL     1      25.886   2.479  51.102  1.00  0.00     0.016 A 
BRANCH   9  12
HETATM   12  C2  UNL     1      26.310  -0.367  53.477  1.00  0.00    -0.024 C 
HETATM   13  C1  UNL     1      25.283  -0.833  54.468  1.00  0.00     0.019 C 
HETATM   14  C3  UNL     1      27.512   0.090  54.300  1.00  0.00     0.019 C 
HETATM   15  C4  UNL     1      26.667  -1.493  52.554  1.00  0.00     0.019 C 
ENDBRANCH   9  12
ENDBRANCH   1   6
BRANCH   4  16
HETATM   16  S1  UNL     1      24.341   7.899  49.684  1.00  0.00    -0.103 SA
BRANCH  16  17
HETATM   17  C11 UNL     1      24.963   7.410  48.060  1.00  0.00     0.117 C 
BRANCH  17  18
HETATM   18  C12 UNL     1      26.338   6.857  48.098  1.00  0.00    -0.049 A 
HETATM   19  C13 UNL     1      27.316   7.697  47.591  1.00  0.00     0.008 A 
HETATM   20  C14 UNL     1      28.647   7.337  47.554  1.00  0.00     0.001 A 
HETATM   21  C15 UNL     1      28.980   6.094  48.045  1.00  0.00     0.000 A 
HETATM   22  C16 UNL     1      28.012   5.238  48.558  1.00  0.00     0.001 A 
HETATM   23  C17 UNL     1      26.672   5.611  48.591  1.00  0.00     0.008 A 
ENDBRANCH  17  18
ENDBRANCH  16  17
ENDBRANCH   4  16
TORSDOF 5
ENDMDL
MODEL 7
REMARK VINA RESULT:      -7.6      2.759      3.672
REMARK  5 active torsions:
REMARK  status: ('A' for Active; 'I' for Inactive)
REMARK    1  A    between atoms: C2_2  and  C5_5 
REMARK    2  A    between atoms: C8_8  and  C9_9 
REMARK    3  A    between atoms: C10_12  and  S1_13 
REMARK    4  A    between atoms: S1_13  and  C11_14 
REMARK    5  A    between atoms: C11_14  and  C12_15 
ROOT
HETATM    1  C9  UNL     1      26.264   4.268  49.577  1.00  0.00     0.204 C 
HETATM    2  N1  UNL     1      26.820   3.252  50.177  1.00  0.00    -0.104 NA
HETATM    3  O1  UNL     1      25.848   2.467  50.784  1.00  0.00    -0.209 OA
HETATM    4  C10 UNL     1      24.675   3.272  50.900  1.00  0.00     0.363 C 
HETATM    5  O2  UNL     1      24.878   4.144  49.802  1.00  0.00    -0.289 OA
ENDROOT
BRANCH   1   6
HETATM    6  C8  UNL     1      26.939   5.326  48.824  1.00  0.00     0.019 A 
HETATM    7  C7  UNL     1      26.287   6.473  48.423  1.00  0.00     0.016 A 
HETATM    8  C6  UNL     1      27.021   7.416  47.721  1.00  0.00     0.009 A 
HETATM    9  C5  UNL     1      28.373   7.218  47.424  1.00  0.00    -0.051 A 
HETATM   10  C19 UNL     1      29.023   6.070  47.826  1.00  0.00     0.009 A 
HETATM   11  C18 UNL     1      28.272   5.159  48.517  1.00  0.00     0.016 A 
BRANCH   9  12
HETATM   12  C2  UNL     1      29.066   8.300  46.668  1.00  0.00    -0.024 C 
HETATM   13  C1  UNL     1      28.544   8.348  45.261  1.00  0.00     0.019 C 
HETATM   14  C3  UNL     1      30.529   7.879  46.561  1.00  0.00     0.019 C 
HETATM   15  C4  UNL     1      28.924   9.651  47.304  1.00  0.00     0.019 C 
ENDBRANCH   9  12
ENDBRANCH   1   6
BRANCH   4  16
HETATM   16  S1  UNL     1      23.249   2.183  50.678  1.00  0.00    -0.103 SA
BRANCH  16  17
HETATM   17  C11 UNL     1      22.228   2.248  52.166  1.00  0.00     0.117 C 
BRANCH  17  18
HETATM   18  C12 UNL     1      22.382   1.059  53.039  1.00  0.00    -0.049 A 
HETATM   19  C13 UNL     1      21.221   0.651  53.674  1.00  0.00     0.008 A 
HETATM   20  C14 UNL     1      21.190  -0.438  54.519  1.00  0.00     0.001 A 
HETATM   21  C15 UNL     1      22.372  -1.120  54.716  1.00  0.00     0.000 A 
HETATM   22  C16 UNL     1      23.546  -0.724  54.087  1.00  0.00     0.001 A 
HETATM   23  C17 UNL     1      23.566   0.376  53.236  1.00  0.00     0.008 A 
ENDBRANCH  17  18
ENDBRANCH  16  17
ENDBRANCH   4  16
TORSDOF 5
ENDMDL
MODEL 8
REMARK VINA RESULT:      -7.6      5.608      8.841
REMARK  5 active torsions:
REMARK  status: ('A' for Active; 'I' for Inactive)
REMARK    1  A    between atoms: C2_2  and  C5_5 
REMARK    2  A    between atoms: C8_8  and  C9_9 
REMARK    3  A    between atoms: C10_12  and  S1_13 
REMARK    4  A    between atoms: S1_13  and  C11_14 
REMARK    5  A    between atoms: C11_14  and  C12_15 
ROOT
HETATM    1  C9  UNL     1      21.229   0.710  52.473  1.00  0.00     0.204 C 
HETATM    2  N1  UNL     1      20.371   1.323  53.242  1.00  0.00    -0.104 NA
HETATM    3  O1  UNL     1      19.112   1.311  52.654  1.00  0.00    -0.209 OA
HETATM    4  C10 UNL     1      19.302   1.027  51.269  1.00  0.00     0.363 C 
HETATM    5  O2  UNL     1      20.505   0.282  51.343  1.00  0.00    -0.289 OA
ENDROOT
BRANCH   1   6
HETATM    6  C8  UNL     1      22.655   0.506  52.730  1.00  0.00     0.019 A 
HETATM    7  C7  UNL     1      23.110  -0.297  53.755  1.00  0.00     0.016 A 
HETATM    8  C6  UNL     1      24.481  -0.428  53.908  1.00  0.00     0.009 A 
HETATM    9  C5  UNL     1      25.378   0.228  53.058  1.00  0.00    -0.051 A 
HETATM   10  C19 UNL     1      24.921   1.031  52.034  1.00  0.00     0.009 A 
HETATM   11  C18 UNL     1      23.563   1.140  51.909  1.00  0.00     0.016 A 
BRANCH   9  12
HETATM   12  C2  UNL     1      26.831   0.011  53.311  1.00  0.00    -0.024 C 
HETATM   13  C1  UNL     1      27.119   0.167  54.777  1.00  0.00     0.019 C 
HETATM   14  C3  UNL     1      27.561   1.156  52.614  1.00  0.00     0.019 C 
HETATM   15  C4  UNL     1      27.321  -1.325  52.841  1.00  0.00     0.019 C 
ENDBRANCH   9  12
ENDBRANCH   1   6
BRANCH   4  16
HETATM   16  S1  UNL     1      17.893   0.034  50.724  1.00  0.00    -0.103 SA
BRANCH  16  17
HETATM   17  C11 UNL     1      16.757  -0.180  52.112  1.00  0.00     0.117 C 
BRANCH  17  18
HETATM   18  C12 UNL     1      16.633  -1.588  52.560  1.00  0.00    -0.049 A 
HETATM   19  C13 UNL     1      17.695  -2.052  53.319  1.00  0.00     0.008 A 
HETATM   20  C14 UNL     1      17.736  -3.338  53.815  1.00  0.00     0.001 A 
HETATM   21  C15 UNL     1      16.669  -4.162  53.528  1.00  0.00     0.000 A 
HETATM   22  C16 UNL     1      15.595  -3.713  52.769  1.00  0.00     0.001 A 
HETATM   23  C17 UNL     1      15.563  -2.414  52.273  1.00  0.00     0.008 A 
ENDBRANCH  17  18
ENDBRANCH  16  17
ENDBRANCH   4  16
TORSDOF 5
ENDMDL
MODEL 9
REMARK VINA RESULT:      -7.6      1.976      3.362
REMARK  5 active torsions:
REMARK  status: ('A' for Active; 'I' for Inactive)
REMARK    1  A    between atoms: C2_2  and  C5_5 
REMARK    2  A    between atoms: C8_8  and  C9_9 
REMARK    3  A    between atoms: C10_12  and  S1_13 
REMARK    4  A    between atoms: S1_13  and  C11_14 
REMARK    5  A    between atoms: C11_14  and  C12_15 
ROOT
HETATM    1  C9  UNL     1      26.322   4.173  49.723  1.00  0.00     0.204 C 
HETATM    2  N1  UNL     1      25.071   3.810  49.658  1.00  0.00    -0.104 NA
HETATM    3  O1  UNL     1      24.818   2.806  50.584  1.00  0.00    -0.209 OA
HETATM    4  C10 UNL     1      26.080   2.250  50.950  1.00  0.00     0.363 C 
HETATM    5  O2  UNL     1      26.909   3.377  50.726  1.00  0.00    -0.289 OA
ENDROOT
BRANCH   1   6
HETATM    6  C8  UNL     1      26.985   5.199  48.917  1.00  0.00     0.019 A 
HETATM    7  C7  UNL     1      28.319   5.116  48.575  1.00  0.00     0.016 A 
HETATM    8  C6  UNL     1      28.848   6.137  47.802  1.00  0.00     0.009 A 
HETATM    9  C5  UNL     1      28.066   7.217  47.380  1.00  0.00    -0.051 A 
HETATM   10  C19 UNL     1      26.732   7.298  47.723  1.00  0.00     0.009 A 
HETATM   11  C18 UNL     1      26.239   6.275  48.486  1.00  0.00     0.016 A 
BRANCH   9  12
HETATM   12  C2  UNL     1      28.737   8.256  46.548  1.00  0.00    -0.024 C 
HETATM   13  C1  UNL     1      30.163   7.857  46.294  1.00  0.00     0.019 C 
HETATM   14  C3  UNL     1      28.799   9.517  47.407  1.00  0.00     0.019 C 
HETATM   15  C4  UNL     1      28.044   8.508  45.243  1.00  0.00     0.019 C 
ENDBRANCH   9  12
ENDBRANCH   1   6
BRANCH   4  16
HETATM   16  S1  UNL     1      25.981   1.787  52.695  1.00  0.00    -0.103 SA
BRANCH  16  17
HETATM   17  C11 UNL     1      25.352   0.098  52.816  1.00  0.00     0.117 C 
BRANCH  17  18
HETATM   18  C12 UNL     1      23.972   0.019  53.351  1.00  0.00    -0.049 A 
HETATM   19  C13 UNL     1      23.799  -0.895  54.377  1.00  0.00     0.008 A 
HETATM   20  C14 UNL     1      22.577  -1.091  54.987  1.00  0.00     0.001 A 
HETATM   21  C15 UNL     1      21.516  -0.337  54.536  1.00  0.00     0.000 A 
HETATM   22  C16 UNL     1      21.672   0.585  53.507  1.00  0.00     0.001 A 
HETATM   23  C17 UNL     1      22.909   0.775  52.899  1.00  0.00     0.008 A 
ENDBRANCH  17  18
ENDBRANCH  16  17
ENDBRANCH   4  16
TORSDOF 5
ENDMDL
