MODEL 1
REMARK VINA RESULT:      -8.3      0.000      0.000
REMARK  5 active torsions:
REMARK  status: ('A' for Active; 'I' for Inactive)
REMARK       I    between atoms: C1_2  and  N1_3 
REMARK       I    between atoms: C1_2  and  N3_12 
REMARK    1  A    between atoms: N1_3  and  C2_4 
REMARK    2  A    between atoms: C2_4  and  C3_5 
REMARK    3  A    between atoms: C3_5  and  N2_6 
REMARK    4  A    between atoms: N3_12  and  C8_13 
REMARK    5  A    between atoms: C13_20  and  C14_21 
ROOT
HETATM    1  C8  UNL     1      23.234   4.076  52.481  1.00  0.00     0.037 A 
HETATM    2  C9  UNL     1      21.912   3.784  52.244  1.00  0.00     0.032 A 
HETATM    3  C10 UNL     1      21.356   2.526  52.318  1.00  0.00     0.035 A 
HETATM    4  C11 UNL     1      22.159   1.455  52.652  1.00  0.00     0.070 A 
HETATM    5  N4  UNL     1      21.666   0.220  52.737  1.00  0.00    -0.241 NA
HETATM    6  C12 UNL     1      22.486  -0.795  53.068  1.00  0.00     0.234 A 
HETATM    7  N5  UNL     1      23.784  -0.538  53.305  1.00  0.00    -0.245 NA
HETATM    8  C13 UNL     1      24.331   0.689  53.234  1.00  0.00     0.059 A 
HETATM    9  C18 UNL     1      23.490   1.727  52.895  1.00  0.00     0.020 A 
HETATM   10  C19 UNL     1      23.995   2.999  52.808  1.00  0.00     0.045 A 
ENDROOT
BRANCH   1  11
HETATM   11  N3  UNL     1      23.852   5.345  52.418  1.00  0.00    -0.309 N 
HETATM   12  C1  UNL     1      24.228   6.101  51.281  1.00  0.00     0.320 C 
HETATM   13  O1  UNL     1      24.011   5.641  50.134  1.00  0.00    -0.247 OA
HETATM   14  N1  UNL     1      24.843   7.365  51.329  1.00  0.00    -0.341 N 
HETATM   15  H1  UNL     1      25.041   7.781  52.286  1.00  0.00     0.164 HD
HETATM   16  H14 UNL     1      24.090   5.844  53.291  1.00  0.00     0.170 HD
BRANCH  14  17
HETATM   17  C2  UNL     1      25.217   8.124  50.157  1.00  0.00     0.154 C 
BRANCH  17  18
HETATM   18  C3  UNL     1      26.590   7.861  49.662  1.00  0.00     0.292 C 
BRANCH  18  19
HETATM   19  N2  UNL     1      26.685   7.128  48.442  1.00  0.00     0.094 N 
HETATM   20  C4  UNL     1      27.237   5.791  48.601  1.00  0.00     0.298 C 
HETATM   21  C5  UNL     1      28.695   5.811  48.171  1.00  0.00     0.198 C 
HETATM   22  O2  UNL     1      29.295   7.031  48.479  1.00  0.00    -0.388 OA
HETATM   23  C6  UNL     1      28.785   8.092  47.733  1.00  0.00     0.198 C 
HETATM   24  C7  UNL     1      27.358   7.764  47.374  1.00  0.00     0.298 C 
ENDBRANCH  18  19
ENDBRANCH  17  18
ENDBRANCH  14  17
ENDBRANCH   1  11
BRANCH   8  25
HETATM   25  C14 UNL     1      25.791   0.888  53.514  1.00  0.00     0.104 A 
HETATM   26  C15 UNL     1      26.447  -0.215  54.256  1.00  0.00     0.048 A 
HETATM   27  C16 UNL     1      27.207  -0.557  53.036  1.00  0.00     0.013 A 
HETATM   28  C17 UNL     1      26.616   0.426  52.388  1.00  0.00     0.100 A 
HETATM   29  F1  UNL     1      26.618   0.986  51.136  1.00  0.00    -0.210 F 
ENDBRANCH   8  25
TORSDOF 5
ENDMDL
MODEL 2
REMARK VINA RESULT:      -8.1      1.947      2.819
REMARK  5 active torsions:
REMARK  status: ('A' for Active; 'I' for Inactive)
REMARK       I    between atoms: C1_2  and  N1_3 
REMARK       I    between atoms: C1_2  and  N3_12 
REMARK    1  A    between atoms: N1_3  and  C2_4 
REMARK    2  A    between atoms: C2_4  and  C3_5 
REMARK    3  A    between atoms: C3_5  and  N2_6 
REMARK    4  A    between atoms: N3_12  and  C8_13 
REMARK    5  A    between atoms: C13_20  and  C14_21 
ROOT
HETATM    1  C8  UNL     1      22.852   0.986  51.693  1.00  0.00     0.037 A 
HETATM    2  C9  UNL     1      21.740   0.399  52.248  1.00  0.00     0.032 A 
HETATM    3  C10 UNL     1      21.740  -0.358  53.399  1.00  0.00     0.035 A 
HETATM    4  C11 UNL     1      22.928  -0.562  54.070  1.00  0.00     0.070 A 
HETATM    5  N4  UNL     1      22.977  -1.286  55.188  1.00  0.00    -0.241 NA
HETATM    6  C12 UNL     1      24.157  -1.459  55.810  1.00  0.00     0.234 A 
HETATM    7  N5  UNL     1      25.261  -0.895  55.288  1.00  0.00    -0.245 NA
HETATM    8  C13 UNL     1      25.266  -0.155  54.165  1.00  0.00     0.059 A 
HETATM    9  C18 UNL     1      24.056   0.020  53.529  1.00  0.00     0.020 A 
HETATM   10  C19 UNL     1      24.004   0.765  52.379  1.00  0.00     0.045 A 
ENDROOT
BRANCH   1  11
HETATM   11  N3  UNL     1      22.906   1.769  50.518  1.00  0.00    -0.309 N 
HETATM   12  C1  UNL     1      22.911   3.180  50.384  1.00  0.00     0.320 C 
HETATM   13  O1  UNL     1      22.863   3.899  51.410  1.00  0.00    -0.247 OA
HETATM   14  N1  UNL     1      22.968   3.865  49.156  1.00  0.00    -0.341 N 
HETATM   15  H1  UNL     1      23.008   3.284  48.268  1.00  0.00     0.164 HD
HETATM   16  H14 UNL     1      22.948   1.308  49.595  1.00  0.00     0.170 HD
BRANCH  14  17
HETATM   17  C2  UNL     1      22.975   5.305  49.037  1.00  0.00     0.154 C 
BRANCH  17  18
HETATM   18  C3  UNL     1      24.257   5.881  48.564  1.00  0.00     0.292 C 
BRANCH  18  19
HETATM   19  N2  UNL     1      25.334   5.861  49.500  1.00  0.00     0.094 N 
HETATM   20  C4  UNL     1      25.290   6.943  50.471  1.00  0.00     0.298 C 
HETATM   21  C5  UNL     1      26.278   8.019  50.048  1.00  0.00     0.198 C 
HETATM   22  O2  UNL     1      26.359   8.112  48.660  1.00  0.00    -0.388 OA
HETATM   23  C6  UNL     1      26.927   6.985  48.070  1.00  0.00     0.198 C 
HETATM   24  C7  UNL     1      26.638   5.801  48.958  1.00  0.00     0.298 C 
ENDBRANCH  18  19
ENDBRANCH  17  18
ENDBRANCH  14  17
ENDBRANCH   1  11
BRANCH   8  25
HETATM   25  C14 UNL     1      26.545   0.438  53.651  1.00  0.00     0.104 A 
HETATM   26  C15 UNL     1      27.719   0.274  54.540  1.00  0.00     0.048 A 
HETATM   27  C16 UNL     1      28.306  -0.662  53.560  1.00  0.00     0.013 A 
HETATM   28  C17 UNL     1      27.256  -0.508  52.779  1.00  0.00     0.100 A 
HETATM   29  F1  UNL     1      26.794  -0.960  51.570  1.00  0.00    -0.210 F 
ENDBRANCH   8  25
TORSDOF 5
ENDMDL
MODEL 3
REMARK VINA RESULT:      -8.0      2.128      2.730
REMARK  5 active torsions:
REMARK  status: ('A' for Active; 'I' for Inactive)
REMARK       I    between atoms: C1_2  and  N1_3 
REMARK       I    between atoms: C1_2  and  N3_12 
REMARK    1  A    between atoms: N1_3  and  C2_4 
REMARK    2  A    between atoms: C2_4  and  C3_5 
REMARK    3  A    between atoms: C3_5  and  N2_6 
REMARK    4  A    between atoms: N3_12  and  C8_13 
REMARK    5  A    between atoms: C13_20  and  C14_21 
ROOT
HETATM    1  C8  UNL     1      24.801   3.651  51.291  1.00  0.00     0.037 A 
HETATM    2  C9  UNL     1      23.452   3.685  51.555  1.00  0.00     0.032 A 
HETATM    3  C10 UNL     1      22.738   2.665  52.143  1.00  0.00     0.035 A 
HETATM    4  C11 UNL     1      23.394   1.508  52.508  1.00  0.00     0.070 A 
HETATM    5  N4  UNL     1      22.745   0.495  53.081  1.00  0.00    -0.241 NA
HETATM    6  C12 UNL     1      23.425  -0.616  53.421  1.00  0.00     0.234 A 
HETATM    7  N5  UNL     1      24.746  -0.675  53.174  1.00  0.00    -0.245 NA
HETATM    8  C13 UNL     1      25.448   0.318  52.599  1.00  0.00     0.059 A 
HETATM    9  C18 UNL     1      24.748   1.454  52.252  1.00  0.00     0.020 A 
HETATM   10  C19 UNL     1      25.415   2.497  51.663  1.00  0.00     0.045 A 
ENDROOT
BRANCH   1  11
HETATM   11  N3  UNL     1      25.578   4.667  50.691  1.00  0.00    -0.309 N 
HETATM   12  C1  UNL     1      26.635   4.548  49.755  1.00  0.00     0.320 C 
HETATM   13  O1  UNL     1      26.984   3.410  49.357  1.00  0.00    -0.247 OA
HETATM   14  N1  UNL     1      27.350   5.633  49.216  1.00  0.00    -0.341 N 
HETATM   15  H1  UNL     1      27.080   6.609  49.534  1.00  0.00     0.164 HD
HETATM   16  H14 UNL     1      25.401   5.656  50.928  1.00  0.00     0.170 HD
BRANCH  14  17
HETATM   17  C2  UNL     1      28.425   5.493  48.259  1.00  0.00     0.154 C 
BRANCH  17  18
HETATM   18  C3  UNL     1      29.202   6.732  48.016  1.00  0.00     0.292 C 
BRANCH  18  19
HETATM   19  N2  UNL     1      30.495   6.555  47.439  1.00  0.00     0.094 N 
HETATM   20  C4  UNL     1      31.101   5.266  47.736  1.00  0.00     0.298 C 
HETATM   21  C5  UNL     1      32.122   5.451  48.847  1.00  0.00     0.198 C 
HETATM   22  O2  UNL     1      31.719   6.439  49.743  1.00  0.00    -0.388 OA
HETATM   23  C6  UNL     1      31.707   7.714  49.181  1.00  0.00     0.198 C 
HETATM   24  C7  UNL     1      31.447   7.566  47.703  1.00  0.00     0.298 C 
ENDBRANCH  18  19
ENDBRANCH  17  18
ENDBRANCH  14  17
ENDBRANCH   1  11
BRANCH   8  25
HETATM   25  C14 UNL     1      26.921   0.168  52.360  1.00  0.00     0.104 A 
HETATM   26  C15 UNL     1      27.792   0.684  53.442  1.00  0.00     0.048 A 
HETATM   27  C16 UNL     1      28.178  -0.704  53.767  1.00  0.00     0.013 A 
HETATM   28  C17 UNL     1      27.399  -1.150  52.803  1.00  0.00     0.100 A 
HETATM   29  F1  UNL     1      27.026  -2.347  52.247  1.00  0.00    -0.210 F 
ENDBRANCH   8  25
TORSDOF 5
ENDMDL
MODEL 4
REMARK VINA RESULT:      -7.8      2.058      2.818
REMARK  5 active torsions:
REMARK  status: ('A' for Active; 'I' for Inactive)
REMARK       I    between atoms: C1_2  and  N1_3 
REMARK       I    between atoms: C1_2  and  N3_12 
REMARK    1  A    between atoms: N1_3  and  C2_4 
REMARK    2  A    between atoms: C2_4  and  C3_5 
REMARK    3  A    between atoms: C3_5  and  N2_6 
REMARK    4  A    between atoms: N3_12  and  C8_13 
REMARK    5  A    between atoms: C13_20  and  C14_21 
ROOT
HETATM    1  C8  UNL     1      24.455   2.302  51.290  1.00  0.00     0.037 A 
HETATM    2  C9  UNL     1      23.189   2.086  51.780  1.00  0.00     0.032 A 
HETATM    3  C10 UNL     1      22.870   1.183  52.770  1.00  0.00     0.035 A 
HETATM    4  C11 UNL     1      23.872   0.421  53.333  1.00  0.00     0.070 A 
HETATM    5  N4  UNL     1      23.612  -0.466  54.293  1.00  0.00    -0.241 NA
HETATM    6  C12 UNL     1      24.620  -1.188  54.815  1.00  0.00     0.234 A 
HETATM    7  N5  UNL     1      25.869  -0.997  54.353  1.00  0.00    -0.245 NA
HETATM    8  C13 UNL     1      26.186  -0.117  53.387  1.00  0.00     0.059 A 
HETATM    9  C18 UNL     1      25.150   0.622  52.854  1.00  0.00     0.020 A 
HETATM   10  C19 UNL     1      25.417   1.534  51.866  1.00  0.00     0.045 A 
ENDROOT
BRANCH   1  11
HETATM   11  N3  UNL     1      24.835   3.213  50.279  1.00  0.00    -0.309 N 
HETATM   12  C1  UNL     1      26.127   3.683  49.939  1.00  0.00     0.320 C 
HETATM   13  O1  UNL     1      27.123   3.275  50.584  1.00  0.00    -0.247 OA
HETATM   14  N1  UNL     1      26.398   4.599  48.905  1.00  0.00    -0.341 N 
HETATM   15  H1  UNL     1      25.576   4.964  48.342  1.00  0.00     0.164 HD
HETATM   16  H14 UNL     1      24.115   3.632  49.668  1.00  0.00     0.170 HD
BRANCH  14  17
HETATM   17  C2  UNL     1      27.724   5.066  48.570  1.00  0.00     0.154 C 
BRANCH  17  18
HETATM   18  C3  UNL     1      27.867   6.541  48.523  1.00  0.00     0.292 C 
BRANCH  18  19
HETATM   19  N2  UNL     1      26.661   7.291  48.656  1.00  0.00     0.094 N 
HETATM   20  C4  UNL     1      26.325   8.079  47.480  1.00  0.00     0.298 C 
HETATM   21  C5  UNL     1      26.716   9.526  47.734  1.00  0.00     0.198 C 
HETATM   22  O2  UNL     1      27.860   9.608  48.526  1.00  0.00    -0.388 OA
HETATM   23  C6  UNL     1      27.654   9.157  49.828  1.00  0.00     0.198 C 
HETATM   24  C7  UNL     1      26.558   8.123  49.794  1.00  0.00     0.298 C 
ENDBRANCH  18  19
ENDBRANCH  17  18
ENDBRANCH  14  17
ENDBRANCH   1  11
BRANCH   8  25
HETATM   25  C14 UNL     1      27.606   0.033  52.930  1.00  0.00     0.104 A 
HETATM   26  C15 UNL     1      28.491   0.779  53.856  1.00  0.00     0.048 A 
HETATM   27  C16 UNL     1      29.210  -0.478  54.150  1.00  0.00     0.013 A 
HETATM   28  C17 UNL     1      28.416  -1.129  53.325  1.00  0.00     0.100 A 
HETATM   29  F1  UNL     1      28.234  -2.406  52.861  1.00  0.00    -0.210 F 
ENDBRANCH   8  25
TORSDOF 5
ENDMDL
MODEL 5
REMARK VINA RESULT:      -7.7      4.010      5.013
REMARK  5 active torsions:
REMARK  status: ('A' for Active; 'I' for Inactive)
REMARK       I    between atoms: C1_2  and  N1_3 
REMARK       I    between atoms: C1_2  and  N3_12 
REMARK    1  A    between atoms: N1_3  and  C2_4 
REMARK    2  A    between atoms: C2_4  and  C3_5 
REMARK    3  A    between atoms: C3_5  and  N2_6 
REMARK    4  A    between atoms: N3_12  and  C8_13 
REMARK    5  A    between atoms: C13_20  and  C14_21 
ROOT
HETATM    1  C8  UNL     1      21.117   0.461  52.633  1.00  0.00     0.037 A 
HETATM    2  C9  UNL     1      20.484  -0.217  53.648  1.00  0.00     0.032 A 
HETATM    3  C10 UNL     1      21.124  -0.880  54.671  1.00  0.00     0.035 A 
HETATM    4  C11 UNL     1      22.502  -0.885  54.711  1.00  0.00     0.070 A 
HETATM    5  N4  UNL     1      23.165  -1.513  55.683  1.00  0.00    -0.241 NA
HETATM    6  C12 UNL     1      24.510  -1.491  55.684  1.00  0.00     0.234 A 
HETATM    7  N5  UNL     1      25.155  -0.835  54.702  1.00  0.00    -0.245 NA
HETATM    8  C13 UNL     1      24.535  -0.186  53.700  1.00  0.00     0.059 A 
HETATM    9  C18 UNL     1      23.156  -0.210  53.702  1.00  0.00     0.020 A 
HETATM   10  C19 UNL     1      22.473   0.436  52.704  1.00  0.00     0.045 A 
ENDROOT
BRANCH   1  11
HETATM   11  N3  UNL     1      20.510   1.156  51.563  1.00  0.00    -0.309 N 
HETATM   12  C1  UNL     1      19.928   2.448  51.551  1.00  0.00     0.320 C 
HETATM   13  O1  UNL     1      19.915   3.129  52.604  1.00  0.00    -0.247 OA
HETATM   14  N1  UNL     1      19.345   3.051  50.422  1.00  0.00    -0.341 N 
HETATM   15  H1  UNL     1      19.339   2.499  49.515  1.00  0.00     0.164 HD
HETATM   16  H14 UNL     1      20.449   0.712  50.632  1.00  0.00     0.170 HD
BRANCH  14  17
HETATM   17  C2  UNL     1      18.758   4.372  50.427  1.00  0.00     0.154 C 
BRANCH  17  18
HETATM   18  C3  UNL     1      19.452   5.361  49.568  1.00  0.00     0.292 C 
BRANCH  18  19
HETATM   19  N2  UNL     1      20.875   5.391  49.672  1.00  0.00     0.094 N 
HETATM   20  C4  UNL     1      21.360   5.945  50.927  1.00  0.00     0.298 C 
HETATM   21  C5  UNL     1      21.803   7.380  50.690  1.00  0.00     0.198 C 
HETATM   22  O2  UNL     1      21.008   7.999  49.727  1.00  0.00    -0.388 OA
HETATM   23  C6  UNL     1      21.172   7.458  48.454  1.00  0.00     0.198 C 
HETATM   24  C7  UNL     1      21.573   6.013  48.612  1.00  0.00     0.298 C 
ENDBRANCH  18  19
ENDBRANCH  17  18
ENDBRANCH  14  17
ENDBRANCH   1  11
BRANCH   8  25
HETATM   25  C14 UNL     1      25.331   0.521  52.645  1.00  0.00     0.104 A 
HETATM   26  C15 UNL     1      26.206   1.611  53.139  1.00  0.00     0.048 A 
HETATM   27  C16 UNL     1      27.387   0.784  52.814  1.00  0.00     0.013 A 
HETATM   28  C17 UNL     1      26.598  -0.177  52.379  1.00  0.00     0.100 A 
HETATM   29  F1  UNL     1      26.702  -1.434  51.840  1.00  0.00    -0.210 F 
ENDBRANCH   8  25
TORSDOF 5
ENDMDL
MODEL 6
REMARK VINA RESULT:      -7.5      5.069      7.993
REMARK  5 active torsions:
REMARK  status: ('A' for Active; 'I' for Inactive)
REMARK       I    between atoms: C1_2  and  N1_3 
REMARK       I    between atoms: C1_2  and  N3_12 
REMARK    1  A    between atoms: N1_3  and  C2_4 
REMARK    2  A    between atoms: C2_4  and  C3_5 
REMARK    3  A    between atoms: C3_5  and  N2_6 
REMARK    4  A    between atoms: N3_12  and  C8_13 
REMARK    5  A    between atoms: C13_20  and  C14_21 
ROOT
HETATM    1  C8  UNL     1      20.761   0.238  52.627  1.00  0.00     0.037 A 
HETATM    2  C9  UNL     1      20.331  -0.556  53.664  1.00  0.00     0.032 A 
HETATM    3  C10 UNL     1      21.150  -1.128  54.612  1.00  0.00     0.035 A 
HETATM    4  C11 UNL     1      22.510  -0.909  54.545  1.00  0.00     0.070 A 
HETATM    5  N4  UNL     1      23.342  -1.441  55.440  1.00  0.00    -0.241 NA
HETATM    6  C12 UNL     1      24.662  -1.201  55.338  1.00  0.00     0.234 A 
HETATM    7  N5  UNL     1      25.110  -0.427  54.333  1.00  0.00    -0.245 NA
HETATM    8  C13 UNL     1      24.314   0.134  53.404  1.00  0.00     0.059 A 
HETATM    9  C18 UNL     1      22.962  -0.115  53.512  1.00  0.00     0.020 A 
HETATM   10  C19 UNL     1      22.105   0.432  52.592  1.00  0.00     0.045 A 
ENDROOT
BRANCH   1  11
HETATM   11  N3  UNL     1      19.965   0.847  51.632  1.00  0.00    -0.309 N 
HETATM   12  C1  UNL     1      19.427   2.157  51.595  1.00  0.00     0.320 C 
HETATM   13  O1  UNL     1      19.649   2.943  52.547  1.00  0.00    -0.247 OA
HETATM   14  N1  UNL     1      18.640   2.668  50.547  1.00  0.00    -0.341 N 
HETATM   15  H1  UNL     1      18.433   2.027  49.727  1.00  0.00     0.164 HD
HETATM   16  H14 UNL     1      19.702   0.314  50.787  1.00  0.00     0.170 HD
BRANCH  14  17
HETATM   17  C2  UNL     1      18.101   4.009  50.525  1.00  0.00     0.154 C 
BRANCH  17  18
HETATM   18  C3  UNL     1      16.620   4.082  50.533  1.00  0.00     0.292 C 
BRANCH  18  19
HETATM   19  N2  UNL     1      15.938   2.892  50.925  1.00  0.00     0.094 N 
HETATM   20  C4  UNL     1      14.764   2.595  50.118  1.00  0.00     0.298 C 
HETATM   21  C5  UNL     1      13.523   3.016  50.888  1.00  0.00     0.198 C 
HETATM   22  O2  UNL     1      13.769   4.148  51.662  1.00  0.00    -0.388 OA
HETATM   23  C6  UNL     1      14.661   3.911  52.706  1.00  0.00     0.198 C 
HETATM   24  C7  UNL     1      15.579   2.791  52.288  1.00  0.00     0.298 C 
ENDBRANCH  18  19
ENDBRANCH  17  18
ENDBRANCH  14  17
ENDBRANCH   1  11
BRANCH   8  25
HETATM   25  C14 UNL     1      24.898   0.984  52.315  1.00  0.00     0.104 A 
HETATM   26  C15 UNL     1      25.463   2.280  52.761  1.00  0.00     0.048 A 
HETATM   27  C16 UNL     1      26.816   1.775  52.450  1.00  0.00     0.013 A 
HETATM   28  C17 UNL     1      26.301   0.627  52.058  1.00  0.00     0.100 A 
HETATM   29  F1  UNL     1      26.725  -0.579  51.562  1.00  0.00    -0.210 F 
ENDBRANCH   8  25
TORSDOF 5
ENDMDL
MODEL 7
REMARK VINA RESULT:      -7.4      2.249      3.735
REMARK  5 active torsions:
REMARK  status: ('A' for Active; 'I' for Inactive)
REMARK       I    between atoms: C1_2  and  N1_3 
REMARK       I    between atoms: C1_2  and  N3_12 
REMARK    1  A    between atoms: N1_3  and  C2_4 
REMARK    2  A    between atoms: C2_4  and  C3_5 
REMARK    3  A    between atoms: C3_5  and  N2_6 
REMARK    4  A    between atoms: N3_12  and  C8_13 
REMARK    5  A    between atoms: C13_20  and  C14_21 
ROOT
HETATM    1  C8  UNL     1      25.589   1.851  51.741  1.00  0.00     0.037 A 
HETATM    2  C9  UNL     1      26.748   1.968  52.471  1.00  0.00     0.032 A 
HETATM    3  C10 UNL     1      27.005   1.310  53.654  1.00  0.00     0.035 A 
HETATM    4  C11 UNL     1      26.048   0.463  54.173  1.00  0.00     0.070 A 
HETATM    5  N4  UNL     1      26.252  -0.195  55.314  1.00  0.00    -0.241 NA
HETATM    6  C12 UNL     1      25.292  -1.012  55.784  1.00  0.00     0.234 A 
HETATM    7  N5  UNL     1      24.148  -1.145  55.089  1.00  0.00    -0.245 NA
HETATM    8  C13 UNL     1      23.892  -0.505  53.934  1.00  0.00     0.059 A 
HETATM    9  C18 UNL     1      24.878   0.332  53.455  1.00  0.00     0.020 A 
HETATM   10  C19 UNL     1      24.670   1.009  52.281  1.00  0.00     0.045 A 
ENDROOT
BRANCH   1  11
HETATM   11  N3  UNL     1      25.277   2.502  50.526  1.00  0.00    -0.309 N 
HETATM   12  C1  UNL     1      24.722   3.789  50.318  1.00  0.00     0.320 C 
HETATM   13  O1  UNL     1      24.444   4.509  51.307  1.00  0.00    -0.247 OA
HETATM   14  N1  UNL     1      24.448   4.346  49.056  1.00  0.00    -0.341 N 
HETATM   15  H1  UNL     1      24.671   3.760  48.198  1.00  0.00     0.164 HD
HETATM   16  H14 UNL     1      25.454   2.024  49.627  1.00  0.00     0.170 HD
BRANCH  14  17
HETATM   17  C2  UNL     1      23.884   5.662  48.862  1.00  0.00     0.154 C 
BRANCH  17  18
HETATM   18  C3  UNL     1      24.856   6.695  48.431  1.00  0.00     0.292 C 
BRANCH  18  19
HETATM   19  N2  UNL     1      26.091   6.729  49.145  1.00  0.00     0.094 N 
HETATM   20  C4  UNL     1      26.174   7.802  50.125  1.00  0.00     0.298 C 
HETATM   21  C5  UNL     1      27.006   8.932  49.541  1.00  0.00     0.198 C 
HETATM   22  O2  UNL     1      26.817   9.038  48.164  1.00  0.00    -0.388 OA
HETATM   23  C6  UNL     1      27.322   7.948  47.459  1.00  0.00     0.198 C 
HETATM   24  C7  UNL     1      27.270   6.744  48.366  1.00  0.00     0.298 C 
ENDBRANCH  18  19
ENDBRANCH  17  18
ENDBRANCH  14  17
ENDBRANCH   1  11
BRANCH   8  25
HETATM   25  C14 UNL     1      22.588  -0.711  53.223  1.00  0.00     0.104 A 
HETATM   26  C15 UNL     1      21.655  -1.658  53.878  1.00  0.00     0.048 A 
HETATM   27  C16 UNL     1      20.764  -0.525  54.203  1.00  0.00     0.013 A 
HETATM   28  C17 UNL     1      21.602   0.307  53.618  1.00  0.00     0.100 A 
HETATM   29  F1  UNL     1      21.713   1.648  53.360  1.00  0.00    -0.210 F 
ENDBRANCH   8  25
TORSDOF 5
ENDMDL
MODEL 8
REMARK VINA RESULT:      -7.4      2.274      3.240
REMARK  5 active torsions:
REMARK  status: ('A' for Active; 'I' for Inactive)
REMARK       I    between atoms: C1_2  and  N1_3 
REMARK       I    between atoms: C1_2  and  N3_12 
REMARK    1  A    between atoms: N1_3  and  C2_4 
REMARK    2  A    between atoms: C2_4  and  C3_5 
REMARK    3  A    between atoms: C3_5  and  N2_6 
REMARK    4  A    between atoms: N3_12  and  C8_13 
REMARK    5  A    between atoms: C13_20  and  C14_21 
ROOT
HETATM    1  C8  UNL     1      25.570   2.918  50.260  1.00  0.00     0.037 A 
HETATM    2  C9  UNL     1      24.201   2.815  50.330  1.00  0.00     0.032 A 
HETATM    3  C10 UNL     1      23.515   1.984  51.189  1.00  0.00     0.035 A 
HETATM    4  C11 UNL     1      24.225   1.182  52.058  1.00  0.00     0.070 A 
HETATM    5  N4  UNL     1      23.605   0.363  52.907  1.00  0.00    -0.241 NA
HETATM    6  C12 UNL     1      24.337  -0.402  53.738  1.00  0.00     0.234 A 
HETATM    7  N5  UNL     1      25.678  -0.321  53.691  1.00  0.00    -0.245 NA
HETATM    8  C13 UNL     1      26.353   0.488  52.854  1.00  0.00     0.059 A 
HETATM    9  C18 UNL     1      25.600   1.271  52.003  1.00  0.00     0.020 A 
HETATM   10  C19 UNL     1      26.236   2.114  51.130  1.00  0.00     0.045 A 
ENDROOT
BRANCH   1  11
HETATM   11  N3  UNL     1      26.320   3.750  49.400  1.00  0.00    -0.309 N 
HETATM   12  C1  UNL     1      26.367   5.165  49.343  1.00  0.00     0.320 C 
HETATM   13  O1  UNL     1      25.671   5.840  50.140  1.00  0.00    -0.247 OA
HETATM   14  N1  UNL     1      27.155   5.902  48.440  1.00  0.00    -0.341 N 
HETATM   15  H1  UNL     1      27.755   5.360  47.752  1.00  0.00     0.164 HD
HETATM   16  H14 UNL     1      26.940   3.329  48.689  1.00  0.00     0.170 HD
BRANCH  14  17
HETATM   17  C2  UNL     1      27.193   7.347  48.398  1.00  0.00     0.154 C 
BRANCH  17  18
HETATM   18  C3  UNL     1      26.495   7.951  47.238  1.00  0.00     0.292 C 
BRANCH  18  19
HETATM   19  N2  UNL     1      25.675   9.084  47.522  1.00  0.00     0.094 N 
HETATM   20  C4  UNL     1      25.296   9.199  48.922  1.00  0.00     0.298 C 
HETATM   21  C5  UNL     1      23.870   8.698  49.085  1.00  0.00     0.198 C 
HETATM   22  O2  UNL     1      23.599   7.652  48.204  1.00  0.00    -0.388 OA
HETATM   23  C6  UNL     1      23.588   8.052  46.870  1.00  0.00     0.198 C 
HETATM   24  C7  UNL     1      24.513   9.235  46.732  1.00  0.00     0.298 C 
ENDBRANCH  18  19
ENDBRANCH  17  18
ENDBRANCH  14  17
ENDBRANCH   1  11
BRANCH   8  25
HETATM   25  C14 UNL     1      27.852   0.516  52.867  1.00  0.00     0.104 A 
HETATM   26  C15 UNL     1      28.460   1.206  54.030  1.00  0.00     0.048 A 
HETATM   27  C16 UNL     1      28.946  -0.099  54.524  1.00  0.00     0.013 A 
HETATM   28  C17 UNL     1      28.400  -0.699  53.486  1.00  0.00     0.100 A 
HETATM   29  F1  UNL     1      28.270  -1.966  52.977  1.00  0.00    -0.210 F 
ENDBRANCH   8  25
TORSDOF 5
ENDMDL
MODEL 9
REMARK VINA RESULT:      -7.3      2.898      4.889
REMARK  5 active torsions:
REMARK  status: ('A' for Active; 'I' for Inactive)
REMARK       I    between atoms: C1_2  and  N1_3 
REMARK       I    between atoms: C1_2  and  N3_12 
REMARK    1  A    between atoms: N1_3  and  C2_4 
REMARK    2  A    between atoms: C2_4  and  C3_5 
REMARK    3  A    between atoms: C3_5  and  N2_6 
REMARK    4  A    between atoms: N3_12  and  C8_13 
REMARK    5  A    between atoms: C13_20  and  C14_21 
ROOT
HETATM    1  C8  UNL     1      26.230   1.844  51.842  1.00  0.00     0.037 A 
HETATM    2  C9  UNL     1      27.302   1.705  52.692  1.00  0.00     0.032 A 
HETATM    3  C10 UNL     1      27.302   0.949  53.844  1.00  0.00     0.035 A 
HETATM    4  C11 UNL     1      26.157   0.269  54.201  1.00  0.00     0.070 A 
HETATM    5  N4  UNL     1      26.110  -0.475  55.307  1.00  0.00    -0.241 NA
HETATM    6  C12 UNL     1      24.972  -1.122  55.618  1.00  0.00     0.234 A 
HETATM    7  N5  UNL     1      23.908  -1.002  54.804  1.00  0.00    -0.245 NA
HETATM    8  C13 UNL     1      23.903  -0.266  53.678  1.00  0.00     0.059 A 
HETATM    9  C18 UNL     1      25.070   0.397  53.362  1.00  0.00     0.020 A 
HETATM   10  C19 UNL     1      25.120   1.161  52.226  1.00  0.00     0.045 A 
ENDROOT
BRANCH   1  11
HETATM   11  N3  UNL     1      26.178   2.605  50.653  1.00  0.00    -0.309 N 
HETATM   12  C1  UNL     1      25.471   3.804  50.389  1.00  0.00     0.320 C 
HETATM   13  O1  UNL     1      24.773   4.322  51.293  1.00  0.00    -0.247 OA
HETATM   14  N1  UNL     1      25.487   4.486  49.158  1.00  0.00    -0.341 N 
HETATM   15  H1  UNL     1      26.069   4.072  48.372  1.00  0.00     0.164 HD
HETATM   16  H14 UNL     1      26.707   2.295  49.822  1.00  0.00     0.170 HD
BRANCH  14  17
HETATM   17  C2  UNL     1      24.762   5.711  48.907  1.00  0.00     0.154 C 
BRANCH  17  18
HETATM   18  C3  UNL     1      23.444   5.526  48.252  1.00  0.00     0.292 C 
BRANCH  18  19
HETATM   19  N2  UNL     1      22.398   6.387  48.699  1.00  0.00     0.094 N 
HETATM   20  C4  UNL     1      22.555   6.840  50.072  1.00  0.00     0.298 C 
HETATM   21  C5  UNL     1      21.641   6.017  50.966  1.00  0.00     0.198 C 
HETATM   22  O2  UNL     1      21.525   4.709  50.500  1.00  0.00    -0.388 OA
HETATM   23  C6  UNL     1      20.853   4.621  49.282  1.00  0.00     0.198 C 
HETATM   24  C7  UNL     1      21.077   5.912  48.535  1.00  0.00     0.298 C 
ENDBRANCH  18  19
ENDBRANCH  17  18
ENDBRANCH  14  17
ENDBRANCH   1  11
BRANCH   8  25
HETATM   25  C14 UNL     1      22.670  -0.186  52.827  1.00  0.00     0.104 A 
HETATM   26  C15 UNL     1      21.490  -0.909  53.357  1.00  0.00     0.048 A 
HETATM   27  C16 UNL     1      20.832   0.389  53.609  1.00  0.00     0.013 A 
HETATM   28  C17 UNL     1      21.888   1.020  53.137  1.00  0.00     0.100 A 
HETATM   29  F1  UNL     1      22.312   2.306  52.922  1.00  0.00    -0.210 F 
ENDBRANCH   8  25
TORSDOF 5
ENDMDL
