MODEL 1
REMARK VINA RESULT:      -7.6      0.000      0.000
REMARK  0 active torsions:
REMARK  status: ('A' for Active; 'I' for Inactive)
ROOT
HETATM    1  C1  UNL     1      32.478   4.206  46.211  1.00  0.00    -0.015 C 
HETATM    2  C2  UNL     1      33.024   4.276  47.364  1.00  0.00     0.005 C 
HETATM    3  C3  UNL     1      32.194   5.480  47.801  1.00  0.00     0.108 C 
HETATM    4  C4  UNL     1      33.163   6.389  48.397  1.00  0.00     0.065 C 
HETATM    5  O1  UNL     1      32.395   7.743  48.779  1.00  0.00    -0.311 OA
HETATM    6  C5  UNL     1      31.997   7.933  47.346  1.00  0.00     0.257 A 
HETATM    7  N1  UNL     1      30.685   8.010  47.287  1.00  0.00    -0.234 NA
HETATM    8  C6  UNL     1      30.117   8.022  46.026  1.00  0.00     0.228 A 
HETATM    9  N2  UNL     1      31.252   7.922  45.217  1.00  0.00    -0.239 NA
HETATM   10  C7  UNL     1      32.366   7.886  45.968  1.00  0.00     0.235 A 
HETATM   11  C8  UNL     1      33.277   7.865  46.777  1.00  0.00     0.103 A 
HETATM   12  N3  UNL     1      34.650   7.918  46.836  1.00  0.00    -0.384 N 
HETATM   13  C9  UNL     1      35.248   7.794  48.278  1.00  0.00     0.162 C 
HETATM   14  C10 UNL     1      34.702   6.399  48.718  1.00  0.00     0.004 C 
HETATM   15  C11 UNL     1      35.488   5.422  49.132  1.00  0.00     0.094 C 
HETATM   16  N4  UNL     1      35.087   4.084  48.683  1.00  0.00    -0.398 N 
HETATM   17  C12 UNL     1      34.116   3.359  47.837  1.00  0.00     0.129 C 
HETATM   18  N5  UNL     1      32.928   6.609  45.345  1.00  0.00    -0.318 N 
HETATM   19  C13 UNL     1      33.658   7.030  44.226  1.00  0.00     0.094 A 
HETATM   20  C14 UNL     1      34.324   6.337  43.318  1.00  0.00     0.017 A 
HETATM   21  C15 UNL     1      34.376   4.889  43.391  1.00  0.00     0.004 A 
HETATM   22  C16 UNL     1      33.711   4.396  44.417  1.00  0.00     0.030 A 
HETATM   23  C17 UNL     1      32.999   5.192  45.382  1.00  0.00     0.044 A 
HETATM   24  H3  UNL     1      35.012   8.037  45.879  1.00  0.00     0.159 HD
HETATM   25  H7  UNL     1      35.818   3.512  49.200  1.00  0.00     0.158 HD
ENDROOT
TORSDOF 0
ENDMDL
MODEL 2
REMARK VINA RESULT:      -7.4      1.816      3.366
REMARK  0 active torsions:
REMARK  status: ('A' for Active; 'I' for Inactive)
ROOT
HETATM    1  C1  UNL     1      32.670   6.799  44.913  1.00  0.00    -0.015 C 
HETATM    2  C2  UNL     1      33.141   5.611  44.936  1.00  0.00     0.005 C 
HETATM    3  C3  UNL     1      32.193   5.143  46.036  1.00  0.00     0.108 C 
HETATM    4  C4  UNL     1      33.049   4.422  46.968  1.00  0.00     0.065 C 
HETATM    5  O1  UNL     1      32.153   3.994  48.227  1.00  0.00    -0.311 OA
HETATM    6  C5  UNL     1      31.826   5.432  48.495  1.00  0.00     0.257 A 
HETATM    7  N1  UNL     1      30.517   5.569  48.476  1.00  0.00    -0.234 NA
HETATM    8  C6  UNL     1      30.024   6.860  48.541  1.00  0.00     0.228 A 
HETATM    9  N2  UNL     1      31.208   7.600  48.591  1.00  0.00    -0.239 NA
HETATM   10  C7  UNL     1      32.276   6.783  48.581  1.00  0.00     0.235 A 
HETATM   11  C8  UNL     1      33.138   5.922  48.568  1.00  0.00     0.103 A 
HETATM   12  N3  UNL     1      34.496   5.772  48.721  1.00  0.00    -0.384 N 
HETATM   13  C9  UNL     1      35.018   4.307  48.533  1.00  0.00     0.162 C 
HETATM   14  C10 UNL     1      34.561   4.004  47.071  1.00  0.00     0.004 C 
HETATM   15  C11 UNL     1      35.398   3.612  46.127  1.00  0.00     0.094 C 
HETATM   16  N4  UNL     1      35.133   4.181  44.801  1.00  0.00    -0.398 N 
HETATM   17  C12 UNL     1      34.275   5.137  44.071  1.00  0.00     0.129 C 
HETATM   18  N5  UNL     1      32.975   7.460  47.403  1.00  0.00    -0.318 N 
HETATM   19  C13 UNL     1      33.731   8.497  47.962  1.00  0.00     0.094 A 
HETATM   20  C14 UNL     1      34.504   9.407  47.394  1.00  0.00     0.017 A 
HETATM   21  C15 UNL     1      34.668   9.435  45.952  1.00  0.00     0.004 A 
HETATM   22  C16 UNL     1      33.986   8.493  45.333  1.00  0.00     0.030 A 
HETATM   23  C17 UNL     1      33.157   7.520  45.996  1.00  0.00     0.044 A 
HETATM   24  H3  UNL     1      34.902   6.692  48.940  1.00  0.00     0.159 HD
HETATM   25  H7  UNL     1      35.877   3.660  44.248  1.00  0.00     0.158 HD
ENDROOT
TORSDOF 0
ENDMDL
MODEL 3
REMARK VINA RESULT:      -7.1     10.688     12.553
REMARK  0 active torsions:
REMARK  status: ('A' for Active; 'I' for Inactive)
ROOT
HETATM    1  C1  UNL     1      23.693   3.026  49.122  1.00  0.00    -0.015 C 
HETATM    2  C2  UNL     1      22.482   2.829  48.764  1.00  0.00     0.005 C 
HETATM    3  C3  UNL     1      22.087   4.295  48.919  1.00  0.00     0.108 C 
HETATM    4  C4  UNL     1      20.823   4.255  49.641  1.00  0.00     0.065 C 
HETATM    5  O1  UNL     1      20.389   5.765  49.957  1.00  0.00    -0.311 OA
HETATM    6  C5  UNL     1      21.662   5.982  50.718  1.00  0.00     0.257 A 
HETATM    7  N1  UNL     1      22.300   6.999  50.179  1.00  0.00    -0.234 NA
HETATM    8  C6  UNL     1      23.578   7.250  50.643  1.00  0.00     0.228 A 
HETATM    9  N2  UNL     1      23.732   6.227  51.582  1.00  0.00    -0.239 NA
HETATM   10  C7  UNL     1      22.615   5.482  51.655  1.00  0.00     0.235 A 
HETATM   11  C8  UNL     1      21.543   4.905  51.610  1.00  0.00     0.103 A 
HETATM   12  N3  UNL     1      20.830   3.929  52.264  1.00  0.00    -0.384 N 
HETATM   13  C9  UNL     1      19.432   3.607  51.637  1.00  0.00     0.162 C 
HETATM   14  C10 UNL     1      19.837   3.163  50.196  1.00  0.00     0.004 C 
HETATM   15  C11 UNL     1      19.485   1.999  49.681  1.00  0.00     0.094 C 
HETATM   16  N4  UNL     1      20.518   1.358  48.860  1.00  0.00    -0.398 N 
HETATM   17  C12 UNL     1      21.918   1.484  48.402  1.00  0.00     0.129 C 
HETATM   18  N5  UNL     1      23.313   4.141  51.433  1.00  0.00    -0.318 N 
HETATM   19  C13 UNL     1      23.719   3.715  52.704  1.00  0.00     0.094 A 
HETATM   20  C14 UNL     1      24.385   2.638  53.083  1.00  0.00     0.017 A 
HETATM   21  C15 UNL     1      24.824   1.663  52.102  1.00  0.00     0.004 A 
HETATM   22  C16 UNL     1      24.489   1.980  50.868  1.00  0.00     0.030 A 
HETATM   23  C17 UNL     1      23.760   3.166  50.503  1.00  0.00     0.044 A 
HETATM   24  H3  UNL     1      21.387   3.602  53.067  1.00  0.00     0.159 HD
HETATM   25  H7  UNL     1      19.963   0.513  48.529  1.00  0.00     0.158 HD
ENDROOT
TORSDOF 0
ENDMDL
MODEL 4
REMARK VINA RESULT:      -7.1     10.487     11.976
REMARK  0 active torsions:
REMARK  status: ('A' for Active; 'I' for Inactive)
ROOT
HETATM    1  C1  UNL     1      21.001   1.504  51.536  1.00  0.00    -0.015 C 
HETATM    2  C2  UNL     1      21.802   1.048  52.422  1.00  0.00     0.005 C 
HETATM    3  C3  UNL     1      22.239   2.433  52.891  1.00  0.00     0.108 C 
HETATM    4  C4  UNL     1      23.690   2.343  52.979  1.00  0.00     0.065 C 
HETATM    5  O1  UNL     1      24.250   3.798  53.353  1.00  0.00    -0.311 OA
HETATM    6  C5  UNL     1      23.624   4.366  52.115  1.00  0.00     0.257 A 
HETATM    7  N1  UNL     1      22.810   5.337  52.471  1.00  0.00    -0.234 NA
HETATM    8  C6  UNL     1      22.013   5.879  51.479  1.00  0.00     0.228 A 
HETATM    9  N2  UNL     1      22.395   5.111  50.375  1.00  0.00    -0.239 NA
HETATM   10  C7  UNL     1      23.349   4.230  50.721  1.00  0.00     0.235 A 
HETATM   11  C8  UNL     1      24.204   3.494  51.183  1.00  0.00     0.103 A 
HETATM   12  N3  UNL     1      25.146   2.574  50.785  1.00  0.00    -0.384 N 
HETATM   13  C9  UNL     1      25.949   1.912  51.955  1.00  0.00     0.162 C 
HETATM   14  C10 UNL     1      24.800   1.248  52.778  1.00  0.00     0.004 C 
HETATM   15  C11 UNL     1      24.785  -0.039  53.076  1.00  0.00     0.094 C 
HETATM   16  N4  UNL     1      23.460  -0.664  53.015  1.00  0.00    -0.398 N 
HETATM   17  C12 UNL     1      22.046  -0.415  52.664  1.00  0.00     0.129 C 
HETATM   18  N5  UNL     1      22.626   3.000  50.176  1.00  0.00    -0.318 N 
HETATM   19  C13 UNL     1      22.993   2.917  48.827  1.00  0.00     0.094 A 
HETATM   20  C14 UNL     1      22.635   2.062  47.885  1.00  0.00     0.017 A 
HETATM   21  C15 UNL     1      21.708   0.986  48.182  1.00  0.00     0.004 A 
HETATM   22  C16 UNL     1      21.301   0.983  49.435  1.00  0.00     0.030 A 
HETATM   23  C17 UNL     1      21.719   1.937  50.428  1.00  0.00     0.044 A 
HETATM   24  H3  UNL     1      25.127   2.514  49.757  1.00  0.00     0.159 HD
HETATM   25  H7  UNL     1      23.722  -1.636  53.358  1.00  0.00     0.158 HD
ENDROOT
TORSDOF 0
ENDMDL
MODEL 5
REMARK VINA RESULT:      -7.0     10.061     12.386
REMARK  0 active torsions:
REMARK  status: ('A' for Active; 'I' for Inactive)
ROOT
HETATM    1  C1  UNL     1      22.281   1.642  48.929  1.00  0.00    -0.015 C 
HETATM    2  C2  UNL     1      21.785   2.753  48.536  1.00  0.00     0.005 C 
HETATM    3  C3  UNL     1      23.096   3.516  48.698  1.00  0.00     0.108 C 
HETATM    4  C4  UNL     1      22.718   4.743  49.385  1.00  0.00     0.065 C 
HETATM    5  O1  UNL     1      24.059   5.560  49.706  1.00  0.00    -0.311 OA
HETATM    6  C5  UNL     1      24.582   4.404  50.505  1.00  0.00     0.257 A 
HETATM    7  N1  UNL     1      25.739   4.039  49.995  1.00  0.00    -0.234 NA
HETATM    8  C6  UNL     1      26.304   2.880  50.496  1.00  0.00     0.228 A 
HETATM    9  N2  UNL     1      25.337   2.489  51.427  1.00  0.00    -0.239 NA
HETATM   10  C7  UNL     1      24.328   3.376  51.461  1.00  0.00     0.235 A 
HETATM   11  C8  UNL     1      23.495   4.262  51.380  1.00  0.00     0.103 A 
HETATM   12  N3  UNL     1      22.356   4.714  52.003  1.00  0.00    -0.384 N 
HETATM   13  C9  UNL     1      21.696   5.966  51.334  1.00  0.00     0.162 C 
HETATM   14  C10 UNL     1      21.398   5.427  49.899  1.00  0.00     0.004 C 
HETATM   15  C11 UNL     1      20.192   5.453  49.362  1.00  0.00     0.094 C 
HETATM   16  N4  UNL     1      19.855   4.271  48.561  1.00  0.00    -0.398 N 
HETATM   17  C12 UNL     1      20.347   2.942  48.143  1.00  0.00     0.129 C 
HETATM   18  N5  UNL     1      23.217   2.351  51.242  1.00  0.00    -0.318 N 
HETATM   19  C13 UNL     1      22.887   1.878  52.519  1.00  0.00     0.094 A 
HETATM   20  C14 UNL     1      22.012   0.965  52.902  1.00  0.00     0.017 A 
HETATM   21  C15 UNL     1      21.201   0.267  51.923  1.00  0.00     0.004 A 
HETATM   22  C16 UNL     1      21.443   0.644  50.684  1.00  0.00     0.030 A 
HETATM   23  C17 UNL     1      22.408   1.646  50.313  1.00  0.00     0.044 A 
HETATM   24  H3  UNL     1      22.170   4.110  52.816  1.00  0.00     0.159 HD
HETATM   25  H7  UNL     1      18.902   4.581  48.205  1.00  0.00     0.158 HD
ENDROOT
TORSDOF 0
ENDMDL
MODEL 6
REMARK VINA RESULT:      -6.8      3.039      5.885
REMARK  0 active torsions:
REMARK  status: ('A' for Active; 'I' for Inactive)
ROOT
HETATM    1  C1  UNL     1      29.257   8.252  45.319  1.00  0.00    -0.015 C 
HETATM    2  C2  UNL     1      30.036   9.228  45.591  1.00  0.00     0.005 C 
HETATM    3  C3  UNL     1      31.101   8.339  46.226  1.00  0.00     0.108 C 
HETATM    4  C4  UNL     1      31.455   9.025  47.461  1.00  0.00     0.065 C 
HETATM    5  O1  UNL     1      32.489   8.096  48.259  1.00  0.00    -0.311 OA
HETATM    6  C5  UNL     1      31.479   6.989  48.299  1.00  0.00     0.257 A 
HETATM    7  N1  UNL     1      32.009   5.924  47.737  1.00  0.00    -0.234 NA
HETATM    8  C6  UNL     1      31.171   4.844  47.531  1.00  0.00     0.228 A 
HETATM    9  N2  UNL     1      29.962   5.341  48.027  1.00  0.00    -0.239 NA
HETATM   10  C7  UNL     1      30.123   6.590  48.497  1.00  0.00     0.235 A 
HETATM   11  C8  UNL     1      30.424   7.707  48.881  1.00  0.00     0.103 A 
HETATM   12  N3  UNL     1      29.904   8.766  49.586  1.00  0.00    -0.384 N 
HETATM   13  C9  UNL     1      30.854  10.006  49.700  1.00  0.00     0.162 C 
HETATM   14  C10 UNL     1      31.076  10.362  48.196  1.00  0.00     0.004 C 
HETATM   15  C11 UNL     1      30.825  11.560  47.700  1.00  0.00     0.094 C 
HETATM   16  N4  UNL     1      30.236  11.553  46.356  1.00  0.00    -0.398 N 
HETATM   17  C12 UNL     1      29.720  10.666  45.292  1.00  0.00     0.129 C 
HETATM   18  N5  UNL     1      28.990   7.208  47.679  1.00  0.00    -0.318 N 
HETATM   19  C13 UNL     1      27.834   7.032  48.448  1.00  0.00     0.094 A 
HETATM   20  C14 UNL     1      26.576   7.355  48.204  1.00  0.00     0.017 A 
HETATM   21  C15 UNL     1      26.212   8.003  46.958  1.00  0.00     0.004 A 
HETATM   22  C16 UNL     1      27.240   8.209  46.160  1.00  0.00     0.030 A 
HETATM   23  C17 UNL     1      28.597   7.840  46.470  1.00  0.00     0.044 A 
HETATM   24  H3  UNL     1      28.959   8.511  49.907  1.00  0.00     0.159 HD
HETATM   25  H7  UNL     1      30.209  12.602  46.184  1.00  0.00     0.158 HD
ENDROOT
TORSDOF 0
ENDMDL
MODEL 7
REMARK VINA RESULT:      -6.7      9.830     11.960
REMARK  0 active torsions:
REMARK  status: ('A' for Active; 'I' for Inactive)
ROOT
HETATM    1  C1  UNL     1      24.160   4.959  48.762  1.00  0.00    -0.015 C 
HETATM    2  C2  UNL     1      24.662   3.966  49.391  1.00  0.00     0.005 C 
HETATM    3  C3  UNL     1      23.573   2.996  48.942  1.00  0.00     0.108 C 
HETATM    4  C4  UNL     1      23.198   2.287  50.157  1.00  0.00     0.065 C 
HETATM    5  O1  UNL     1      21.967   1.324  49.803  1.00  0.00    -0.311 OA
HETATM    6  C5  UNL     1      21.156   2.506  49.365  1.00  0.00     0.257 A 
HETATM    7  N1  UNL     1      20.781   2.312  48.118  1.00  0.00    -0.234 NA
HETATM    8  C6  UNL     1      20.159   3.371  47.482  1.00  0.00     0.228 A 
HETATM    9  N2  UNL     1      20.180   4.341  48.487  1.00  0.00    -0.239 NA
HETATM   10  C7  UNL     1      20.744   3.851  49.604  1.00  0.00     0.235 A 
HETATM   11  C8  UNL     1      21.272   3.269  50.536  1.00  0.00     0.103 A 
HETATM   12  N3  UNL     1      21.543   3.426  51.874  1.00  0.00    -0.384 N 
HETATM   13  C9  UNL     1      22.342   2.246  52.524  1.00  0.00     0.162 C 
HETATM   14  C10 UNL     1      23.645   2.248  51.664  1.00  0.00     0.004 C 
HETATM   15  C11 UNL     1      24.851   2.348  52.193  1.00  0.00     0.094 C 
HETATM   16  N4  UNL     1      25.789   3.171  51.422  1.00  0.00    -0.398 N 
HETATM   17  C12 UNL     1      25.903   4.044  50.235  1.00  0.00     0.129 C 
HETATM   18  N5  UNL     1      21.767   4.974  49.763  1.00  0.00    -0.318 N 
HETATM   19  C13 UNL     1      21.114   5.975  50.493  1.00  0.00     0.094 A 
HETATM   20  C14 UNL     1      21.528   7.168  50.885  1.00  0.00     0.017 A 
HETATM   21  C15 UNL     1      22.865   7.626  50.559  1.00  0.00     0.004 A 
HETATM   22  C16 UNL     1      23.560   6.748  49.865  1.00  0.00     0.030 A 
HETATM   23  C17 UNL     1      23.068   5.457  49.461  1.00  0.00     0.044 A 
HETATM   24  H3  UNL     1      21.144   4.324  52.183  1.00  0.00     0.159 HD
HETATM   25  H7  UNL     1      26.661   3.022  52.013  1.00  0.00     0.158 HD
ENDROOT
TORSDOF 0
ENDMDL
MODEL 8
REMARK VINA RESULT:      -6.7      8.734     10.622
REMARK  0 active torsions:
REMARK  status: ('A' for Active; 'I' for Inactive)
ROOT
HETATM    1  C1  UNL     1      25.625   4.660  48.951  1.00  0.00    -0.015 C 
HETATM    2  C2  UNL     1      25.337   3.750  49.802  1.00  0.00     0.005 C 
HETATM    3  C3  UNL     1      23.913   3.567  49.282  1.00  0.00     0.108 C 
HETATM    4  C4  UNL     1      23.090   3.543  50.483  1.00  0.00     0.065 C 
HETATM    5  O1  UNL     1      21.556   3.474  50.025  1.00  0.00    -0.311 OA
HETATM    6  C5  UNL     1      21.714   4.759  49.270  1.00  0.00     0.257 A 
HETATM    7  N1  UNL     1      21.388   4.544  48.013  1.00  0.00    -0.234 NA
HETATM    8  C6  UNL     1      21.626   5.574  47.122  1.00  0.00     0.228 A 
HETATM    9  N2  UNL     1      22.189   6.537  47.964  1.00  0.00    -0.239 NA
HETATM   10  C7  UNL     1      22.234   6.087  49.230  1.00  0.00     0.235 A 
HETATM   11  C8  UNL     1      22.207   5.546  50.321  1.00  0.00     0.103 A 
HETATM   12  N3  UNL     1      22.423   5.819  51.651  1.00  0.00    -0.384 N 
HETATM   13  C9  UNL     1      22.243   4.592  52.609  1.00  0.00     0.162 C 
HETATM   14  C10 UNL     1      23.305   3.600  52.040  1.00  0.00     0.004 C 
HETATM   15  C11 UNL     1      24.260   3.071  52.783  1.00  0.00     0.094 C 
HETATM   16  N4  UNL     1      25.558   2.944  52.111  1.00  0.00    -0.398 N 
HETATM   17  C12 UNL     1      26.282   3.257  50.861  1.00  0.00     0.129 C 
HETATM   18  N5  UNL     1      23.724   6.358  49.434  1.00  0.00    -0.318 N 
HETATM   19  C13 UNL     1      23.807   7.687  49.868  1.00  0.00     0.094 A 
HETATM   20  C14 UNL     1      24.856   8.435  50.165  1.00  0.00     0.017 A 
HETATM   21  C15 UNL     1      26.198   7.896  50.056  1.00  0.00     0.004 A 
HETATM   22  C16 UNL     1      26.223   6.643  49.648  1.00  0.00     0.030 A 
HETATM   23  C17 UNL     1      25.052   5.865  49.337  1.00  0.00     0.044 A 
HETATM   24  H3  UNL     1      22.664   6.815  51.744  1.00  0.00     0.159 HD
HETATM   25  H7  UNL     1      26.093   2.444  52.882  1.00  0.00     0.158 HD
ENDROOT
TORSDOF 0
ENDMDL
MODEL 9
REMARK VINA RESULT:      -6.6      8.659     11.219
REMARK  0 active torsions:
REMARK  status: ('A' for Active; 'I' for Inactive)
ROOT
HETATM    1  C1  UNL     1      23.955   6.862  48.926  1.00  0.00    -0.015 C 
HETATM    2  C2  UNL     1      23.023   6.567  48.102  1.00  0.00     0.005 C 
HETATM    3  C3  UNL     1      22.132   5.942  49.172  1.00  0.00     0.108 C 
HETATM    4  C4  UNL     1      21.678   4.692  48.577  1.00  0.00     0.065 C 
HETATM    5  O1  UNL     1      20.826   3.904  49.682  1.00  0.00    -0.311 OA
HETATM    6  C5  UNL     1      22.011   3.891  50.600  1.00  0.00     0.257 A 
HETATM    7  N1  UNL     1      21.665   4.468  51.731  1.00  0.00    -0.234 NA
HETATM    8  C6  UNL     1      22.675   4.698  52.648  1.00  0.00     0.228 A 
HETATM    9  N2  UNL     1      23.785   4.202  51.959  1.00  0.00    -0.239 NA
HETATM   10  C7  UNL     1      23.416   3.709  50.764  1.00  0.00     0.235 A 
HETATM   11  C8  UNL     1      22.932   3.303  49.722  1.00  0.00     0.103 A 
HETATM   12  N3  UNL     1      23.270   2.582  48.600  1.00  0.00    -0.384 N 
HETATM   13  C9  UNL     1      22.122   2.440  47.544  1.00  0.00     0.162 C 
HETATM   14  C10 UNL     1      21.828   3.936  47.207  1.00  0.00     0.004 C 
HETATM   15  C11 UNL     1      21.866   4.412  45.975  1.00  0.00     0.094 C 
HETATM   16  N4  UNL     1      22.435   5.759  45.859  1.00  0.00    -0.398 N 
HETATM   17  C12 UNL     1      23.085   6.842  46.626  1.00  0.00     0.129 C 
HETATM   18  N5  UNL     1      24.419   4.523  49.948  1.00  0.00    -0.318 N 
HETATM   19  C13 UNL     1      25.596   3.764  49.935  1.00  0.00     0.094 A 
HETATM   20  C14 UNL     1      26.778   4.011  49.397  1.00  0.00     0.017 A 
HETATM   21  C15 UNL     1      27.013   5.247  48.675  1.00  0.00     0.004 A 
HETATM   22  C16 UNL     1      25.957   6.034  48.635  1.00  0.00     0.030 A 
HETATM   23  C17 UNL     1      24.687   5.722  49.237  1.00  0.00     0.044 A 
HETATM   24  H3  UNL     1      24.247   2.271  48.695  1.00  0.00     0.159 HD
HETATM   25  H7  UNL     1      22.279   5.913  44.819  1.00  0.00     0.158 HD
ENDROOT
TORSDOF 0
ENDMDL
