MODEL 1
REMARK VINA RESULT:      -8.1      0.000      0.000
REMARK  5 active torsions:
REMARK  status: ('A' for Active; 'I' for Inactive)
REMARK    1  A    between atoms: C3_3  and  C4_4 
REMARK    2  A    between atoms: C8_11  and  N3_12 
REMARK    3  A    between atoms: C11_16  and  C12_18 
REMARK    4  A    between atoms: C13_19  and  C14_20 
REMARK    5  A    between atoms: C14_20  and  N5_21 
ROOT
HETATM    1  C1  UNL     1      27.699  -0.632  53.385  1.00  0.00     0.046 C 
HETATM    2  C2  UNL     1      26.483   0.189  53.293  1.00  0.00    -0.048 C 
HETATM    3  C3  UNL     1      26.877   1.454  53.083  1.00  0.00     0.041 C 
HETATM    4  N1  UNL     1      25.737   2.349  52.968  1.00  0.00    -0.352 N 
HETATM    5  C5  UNL     1      24.660   2.929  52.180  1.00  0.00     0.208 C 
HETATM    6  N2  UNL     1      23.566   2.349  52.469  1.00  0.00    -0.243 NA
HETATM    7  C6  UNL     1      22.276   2.520  52.013  1.00  0.00     0.072 A 
HETATM    8  C7  UNL     1      21.796   3.417  51.092  1.00  0.00     0.062 A 
HETATM    9  C8  UNL     1      20.454   3.373  50.796  1.00  0.00     0.066 A 
HETATM   10  C9  UNL     1      19.525   2.513  51.333  1.00  0.00     0.208 A 
HETATM   11  N4  UNL     1      18.175   2.618  50.890  1.00  0.00    -0.325 N 
HETATM   12  C10 UNL     1      17.707   1.819  49.775  1.00  0.00     0.155 C 
HETATM   13  C11 UNL     1      17.414   3.548  51.637  1.00  0.00     0.145 A 
HETATM   14  O1  UNL     1      18.586   3.543  52.086  1.00  0.00    -0.294 OA
HETATM   15  C17 UNL     1      20.028   1.621  52.258  1.00  0.00     0.057 A 
HETATM   16  C18 UNL     1      21.372   1.638  52.577  1.00  0.00     0.023 A 
HETATM   17  C19 UNL     1      21.689   0.599  53.584  1.00  0.00     0.195 C 
HETATM   18  N6  UNL     1      22.768   0.181  53.420  1.00  0.00    -0.433 NA
HETATM   19  C20 UNL     1      23.937  -0.480  53.482  1.00  0.00     0.164 C 
HETATM   20  C21 UNL     1      25.276  -0.641  53.461  1.00  0.00     0.082 C 
HETATM   21  H6  UNL     1      25.736   2.726  53.941  1.00  0.00     0.166 HD
ENDROOT
BRANCH   9  22
HETATM   22  N3  UNL     1      20.038   4.332  49.844  1.00  0.00    -0.398 N 
HETATM   23  H9  UNL     1      20.385   3.899  48.954  1.00  0.00     0.156 HD
HETATM   24  H10 UNL     1      19.629   5.165  49.396  1.00  0.00     0.156 HD
ENDBRANCH   9  22
BRANCH  13  25
HETATM   25  C12 UNL     1      16.242   4.305  52.032  1.00  0.00     0.053 C 
HETATM   26  C13 UNL     1      15.080   3.923  52.525  1.00  0.00     0.007 C 
BRANCH  26  27
HETATM   27  C14 UNL     1      14.544   2.583  52.855  1.00  0.00     0.299 C 
BRANCH  27  28
HETATM   28  N5  UNL     1      13.136   2.698  53.235  1.00  0.00     0.083 N 
HETATM   29  C15 UNL     1      12.714   1.568  54.019  1.00  0.00     0.309 C 
HETATM   30  C16 UNL     1      12.914   3.960  53.904  1.00  0.00     0.309 C 
ENDBRANCH  27  28
ENDBRANCH  26  27
ENDBRANCH  13  25
BRANCH   3  31
HETATM   31  C4  UNL     1      28.125   2.188  52.931  1.00  0.00     0.279 C 
HETATM   32  F1  UNL     1      28.545   2.884  54.029  1.00  0.00    -0.249 F 
ENDBRANCH   3  31
TORSDOF 5
ENDMDL
MODEL 2
REMARK VINA RESULT:      -8.1      5.059      9.609
REMARK  5 active torsions:
REMARK  status: ('A' for Active; 'I' for Inactive)
REMARK    1  A    between atoms: C3_3  and  C4_4 
REMARK    2  A    between atoms: C8_11  and  N3_12 
REMARK    3  A    between atoms: C11_16  and  C12_18 
REMARK    4  A    between atoms: C13_19  and  C14_20 
REMARK    5  A    between atoms: C14_20  and  N5_21 
ROOT
HETATM    1  C1  UNL     1      19.553  -0.395  53.158  1.00  0.00     0.046 C 
HETATM    2  C2  UNL     1      20.607   0.613  52.981  1.00  0.00    -0.048 C 
HETATM    3  C3  UNL     1      21.763   0.045  53.359  1.00  0.00     0.041 C 
HETATM    4  N1  UNL     1      22.877   0.969  53.211  1.00  0.00    -0.352 N 
HETATM    5  C5  UNL     1      23.879   1.617  52.379  1.00  0.00     0.208 C 
HETATM    6  N2  UNL     1      23.490   2.793  52.090  1.00  0.00    -0.243 NA
HETATM    7  C6  UNL     1      24.060   3.801  51.342  1.00  0.00     0.072 A 
HETATM    8  C7  UNL     1      25.267   3.817  50.689  1.00  0.00     0.062 A 
HETATM    9  C8  UNL     1      25.602   4.954  49.992  1.00  0.00     0.066 A 
HETATM   10  C9  UNL     1      24.845   6.096  49.877  1.00  0.00     0.208 A 
HETATM   11  N4  UNL     1      25.363   7.171  49.099  1.00  0.00    -0.325 N 
HETATM   12  C10 UNL     1      25.043   7.274  47.688  1.00  0.00     0.155 C 
HETATM   13  C11 UNL     1      26.177   8.057  49.843  1.00  0.00     0.145 A 
HETATM   14  O1  UNL     1      25.790   7.138  50.605  1.00  0.00    -0.294 OA
HETATM   15  C17 UNL     1      23.637   6.059  50.541  1.00  0.00     0.057 A 
HETATM   16  C18 UNL     1      23.270   4.932  51.250  1.00  0.00     0.023 A 
HETATM   17  C19 UNL     1      21.940   5.112  51.878  1.00  0.00     0.195 C 
HETATM   18  N6  UNL     1      21.365   4.096  51.926  1.00  0.00    -0.433 NA
HETATM   19  C20 UNL     1      20.479   3.104  52.117  1.00  0.00     0.164 C 
HETATM   20  C21 UNL     1      20.046   1.874  52.462  1.00  0.00     0.082 C 
HETATM   21  H6  UNL     1      22.946   1.289  54.202  1.00  0.00     0.166 HD
ENDROOT
BRANCH   9  22
HETATM   22  N3  UNL     1      26.862   4.894  49.354  1.00  0.00    -0.398 N 
HETATM   23  H9  UNL     1      26.860   5.792  48.814  1.00  0.00     0.156 HD
HETATM   24  H10 UNL     1      27.795   4.590  49.037  1.00  0.00     0.156 HD
ENDBRANCH   9  22
BRANCH  13  25
HETATM   25  C12 UNL     1      27.022   9.210  50.088  1.00  0.00     0.053 C 
HETATM   26  C13 UNL     1      28.270   9.466  49.748  1.00  0.00     0.007 C 
BRANCH  26  27
HETATM   27  C14 UNL     1      29.266   8.673  48.993  1.00  0.00     0.299 C 
BRANCH  27  28
HETATM   28  N5  UNL     1      30.612   9.160  49.296  1.00  0.00     0.083 N 
HETATM   29  C15 UNL     1      31.600   8.499  48.487  1.00  0.00     0.309 C 
HETATM   30  C16 UNL     1      30.650  10.599  49.166  1.00  0.00     0.309 C 
ENDBRANCH  27  28
ENDBRANCH  26  27
ENDBRANCH  13  25
BRANCH   3  31
HETATM   31  C4  UNL     1      22.222  -1.238  53.871  1.00  0.00     0.279 C 
HETATM   32  F1  UNL     1      22.281  -1.350  55.231  1.00  0.00    -0.249 F 
ENDBRANCH   3  31
TORSDOF 5
ENDMDL
MODEL 3
REMARK VINA RESULT:      -8.1      6.076      9.267
REMARK  5 active torsions:
REMARK  status: ('A' for Active; 'I' for Inactive)
REMARK    1  A    between atoms: C3_3  and  C4_4 
REMARK    2  A    between atoms: C8_11  and  N3_12 
REMARK    3  A    between atoms: C11_16  and  C12_18 
REMARK    4  A    between atoms: C13_19  and  C14_20 
REMARK    5  A    between atoms: C14_20  and  N5_21 
ROOT
HETATM    1  C1  UNL     1      29.743  10.887  46.501  1.00  0.00     0.046 C 
HETATM    2  C2  UNL     1      29.062   9.994  47.450  1.00  0.00    -0.048 C 
HETATM    3  C3  UNL     1      28.833  10.705  48.565  1.00  0.00     0.041 C 
HETATM    4  N1  UNL     1      28.150   9.905  49.569  1.00  0.00    -0.352 N 
HETATM    5  C5  UNL     1      26.928   9.330  50.110  1.00  0.00     0.208 C 
HETATM    6  N2  UNL     1      26.854   8.105  49.776  1.00  0.00    -0.243 NA
HETATM    7  C6  UNL     1      25.913   7.130  50.028  1.00  0.00     0.072 A 
HETATM    8  C7  UNL     1      24.754   7.214  50.758  1.00  0.00     0.062 A 
HETATM    9  C8  UNL     1      23.970   6.088  50.846  1.00  0.00     0.066 A 
HETATM   10  C9  UNL     1      24.228   4.865  50.274  1.00  0.00     0.208 A 
HETATM   11  N4  UNL     1      23.285   3.815  50.475  1.00  0.00    -0.325 N 
HETATM   12  C10 UNL     1      22.211   3.607  49.524  1.00  0.00     0.155 C 
HETATM   13  C11 UNL     1      23.528   3.064  51.648  1.00  0.00     0.145 A 
HETATM   14  O1  UNL     1      24.391   3.972  51.572  1.00  0.00    -0.294 OA
HETATM   15  C17 UNL     1      25.399   4.801  49.547  1.00  0.00     0.057 A 
HETATM   16  C18 UNL     1      26.208   5.915  49.437  1.00  0.00     0.023 A 
HETATM   17  C19 UNL     1      27.404   5.620  48.614  1.00  0.00     0.195 C 
HETATM   18  N6  UNL     1      27.737   6.568  48.016  1.00  0.00    -0.433 NA
HETATM   19  C20 UNL     1      28.347   7.464  47.222  1.00  0.00     0.164 C 
HETATM   20  C21 UNL     1      28.872   8.654  46.865  1.00  0.00     0.082 C 
HETATM   21  H6  UNL     1      28.978   9.645  50.150  1.00  0.00     0.166 HD
ENDROOT
BRANCH   9  22
HETATM   22  N3  UNL     1      22.798   6.255  51.619  1.00  0.00    -0.398 N 
HETATM   23  H9  UNL     1      23.018   7.142  52.133  1.00  0.00     0.156 HD
HETATM   24  H10 UNL     1      21.867   6.124  52.041  1.00  0.00     0.156 HD
ENDBRANCH   9  22
BRANCH  13  25
HETATM   25  C12 UNL     1      23.318   2.026  52.639  1.00  0.00     0.053 C 
HETATM   26  C13 UNL     1      24.085   1.029  53.035  1.00  0.00     0.007 C 
BRANCH  26  27
HETATM   27  C14 UNL     1      25.440   0.604  52.617  1.00  0.00     0.299 C 
BRANCH  27  28
HETATM   28  N5  UNL     1      26.442   1.274  53.446  1.00  0.00     0.083 N 
HETATM   29  C15 UNL     1      27.140   0.335  54.281  1.00  0.00     0.309 C 
HETATM   30  C16 UNL     1      27.328   2.048  52.607  1.00  0.00     0.309 C 
ENDBRANCH  27  28
ENDBRANCH  26  27
ENDBRANCH  13  25
BRANCH   3  31
HETATM   31  C4  UNL     1      29.068  12.055  49.055  1.00  0.00     0.279 C 
HETATM   32  F1  UNL     1      30.332  12.314  49.506  1.00  0.00    -0.249 F 
ENDBRANCH   3  31
TORSDOF 5
ENDMDL
MODEL 4
REMARK VINA RESULT:      -7.7      5.863      9.058
REMARK  5 active torsions:
REMARK  status: ('A' for Active; 'I' for Inactive)
REMARK    1  A    between atoms: C3_3  and  C4_4 
REMARK    2  A    between atoms: C8_11  and  N3_12 
REMARK    3  A    between atoms: C11_16  and  C12_18 
REMARK    4  A    between atoms: C13_19  and  C14_20 
REMARK    5  A    between atoms: C14_20  and  N5_21 
ROOT
HETATM    1  C1  UNL     1      25.664  -1.172  53.607  1.00  0.00     0.046 C 
HETATM    2  C2  UNL     1      25.293   0.025  52.839  1.00  0.00    -0.048 C 
HETATM    3  C3  UNL     1      23.991   0.254  53.073  1.00  0.00     0.041 C 
HETATM    4  N1  UNL     1      23.528   1.433  52.357  1.00  0.00    -0.352 N 
HETATM    5  C5  UNL     1      23.399   2.878  52.253  1.00  0.00     0.208 C 
HETATM    6  N2  UNL     1      24.275   3.322  51.444  1.00  0.00    -0.243 NA
HETATM    7  C6  UNL     1      24.572   4.595  51.005  1.00  0.00     0.072 A 
HETATM    8  C7  UNL     1      23.963   5.783  51.321  1.00  0.00     0.062 A 
HETATM    9  C8  UNL     1      24.465   6.930  50.753  1.00  0.00     0.066 A 
HETATM   10  C9  UNL     1      25.529   7.016  49.886  1.00  0.00     0.208 A 
HETATM   11  N4  UNL     1      25.906   8.305  49.409  1.00  0.00    -0.325 N 
HETATM   12  C10 UNL     1      26.908   9.080  50.113  1.00  0.00     0.155 C 
HETATM   13  C11 UNL     1      25.212   8.691  48.239  1.00  0.00     0.145 A 
HETATM   14  O1  UNL     1      24.798   7.560  48.591  1.00  0.00    -0.294 OA
HETATM   15  C17 UNL     1      26.126   5.810  49.580  1.00  0.00     0.057 A 
HETATM   16  C18 UNL     1      25.646   4.640  50.135  1.00  0.00     0.023 A 
HETATM   17  C19 UNL     1      26.434   3.474  49.672  1.00  0.00     0.195 C 
HETATM   18  N6  UNL     1      26.493   2.657  50.506  1.00  0.00    -0.433 NA
HETATM   19  C20 UNL     1      26.731   1.563  51.248  1.00  0.00     0.164 C 
HETATM   20  C21 UNL     1      26.451   0.548  52.092  1.00  0.00     0.082 C 
HETATM   21  H6  UNL     1      23.088   0.956  51.540  1.00  0.00     0.166 HD
ENDROOT
BRANCH   9  22
HETATM   22  N3  UNL     1      23.780   8.110  51.125  1.00  0.00    -0.398 N 
HETATM   23  H9  UNL     1      22.804   7.749  51.247  1.00  0.00     0.156 HD
HETATM   24  H10 UNL     1      23.555   9.087  51.365  1.00  0.00     0.156 HD
ENDBRANCH   9  22
BRANCH  13  25
HETATM   25  C12 UNL     1      24.844   9.539  47.122  1.00  0.00     0.053 C 
HETATM   26  C13 UNL     1      25.463  10.557  46.557  1.00  0.00     0.007 C 
BRANCH  26  27
HETATM   27  C14 UNL     1      26.759  11.208  46.853  1.00  0.00     0.299 C 
BRANCH  27  28
HETATM   28  N5  UNL     1      26.630  12.030  48.057  1.00  0.00     0.083 N 
HETATM   29  C15 UNL     1      27.916  12.468  48.528  1.00  0.00     0.309 C 
HETATM   30  C16 UNL     1      25.721  13.124  47.805  1.00  0.00     0.309 C 
ENDBRANCH  27  28
ENDBRANCH  26  27
ENDBRANCH  13  25
BRANCH   3  31
HETATM   31  C4  UNL     1      22.909  -0.338  53.844  1.00  0.00     0.279 C 
HETATM   32  F1  UNL     1      22.327  -1.448  53.301  1.00  0.00    -0.249 F 
ENDBRANCH   3  31
TORSDOF 5
ENDMDL
MODEL 5
REMARK VINA RESULT:      -7.5      2.105      3.351
REMARK  5 active torsions:
REMARK  status: ('A' for Active; 'I' for Inactive)
REMARK    1  A    between atoms: C3_3  and  C4_4 
REMARK    2  A    between atoms: C8_11  and  N3_12 
REMARK    3  A    between atoms: C11_16  and  C12_18 
REMARK    4  A    between atoms: C13_19  and  C14_20 
REMARK    5  A    between atoms: C14_20  and  N5_21 
ROOT
HETATM    1  C1  UNL     1      28.663   2.365  53.468  1.00  0.00     0.046 C 
HETATM    2  C2  UNL     1      27.365   1.773  53.112  1.00  0.00    -0.048 C 
HETATM    3  C3  UNL     1      27.261   0.619  53.789  1.00  0.00     0.041 C 
HETATM    4  N1  UNL     1      25.997  -0.044  53.508  1.00  0.00    -0.352 N 
HETATM    5  C5  UNL     1      24.568  -0.190  53.740  1.00  0.00     0.208 C 
HETATM    6  N2  UNL     1      23.928   0.380  52.800  1.00  0.00    -0.243 NA
HETATM    7  C6  UNL     1      22.580   0.527  52.551  1.00  0.00     0.072 A 
HETATM    8  C7  UNL     1      21.511   0.061  53.275  1.00  0.00     0.062 A 
HETATM    9  C8  UNL     1      20.250   0.359  52.817  1.00  0.00     0.066 A 
HETATM   10  C9  UNL     1      19.938   1.086  51.692  1.00  0.00     0.208 A 
HETATM   11  N4  UNL     1      18.562   1.297  51.386  1.00  0.00    -0.325 N 
HETATM   12  C10 UNL     1      17.878   2.477  51.875  1.00  0.00     0.155 C 
HETATM   13  C11 UNL     1      18.001   0.264  50.599  1.00  0.00     0.145 A 
HETATM   14  O1  UNL     1      19.201  -0.022  50.833  1.00  0.00    -0.294 OA
HETATM   15  C17 UNL     1      21.026   1.543  50.979  1.00  0.00     0.057 A 
HETATM   16  C18 UNL     1      22.307   1.262  51.412  1.00  0.00     0.023 A 
HETATM   17  C19 UNL     1      23.315   1.850  50.500  1.00  0.00     0.195 C 
HETATM   18  N6  UNL     1      24.271   2.170  51.092  1.00  0.00    -0.433 NA
HETATM   19  C20 UNL     1      25.471   2.629  51.486  1.00  0.00     0.164 C 
HETATM   20  C21 UNL     1      26.642   2.630  52.155  1.00  0.00     0.082 C 
HETATM   21  H6  UNL     1      26.335  -0.728  52.796  1.00  0.00     0.166 HD
ENDROOT
BRANCH   9  22
HETATM   22  N3  UNL     1      19.204  -0.161  53.614  1.00  0.00    -0.398 N 
HETATM   23  H9  UNL     1      18.373   0.334  53.210  1.00  0.00     0.156 HD
HETATM   24  H10 UNL     1      18.670  -0.690  54.320  1.00  0.00     0.156 HD
ENDBRANCH   9  22
BRANCH  13  25
HETATM   25  C12 UNL     1      16.980  -0.441  49.850  1.00  0.00     0.053 C 
HETATM   26  C13 UNL     1      15.756  -0.812  50.177  1.00  0.00     0.007 C 
BRANCH  26  27
HETATM   27  C14 UNL     1      14.978  -0.645  51.425  1.00  0.00     0.299 C 
BRANCH  27  28
HETATM   28  N5  UNL     1      14.564   0.752  51.561  1.00  0.00     0.083 N 
HETATM   29  C15 UNL     1      13.365   1.014  50.812  1.00  0.00     0.309 C 
HETATM   30  C16 UNL     1      14.437   1.088  52.961  1.00  0.00     0.309 C 
ENDBRANCH  27  28
ENDBRANCH  26  27
ENDBRANCH  13  25
BRANCH   3  31
HETATM   31  C4  UNL     1      28.052  -0.160  54.731  1.00  0.00     0.279 C 
HETATM   32  F1  UNL     1      29.100  -0.855  54.197  1.00  0.00    -0.249 F 
ENDBRANCH   3  31
TORSDOF 5
ENDMDL
MODEL 6
REMARK VINA RESULT:      -7.4      6.844      9.738
REMARK  5 active torsions:
REMARK  status: ('A' for Active; 'I' for Inactive)
REMARK    1  A    between atoms: C3_3  and  C4_4 
REMARK    2  A    between atoms: C8_11  and  N3_12 
REMARK    3  A    between atoms: C11_16  and  C12_18 
REMARK    4  A    between atoms: C13_19  and  C14_20 
REMARK    5  A    between atoms: C14_20  and  N5_21 
ROOT
HETATM    1  C1  UNL     1      35.278   7.250  48.319  1.00  0.00     0.046 C 
HETATM    2  C2  UNL     1      33.855   6.993  48.056  1.00  0.00    -0.048 C 
HETATM    3  C3  UNL     1      33.770   5.772  47.506  1.00  0.00     0.041 C 
HETATM    4  N1  UNL     1      32.390   5.420  47.214  1.00  0.00    -0.352 N 
HETATM    5  C5  UNL     1      31.093   4.925  47.649  1.00  0.00     0.208 C 
HETATM    6  N2  UNL     1      30.303   5.907  47.821  1.00  0.00    -0.243 NA
HETATM    7  C6  UNL     1      28.985   5.979  48.222  1.00  0.00     0.072 A 
HETATM    8  C7  UNL     1      28.122   4.961  48.543  1.00  0.00     0.062 A 
HETATM    9  C8  UNL     1      26.848   5.302  48.931  1.00  0.00     0.066 A 
HETATM   10  C9  UNL     1      26.337   6.574  49.035  1.00  0.00     0.208 A 
HETATM   11  N4  UNL     1      24.987   6.725  49.466  1.00  0.00    -0.325 N 
HETATM   12  C10 UNL     1      24.684   6.899  50.873  1.00  0.00     0.155 C 
HETATM   13  C11 UNL     1      24.054   6.679  48.404  1.00  0.00     0.145 A 
HETATM   14  O1  UNL     1      25.204   6.517  47.929  1.00  0.00    -0.294 OA
HETATM   15  C17 UNL     1      27.220   7.582  48.707  1.00  0.00     0.057 A 
HETATM   16  C18 UNL     1      28.508   7.273  48.313  1.00  0.00     0.023 A 
HETATM   17  C19 UNL     1      29.278   8.503  48.012  1.00  0.00     0.195 C 
HETATM   18  N6  UNL     1      30.406   8.360  48.282  1.00  0.00    -0.433 NA
HETATM   19  C20 UNL     1      31.727   8.494  48.488  1.00  0.00     0.164 C 
HETATM   20  C21 UNL     1      33.029   8.140  48.475  1.00  0.00     0.082 C 
HETATM   21  H6  UNL     1      32.381   5.656  46.197  1.00  0.00     0.166 HD
ENDROOT
BRANCH   9  22
HETATM   22  N3  UNL     1      26.020   4.198  49.239  1.00  0.00    -0.398 N 
HETATM   23  H9  UNL     1      26.052   4.205  50.287  1.00  0.00     0.156 HD
HETATM   24  H10 UNL     1      25.397   3.380  49.164  1.00  0.00     0.156 HD
ENDBRANCH   9  22
BRANCH  13  25
HETATM   25  C12 UNL     1      22.753   6.718  47.765  1.00  0.00     0.053 C 
HETATM   26  C13 UNL     1      21.795   5.815  47.678  1.00  0.00     0.007 C 
BRANCH  26  27
HETATM   27  C14 UNL     1      21.695   4.434  48.200  1.00  0.00     0.299 C 
BRANCH  27  28
HETATM   28  N5  UNL     1      22.305   3.505  47.248  1.00  0.00     0.083 N 
HETATM   29  C15 UNL     1      22.199   2.146  47.706  1.00  0.00     0.309 C 
HETATM   30  C16 UNL     1      21.729   3.703  45.938  1.00  0.00     0.309 C 
ENDBRANCH  27  28
ENDBRANCH  26  27
ENDBRANCH  13  25
BRANCH   3  31
HETATM   31  C4  UNL     1      34.669   4.693  47.122  1.00  0.00     0.279 C 
HETATM   32  F1  UNL     1      35.050   3.849  48.126  1.00  0.00    -0.249 F 
ENDBRANCH   3  31
TORSDOF 5
ENDMDL
MODEL 7
REMARK VINA RESULT:      -7.4      1.862      2.072
REMARK  5 active torsions:
REMARK  status: ('A' for Active; 'I' for Inactive)
REMARK    1  A    between atoms: C3_3  and  C4_4 
REMARK    2  A    between atoms: C8_11  and  N3_12 
REMARK    3  A    between atoms: C11_16  and  C12_18 
REMARK    4  A    between atoms: C13_19  and  C14_20 
REMARK    5  A    between atoms: C14_20  and  N5_21 
ROOT
HETATM    1  C1  UNL     1      26.679  -0.589  53.152  1.00  0.00     0.046 C 
HETATM    2  C2  UNL     1      25.377   0.024  52.855  1.00  0.00    -0.048 C 
HETATM    3  C3  UNL     1      25.620   1.151  52.168  1.00  0.00     0.041 C 
HETATM    4  N1  UNL     1      24.384   1.832  51.818  1.00  0.00    -0.352 N 
HETATM    5  C5  UNL     1      23.223   1.978  50.953  1.00  0.00     0.208 C 
HETATM    6  N2  UNL     1      22.210   1.449  51.514  1.00  0.00    -0.243 NA
HETATM    7  C6  UNL     1      20.895   1.321  51.123  1.00  0.00     0.072 A 
HETATM    8  C7  UNL     1      20.286   1.765  49.975  1.00  0.00     0.062 A 
HETATM    9  C8  UNL     1      18.948   1.492  49.815  1.00  0.00     0.066 A 
HETATM   10  C9  UNL     1      18.140   0.813  50.695  1.00  0.00     0.208 A 
HETATM   11  N4  UNL     1      16.772   0.623  50.344  1.00  0.00    -0.325 N 
HETATM   12  C10 UNL     1      16.359  -0.572  49.636  1.00  0.00     0.155 C 
HETATM   13  C11 UNL     1      15.938   1.690  50.753  1.00  0.00     0.145 A 
HETATM   14  O1  UNL     1      17.118   1.958  51.086  1.00  0.00    -0.294 OA
HETATM   15  C17 UNL     1      18.771   0.377  51.842  1.00  0.00     0.057 A 
HETATM   16  C18 UNL     1      20.114   0.634  52.034  1.00  0.00     0.023 A 
HETATM   17  C19 UNL     1      20.580   0.076  53.325  1.00  0.00     0.195 C 
HETATM   18  N6  UNL     1      21.692  -0.273  53.247  1.00  0.00    -0.433 NA
HETATM   19  C20 UNL     1      22.929  -0.755  53.461  1.00  0.00     0.164 C 
HETATM   20  C21 UNL     1      24.276  -0.790  53.402  1.00  0.00     0.082 C 
HETATM   21  H6  UNL     1      24.375   2.542  52.583  1.00  0.00     0.166 HD
ENDROOT
BRANCH   9  22
HETATM   22  N3  UNL     1      18.396   1.987  48.611  1.00  0.00    -0.398 N 
HETATM   23  H9  UNL     1      18.714   1.260  47.926  1.00  0.00     0.156 HD
HETATM   24  H10 UNL     1      17.894   2.562  47.918  1.00  0.00     0.156 HD
ENDBRANCH   9  22
BRANCH  13  25
HETATM   25  C12 UNL     1      14.704   2.430  50.929  1.00  0.00     0.053 C 
HETATM   26  C13 UNL     1      13.777   2.374  51.866  1.00  0.00     0.007 C 
BRANCH  26  27
HETATM   27  C14 UNL     1      13.657   1.538  53.081  1.00  0.00     0.299 C 
BRANCH  27  28
HETATM   28  N5  UNL     1      12.343   1.746  53.691  1.00  0.00     0.083 N 
HETATM   29  C15 UNL     1      12.188   0.950  54.878  1.00  0.00     0.309 C 
HETATM   30  C16 UNL     1      12.136   3.157  53.930  1.00  0.00     0.309 C 
ENDBRANCH  27  28
ENDBRANCH  26  27
ENDBRANCH  13  25
BRANCH   3  31
HETATM   31  C4  UNL     1      26.773   1.887  51.668  1.00  0.00     0.279 C 
HETATM   32  F1  UNL     1      26.760   2.177  50.333  1.00  0.00    -0.249 F 
ENDBRANCH   3  31
TORSDOF 5
ENDMDL
MODEL 8
REMARK VINA RESULT:      -7.3      5.580      7.947
REMARK  5 active torsions:
REMARK  status: ('A' for Active; 'I' for Inactive)
REMARK    1  A    between atoms: C3_3  and  C4_4 
REMARK    2  A    between atoms: C8_11  and  N3_12 
REMARK    3  A    between atoms: C11_16  and  C12_18 
REMARK    4  A    between atoms: C13_19  and  C14_20 
REMARK    5  A    between atoms: C14_20  and  N5_21 
ROOT
HETATM    1  C1  UNL     1      30.732  10.067  47.496  1.00  0.00     0.046 C 
HETATM    2  C2  UNL     1      29.841   8.902  47.586  1.00  0.00    -0.048 C 
HETATM    3  C3  UNL     1      30.589   7.815  47.337  1.00  0.00     0.041 C 
HETATM    4  N1  UNL     1      29.792   6.600  47.411  1.00  0.00    -0.352 N 
HETATM    5  C5  UNL     1      29.160   5.549  48.194  1.00  0.00     0.208 C 
HETATM    6  N2  UNL     1      27.918   5.798  48.308  1.00  0.00    -0.243 NA
HETATM    7  C6  UNL     1      26.892   5.129  48.941  1.00  0.00     0.072 A 
HETATM    8  C7  UNL     1      26.931   3.947  49.638  1.00  0.00     0.062 A 
HETATM    9  C8  UNL     1      25.758   3.494  50.194  1.00  0.00     0.066 A 
HETATM   10  C9  UNL     1      24.529   4.107  50.124  1.00  0.00     0.208 A 
HETATM   11  N4  UNL     1      23.427   3.482  50.776  1.00  0.00    -0.325 N 
HETATM   12  C10 UNL     1      23.096   3.826  52.145  1.00  0.00     0.155 C 
HETATM   13  C11 UNL     1      22.753   2.545  49.958  1.00  0.00     0.145 A 
HETATM   14  O1  UNL     1      23.715   3.021  49.307  1.00  0.00    -0.294 OA
HETATM   15  C17 UNL     1      24.512   5.292  49.418  1.00  0.00     0.057 A 
HETATM   16  C18 UNL     1      25.673   5.775  48.848  1.00  0.00     0.023 A 
HETATM   17  C19 UNL     1      25.424   7.054  48.143  1.00  0.00     0.195 C 
HETATM   18  N6  UNL     1      26.362   7.749  48.204  1.00  0.00    -0.433 NA
HETATM   19  C20 UNL     1      27.258   8.746  48.107  1.00  0.00     0.164 C 
HETATM   20  C21 UNL     1      28.464   9.318  47.908  1.00  0.00     0.082 C 
HETATM   21  H6  UNL     1      29.621   6.465  46.391  1.00  0.00     0.166 HD
ENDROOT
BRANCH   9  22
HETATM   22  N3  UNL     1      25.880   2.270  50.890  1.00  0.00    -0.398 N 
HETATM   23  H9  UNL     1      25.787   1.580  50.106  1.00  0.00     0.156 HD
HETATM   24  H10 UNL     1      25.998   1.562  51.631  1.00  0.00     0.156 HD
ENDBRANCH   9  22
BRANCH  13  25
HETATM   25  C12 UNL     1      21.754   1.557  49.600  1.00  0.00     0.053 C 
HETATM   26  C13 UNL     1      21.196   0.586  50.298  1.00  0.00     0.007 C 
BRANCH  26  27
HETATM   27  C14 UNL     1      21.386   0.148  51.699  1.00  0.00     0.299 C 
BRANCH  27  28
HETATM   28  N5  UNL     1      20.209   0.512  52.490  1.00  0.00     0.083 N 
HETATM   29  C15 UNL     1      19.016  -0.083  51.951  1.00  0.00     0.309 C 
HETATM   30  C16 UNL     1      20.430   0.170  53.876  1.00  0.00     0.309 C 
ENDBRANCH  27  28
ENDBRANCH  26  27
ENDBRANCH  13  25
BRANCH   3  31
HETATM   31  C4  UNL     1      31.975   7.504  47.020  1.00  0.00     0.279 C 
HETATM   32  F1  UNL     1      32.371   6.222  47.275  1.00  0.00    -0.249 F 
ENDBRANCH   3  31
TORSDOF 5
ENDMDL
MODEL 9
REMARK VINA RESULT:      -7.3      5.497      9.564
REMARK  5 active torsions:
REMARK  status: ('A' for Active; 'I' for Inactive)
REMARK    1  A    between atoms: C3_3  and  C4_4 
REMARK    2  A    between atoms: C8_11  and  N3_12 
REMARK    3  A    between atoms: C11_16  and  C12_18 
REMARK    4  A    between atoms: C13_19  and  C14_20 
REMARK    5  A    between atoms: C14_20  and  N5_21 
ROOT
HETATM    1  C1  UNL     1      22.977  -0.839  53.264  1.00  0.00     0.046 C 
HETATM    2  C2  UNL     1      23.679   0.389  52.864  1.00  0.00    -0.048 C 
HETATM    3  C3  UNL     1      24.994   0.137  52.952  1.00  0.00     0.041 C 
HETATM    4  N1  UNL     1      25.779   1.299  52.565  1.00  0.00    -0.352 N 
HETATM    5  C5  UNL     1      26.370   2.138  51.533  1.00  0.00     0.208 C 
HETATM    6  N2  UNL     1      25.645   3.170  51.364  1.00  0.00    -0.243 NA
HETATM    7  C6  UNL     1      25.760   4.256  50.522  1.00  0.00     0.072 A 
HETATM    8  C7  UNL     1      26.742   4.541  49.606  1.00  0.00     0.062 A 
HETATM    9  C8  UNL     1      26.615   5.695  48.871  1.00  0.00     0.066 A 
HETATM   10  C9  UNL     1      25.593   6.611  48.956  1.00  0.00     0.208 A 
HETATM   11  N4  UNL     1      25.634   7.748  48.097  1.00  0.00    -0.325 N 
HETATM   12  C10 UNL     1      24.983   7.711  46.803  1.00  0.00     0.155 C 
HETATM   13  C11 UNL     1      26.352   8.836  48.647  1.00  0.00     0.145 A 
HETATM   14  O1  UNL     1      26.391   7.882  49.462  1.00  0.00    -0.294 OA
HETATM   15  C17 UNL     1      24.617   6.306  49.882  1.00  0.00     0.057 A 
HETATM   16  C18 UNL     1      24.715   5.154  50.637  1.00  0.00     0.023 A 
HETATM   17  C19 UNL     1      23.564   5.028  51.561  1.00  0.00     0.195 C 
HETATM   18  N6  UNL     1      23.286   3.905  51.724  1.00  0.00    -0.433 NA
HETATM   19  C20 UNL     1      22.741   2.735  52.099  1.00  0.00     0.164 C 
HETATM   20  C21 UNL     1      22.718   1.452  52.513  1.00  0.00     0.082 C 
HETATM   21  H6  UNL     1      25.993   1.666  53.518  1.00  0.00     0.166 HD
ENDROOT
BRANCH   9  22
HETATM   22  N3  UNL     1      27.668   5.919  47.955  1.00  0.00    -0.398 N 
HETATM   23  H9  UNL     1      28.475   5.481  48.461  1.00  0.00     0.156 HD
HETATM   24  H10 UNL     1      28.215   6.210  47.131  1.00  0.00     0.156 HD
ENDBRANCH   9  22
BRANCH  13  25
HETATM   25  C12 UNL     1      26.918  10.169  48.709  1.00  0.00     0.053 C 
HETATM   26  C13 UNL     1      28.130  10.590  49.015  1.00  0.00     0.007 C 
BRANCH  26  27
HETATM   27  C14 UNL     1      29.356   9.859  49.406  1.00  0.00     0.299 C 
BRANCH  27  28
HETATM   28  N5  UNL     1      29.879   9.127  48.252  1.00  0.00     0.083 N 
HETATM   29  C15 UNL     1      30.669   9.982  47.408  1.00  0.00     0.309 C 
HETATM   30  C16 UNL     1      30.602   7.960  48.703  1.00  0.00     0.309 C 
ENDBRANCH  27  28
ENDBRANCH  26  27
ENDBRANCH  13  25
BRANCH   3  31
HETATM   31  C4  UNL     1      25.862  -0.972  53.320  1.00  0.00     0.279 C 
HETATM   32  F1  UNL     1      26.383  -1.690  52.282  1.00  0.00    -0.249 F 
ENDBRANCH   3  31
TORSDOF 5
ENDMDL
