MODEL 1
REMARK VINA RESULT:      -7.3      0.000      0.000
REMARK  6 active torsions:
REMARK  status: ('A' for Active; 'I' for Inactive)
REMARK    1  A    between atoms: C3_3  and  C4_4 
REMARK    2  A    between atoms: C4_4  and  O1_5 
REMARK    3  A    between atoms: O1_5  and  C5_6 
REMARK    4  A    between atoms: C7_8  and  C8_9 
REMARK    5  A    between atoms: C8_9  and  C12_15 
REMARK    6  A    between atoms: C9_10  and  N1_11 
ROOT
HETATM    1  N1  UNL     1      27.308   0.603  55.142  1.00  0.00    -0.262 NA
HETATM    2  C10 UNL     1      28.539   0.338  54.856  1.00  0.00     0.209 C 
HETATM    3  C11 UNL     1      28.945  -0.694  53.946  1.00  0.00     0.107 C 
HETATM    4  N2  UNL     1      29.281  -1.513  53.199  1.00  0.00    -0.191 NA
ENDROOT
BRANCH   1   5
HETATM    5  C9  UNL     1      26.195  -0.087  54.595  1.00  0.00     0.122 C 
HETATM    6  C8  UNL     1      25.259   0.398  53.766  1.00  0.00    -0.032 C 
BRANCH   6   7
HETATM    7  C7  UNL     1      25.486   1.805  53.439  1.00  0.00     0.111 A 
HETATM    8  C6  UNL     1      24.395   2.361  52.608  1.00  0.00     0.037 A 
HETATM    9  C5  UNL     1      24.972   2.677  51.451  1.00  0.00     0.104 A 
HETATM   10  S1  UNL     1      26.565   2.114  52.023  1.00  0.00    -0.092 SA
BRANCH   9  11
HETATM   11  O1  UNL     1      24.415   3.242  50.287  1.00  0.00    -0.340 OA
BRANCH  11  12
HETATM   12  C4  UNL     1      23.986   4.604  50.298  1.00  0.00     0.211 C 
BRANCH  12  13
HETATM   13  C3  UNL     1      25.130   5.516  49.987  1.00  0.00    -0.050 C 
HETATM   14  C2  UNL     1      25.187   6.820  50.239  1.00  0.00    -0.076 C 
HETATM   15  C1  UNL     1      23.981   7.417  50.899  1.00  0.00     0.044 C 
HETATM   16  C17 UNL     1      26.354   7.644  49.899  1.00  0.00     0.061 C 
HETATM   17  C16 UNL     1      27.096   7.183  48.703  1.00  0.00    -0.026 C 
HETATM   18  C15 UNL     1      27.058   5.891  48.475  1.00  0.00    -0.026 C 
HETATM   19  C14 UNL     1      26.332   4.937  49.334  1.00  0.00     0.063 C 
ENDBRANCH  12  13
ENDBRANCH  11  12
ENDBRANCH   9  11
ENDBRANCH   6   7
BRANCH   6  20
HETATM   20  C12 UNL     1      24.182  -0.530  53.350  1.00  0.00     0.161 C 
HETATM   21  C13 UNL     1      23.485  -0.986  54.549  1.00  0.00     0.063 C 
HETATM   22  N3  UNL     1      22.908  -1.351  55.498  1.00  0.00    -0.197 NA
ENDBRANCH   6  20
ENDBRANCH   1   5
TORSDOF 6
ENDMDL
MODEL 2
REMARK VINA RESULT:      -7.2      1.692      3.927
REMARK  6 active torsions:
REMARK  status: ('A' for Active; 'I' for Inactive)
REMARK    1  A    between atoms: C3_3  and  C4_4 
REMARK    2  A    between atoms: C4_4  and  O1_5 
REMARK    3  A    between atoms: O1_5  and  C5_6 
REMARK    4  A    between atoms: C7_8  and  C8_9 
REMARK    5  A    between atoms: C8_9  and  C12_15 
REMARK    6  A    between atoms: C9_10  and  N1_11 
ROOT
HETATM    1  N1  UNL     1      22.991   0.201  52.684  1.00  0.00    -0.262 NA
HETATM    2  C10 UNL     1      22.169  -0.717  53.069  1.00  0.00     0.209 C 
HETATM    3  C11 UNL     1      22.235  -1.366  54.346  1.00  0.00     0.107 C 
HETATM    4  N2  UNL     1      22.271  -1.882  55.382  1.00  0.00    -0.191 NA
ENDROOT
BRANCH   1   5
HETATM    5  C9  UNL     1      24.067   0.691  53.470  1.00  0.00     0.122 C 
HETATM    6  C8  UNL     1      25.126   1.403  53.054  1.00  0.00    -0.032 C 
BRANCH   6   7
HETATM    7  C7  UNL     1      25.090   1.657  51.614  1.00  0.00     0.111 A 
HETATM    8  C6  UNL     1      26.439   1.924  51.068  1.00  0.00     0.037 A 
HETATM    9  C5  UNL     1      26.389   3.179  50.629  1.00  0.00     0.104 A 
HETATM   10  S1  UNL     1      24.686   3.351  51.130  1.00  0.00    -0.092 SA
BRANCH   9  11
HETATM   11  O1  UNL     1      27.385   3.963  50.013  1.00  0.00    -0.340 OA
BRANCH  11  12
HETATM   12  C4  UNL     1      27.137   4.543  48.733  1.00  0.00     0.211 C 
BRANCH  12  13
HETATM   13  C3  UNL     1      27.128   6.035  48.827  1.00  0.00    -0.050 C 
HETATM   14  C2  UNL     1      28.093   6.855  48.421  1.00  0.00    -0.076 C 
HETATM   15  C1  UNL     1      29.298   6.204  47.813  1.00  0.00     0.044 C 
HETATM   16  C17 UNL     1      28.003   8.315  48.553  1.00  0.00     0.061 C 
HETATM   17  C16 UNL     1      27.213   8.773  49.719  1.00  0.00    -0.026 C 
HETATM   18  C15 UNL     1      26.245   7.972  50.098  1.00  0.00    -0.026 C 
HETATM   19  C14 UNL     1      25.940   6.694  49.428  1.00  0.00     0.063 C 
ENDBRANCH  12  13
ENDBRANCH  11  12
ENDBRANCH   9  11
ENDBRANCH   6   7
BRANCH   6  20
HETATM   20  C12 UNL     1      26.126   1.780  54.078  1.00  0.00     0.161 C 
HETATM   21  C13 UNL     1      26.834   0.573  54.492  1.00  0.00     0.063 C 
HETATM   22  N3  UNL     1      27.419  -0.383  54.825  1.00  0.00    -0.197 NA
ENDBRANCH   6  20
ENDBRANCH   1   5
TORSDOF 6
ENDMDL
MODEL 3
REMARK VINA RESULT:      -7.1      2.695      4.374
REMARK  6 active torsions:
REMARK  status: ('A' for Active; 'I' for Inactive)
REMARK    1  A    between atoms: C3_3  and  C4_4 
REMARK    2  A    between atoms: C4_4  and  O1_5 
REMARK    3  A    between atoms: O1_5  and  C5_6 
REMARK    4  A    between atoms: C7_8  and  C8_9 
REMARK    5  A    between atoms: C8_9  and  C12_15 
REMARK    6  A    between atoms: C9_10  and  N1_11 
ROOT
HETATM    1  N1  UNL     1      27.408   0.626  55.069  1.00  0.00    -0.262 NA
HETATM    2  C10 UNL     1      28.632   0.302  54.821  1.00  0.00     0.209 C 
HETATM    3  C11 UNL     1      29.015  -0.798  53.985  1.00  0.00     0.107 C 
HETATM    4  N2  UNL     1      29.333  -1.674  53.297  1.00  0.00    -0.191 NA
ENDROOT
BRANCH   1   5
HETATM    5  C9  UNL     1      26.279  -0.060  54.550  1.00  0.00     0.122 C 
HETATM    6  C8  UNL     1      25.315   0.434  53.758  1.00  0.00    -0.032 C 
BRANCH   6   7
HETATM    7  C7  UNL     1      25.527   1.846  53.443  1.00  0.00     0.111 A 
HETATM    8  C6  UNL     1      24.287   2.496  52.965  1.00  0.00     0.037 A 
HETATM    9  C5  UNL     1      24.549   2.852  51.710  1.00  0.00     0.104 A 
HETATM   10  S1  UNL     1      26.202   2.187  51.801  1.00  0.00    -0.092 SA
BRANCH   9  11
HETATM   11  O1  UNL     1      23.733   3.508  50.766  1.00  0.00    -0.340 OA
BRANCH  11  12
HETATM   12  C4  UNL     1      22.737   2.769  50.059  1.00  0.00     0.211 C 
BRANCH  12  13
HETATM   13  C3  UNL     1      21.459   2.739  50.835  1.00  0.00    -0.050 C 
HETATM   14  C2  UNL     1      20.835   1.653  51.282  1.00  0.00    -0.076 C 
HETATM   15  C1  UNL     1      21.489   0.342  50.970  1.00  0.00     0.044 C 
HETATM   16  C17 UNL     1      19.578   1.715  52.039  1.00  0.00     0.061 C 
HETATM   17  C16 UNL     1      18.708   2.861  51.682  1.00  0.00    -0.026 C 
HETATM   18  C15 UNL     1      19.333   3.938  51.267  1.00  0.00    -0.026 C 
HETATM   19  C14 UNL     1      20.800   4.032  51.152  1.00  0.00     0.063 C 
ENDBRANCH  12  13
ENDBRANCH  11  12
ENDBRANCH   9  11
ENDBRANCH   6   7
BRANCH   6  20
HETATM   20  C12 UNL     1      24.228  -0.492  53.366  1.00  0.00     0.161 C 
HETATM   21  C13 UNL     1      23.577  -0.974  54.580  1.00  0.00     0.063 C 
HETATM   22  N3  UNL     1      23.037  -1.358  55.543  1.00  0.00    -0.197 NA
ENDBRANCH   6  20
ENDBRANCH   1   5
TORSDOF 6
ENDMDL
MODEL 4
REMARK VINA RESULT:      -6.8      4.162      7.013
REMARK  6 active torsions:
REMARK  status: ('A' for Active; 'I' for Inactive)
REMARK    1  A    between atoms: C3_3  and  C4_4 
REMARK    2  A    between atoms: C4_4  and  O1_5 
REMARK    3  A    between atoms: O1_5  and  C5_6 
REMARK    4  A    between atoms: C7_8  and  C8_9 
REMARK    5  A    between atoms: C8_9  and  C12_15 
REMARK    6  A    between atoms: C9_10  and  N1_11 
ROOT
HETATM    1  N1  UNL     1      18.703   0.254  51.708  1.00  0.00    -0.262 NA
HETATM    2  C10 UNL     1      17.692  -0.487  51.399  1.00  0.00     0.209 C 
HETATM    3  C11 UNL     1      17.109  -1.454  52.283  1.00  0.00     0.107 C 
HETATM    4  N2  UNL     1      16.621  -2.225  52.997  1.00  0.00    -0.191 NA
ENDROOT
BRANCH   1   5
HETATM    5  C9  UNL     1      19.371   0.212  52.959  1.00  0.00     0.122 C 
HETATM    6  C8  UNL     1      20.640   0.563  53.220  1.00  0.00    -0.032 C 
BRANCH   6   7
HETATM    7  C7  UNL     1      21.342   1.029  52.025  1.00  0.00     0.111 A 
HETATM    8  C6  UNL     1      22.782   0.690  52.065  1.00  0.00     0.037 A 
HETATM    9  C5  UNL     1      23.410   1.862  52.093  1.00  0.00     0.104 A 
HETATM   10  S1  UNL     1      21.868   2.758  52.053  1.00  0.00    -0.092 SA
BRANCH   9  11
HETATM   11  O1  UNL     1      24.789   2.150  52.137  1.00  0.00    -0.340 OA
BRANCH  11  12
HETATM   12  C4  UNL     1      25.433   2.330  53.398  1.00  0.00     0.211 C 
BRANCH  12  13
HETATM   13  C3  UNL     1      26.712   1.556  53.448  1.00  0.00    -0.050 C 
HETATM   14  C2  UNL     1      26.848   0.285  53.814  1.00  0.00    -0.076 C 
HETATM   15  C1  UNL     1      25.590  -0.426  54.211  1.00  0.00     0.044 C 
HETATM   16  C17 UNL     1      28.147  -0.400  53.835  1.00  0.00     0.061 C 
HETATM   17  C16 UNL     1      29.297   0.486  54.130  1.00  0.00    -0.026 C 
HETATM   18  C15 UNL     1      29.166   1.733  53.742  1.00  0.00    -0.026 C 
HETATM   19  C14 UNL     1      27.966   2.248  53.057  1.00  0.00     0.063 C 
ENDBRANCH  12  13
ENDBRANCH  11  12
ENDBRANCH   9  11
ENDBRANCH   6   7
BRANCH   6  20
HETATM   20  C12 UNL     1      21.106   0.408  54.617  1.00  0.00     0.161 C 
HETATM   21  C13 UNL     1      21.479  -0.988  54.822  1.00  0.00     0.063 C 
HETATM   22  N3  UNL     1      21.795  -2.100  54.997  1.00  0.00    -0.197 NA
ENDBRANCH   6  20
ENDBRANCH   1   5
TORSDOF 6
ENDMDL
MODEL 5
REMARK VINA RESULT:      -6.7      4.450      6.691
REMARK  6 active torsions:
REMARK  status: ('A' for Active; 'I' for Inactive)
REMARK    1  A    between atoms: C3_3  and  C4_4 
REMARK    2  A    between atoms: C4_4  and  O1_5 
REMARK    3  A    between atoms: O1_5  and  C5_6 
REMARK    4  A    between atoms: C7_8  and  C8_9 
REMARK    5  A    between atoms: C8_9  and  C12_15 
REMARK    6  A    between atoms: C9_10  and  N1_11 
ROOT
HETATM    1  N1  UNL     1      20.455   3.164  52.758  1.00  0.00    -0.262 NA
HETATM    2  C10 UNL     1      20.909   4.091  51.982  1.00  0.00     0.209 C 
HETATM    3  C11 UNL     1      20.946   3.991  50.552  1.00  0.00     0.107 C 
HETATM    4  N2  UNL     1      20.962   3.925  49.396  1.00  0.00    -0.191 NA
ENDROOT
BRANCH   1   5
HETATM    5  C9  UNL     1      19.931   1.927  52.302  1.00  0.00     0.122 C 
HETATM    6  C8  UNL     1      20.245   0.696  52.736  1.00  0.00    -0.032 C 
BRANCH   6   7
HETATM    7  C7  UNL     1      21.249   0.725  53.799  1.00  0.00     0.111 A 
HETATM    8  C6  UNL     1      22.617   0.883  53.260  1.00  0.00     0.037 A 
HETATM    9  C5  UNL     1      23.248  -0.241  53.592  1.00  0.00     0.104 A 
HETATM   10  S1  UNL     1      21.796  -0.890  54.400  1.00  0.00    -0.092 SA
BRANCH   9  11
HETATM   11  O1  UNL     1      24.575  -0.643  53.337  1.00  0.00    -0.340 OA
BRANCH  11  12
HETATM   12  C4  UNL     1      25.380   0.111  52.431  1.00  0.00     0.211 C 
BRANCH  12  13
HETATM   13  C3  UNL     1      26.539   0.726  53.149  1.00  0.00    -0.050 C 
HETATM   14  C2  UNL     1      27.244   1.780  52.746  1.00  0.00    -0.076 C 
HETATM   15  C1  UNL     1      26.822   2.397  51.447  1.00  0.00     0.044 C 
HETATM   16  C17 UNL     1      28.372   2.320  53.515  1.00  0.00     0.061 C 
HETATM   17  C16 UNL     1      29.114   1.307  54.301  1.00  0.00    -0.026 C 
HETATM   18  C15 UNL     1      28.406   0.284  54.718  1.00  0.00    -0.026 C 
HETATM   19  C14 UNL     1      26.967   0.124  54.437  1.00  0.00     0.063 C 
ENDBRANCH  12  13
ENDBRANCH  11  12
ENDBRANCH   9  11
ENDBRANCH   6   7
BRANCH   6  20
HETATM   20  C12 UNL     1      19.563  -0.442  52.079  1.00  0.00     0.161 C 
HETATM   21  C13 UNL     1      18.333  -0.723  52.811  1.00  0.00     0.063 C 
HETATM   22  N3  UNL     1      17.337  -0.951  53.380  1.00  0.00    -0.197 NA
ENDBRANCH   6  20
ENDBRANCH   1   5
TORSDOF 6
ENDMDL
MODEL 6
REMARK VINA RESULT:      -6.7      2.102      3.876
REMARK  6 active torsions:
REMARK  status: ('A' for Active; 'I' for Inactive)
REMARK    1  A    between atoms: C3_3  and  C4_4 
REMARK    2  A    between atoms: C4_4  and  O1_5 
REMARK    3  A    between atoms: O1_5  and  C5_6 
REMARK    4  A    between atoms: C7_8  and  C8_9 
REMARK    5  A    between atoms: C8_9  and  C12_15 
REMARK    6  A    between atoms: C9_10  and  N1_11 
ROOT
HETATM    1  N1  UNL     1      21.753   1.031  53.346  1.00  0.00    -0.262 NA
HETATM    2  C10 UNL     1      21.001   0.222  54.013  1.00  0.00     0.209 C 
HETATM    3  C11 UNL     1      21.465  -1.000  54.603  1.00  0.00     0.107 C 
HETATM    4  N2  UNL     1      21.837  -1.979  55.098  1.00  0.00    -0.191 NA
ENDROOT
BRANCH   1   5
HETATM    5  C9  UNL     1      23.136   0.823  53.108  1.00  0.00     0.122 C 
HETATM    6  C8  UNL     1      23.921   1.468  52.231  1.00  0.00    -0.032 C 
BRANCH   6   7
HETATM    7  C7  UNL     1      23.188   2.484  51.475  1.00  0.00     0.111 A 
HETATM    8  C6  UNL     1      23.687   2.604  50.087  1.00  0.00     0.037 A 
HETATM    9  C5  UNL     1      24.179   3.838  50.006  1.00  0.00     0.104 A 
HETATM   10  S1  UNL     1      23.753   4.185  51.703  1.00  0.00    -0.092 SA
BRANCH   9  11
HETATM   11  O1  UNL     1      24.784   4.501  48.920  1.00  0.00    -0.340 OA
BRANCH  11  12
HETATM   12  C4  UNL     1      24.501   5.881  48.688  1.00  0.00     0.211 C 
BRANCH  12  13
HETATM   13  C3  UNL     1      25.679   6.726  49.055  1.00  0.00    -0.050 C 
HETATM   14  C2  UNL     1      25.664   7.796  49.844  1.00  0.00    -0.076 C 
HETATM   15  C1  UNL     1      24.330   8.177  50.412  1.00  0.00     0.044 C 
HETATM   16  C17 UNL     1      26.872   8.572  50.153  1.00  0.00     0.061 C 
HETATM   17  C16 UNL     1      27.883   8.581  49.070  1.00  0.00    -0.026 C 
HETATM   18  C15 UNL     1      27.909   7.510  48.311  1.00  0.00    -0.026 C 
HETATM   19  C14 UNL     1      27.006   6.360  48.499  1.00  0.00     0.063 C 
ENDBRANCH  12  13
ENDBRANCH  11  12
ENDBRANCH   9  11
ENDBRANCH   6   7
BRANCH   6  20
HETATM   20  C12 UNL     1      25.339   1.048  52.163  1.00  0.00     0.161 C 
HETATM   21  C13 UNL     1      26.059   1.691  53.258  1.00  0.00     0.063 C 
HETATM   22  N3  UNL     1      26.647   2.188  54.137  1.00  0.00    -0.197 NA
ENDBRANCH   6  20
ENDBRANCH   1   5
TORSDOF 6
ENDMDL
MODEL 7
REMARK VINA RESULT:      -6.7      3.555      7.935
REMARK  6 active torsions:
REMARK  status: ('A' for Active; 'I' for Inactive)
REMARK    1  A    between atoms: C3_3  and  C4_4 
REMARK    2  A    between atoms: C4_4  and  O1_5 
REMARK    3  A    between atoms: O1_5  and  C5_6 
REMARK    4  A    between atoms: C7_8  and  C8_9 
REMARK    5  A    between atoms: C8_9  and  C12_15 
REMARK    6  A    between atoms: C9_10  and  N1_11 
ROOT
HETATM    1  N1  UNL     1      25.085   7.517  49.595  1.00  0.00    -0.262 NA
HETATM    2  C10 UNL     1      25.536   8.705  49.823  1.00  0.00     0.209 C 
HETATM    3  C11 UNL     1      26.930   9.032  49.898  1.00  0.00     0.107 C 
HETATM    4  N2  UNL     1      28.054   9.307  49.942  1.00  0.00    -0.191 NA
ENDROOT
BRANCH   1   5
HETATM    5  C9  UNL     1      25.906   6.378  49.387  1.00  0.00     0.122 C 
HETATM    6  C8  UNL     1      25.525   5.091  49.354  1.00  0.00    -0.032 C 
BRANCH   6   7
HETATM    7  C7  UNL     1      24.087   4.935  49.564  1.00  0.00     0.111 A 
HETATM    8  C6  UNL     1      23.777   4.485  50.939  1.00  0.00     0.037 A 
HETATM    9  C5  UNL     1      23.223   3.284  50.790  1.00  0.00     0.104 A 
HETATM   10  S1  UNL     1      23.383   3.363  49.015  1.00  0.00    -0.092 SA
BRANCH   9  11
HETATM   11  O1  UNL     1      22.732   2.387  51.760  1.00  0.00    -0.340 OA
BRANCH  11  12
HETATM   12  C4  UNL     1      23.551   1.302  52.197  1.00  0.00     0.211 C 
BRANCH  12  13
HETATM   13  C3  UNL     1      22.801   0.431  53.153  1.00  0.00    -0.050 C 
HETATM   14  C2  UNL     1      23.329  -0.457  53.989  1.00  0.00    -0.076 C 
HETATM   15  C1  UNL     1      24.822  -0.585  53.957  1.00  0.00     0.044 C 
HETATM   16  C17 UNL     1      22.515  -1.275  54.897  1.00  0.00     0.061 C 
HETATM   17  C16 UNL     1      21.164  -1.596  54.381  1.00  0.00    -0.026 C 
HETATM   18  C15 UNL     1      20.637  -0.702  53.577  1.00  0.00    -0.026 C 
HETATM   19  C14 UNL     1      21.321   0.547  53.194  1.00  0.00     0.063 C 
ENDBRANCH  12  13
ENDBRANCH  11  12
ENDBRANCH   9  11
ENDBRANCH   6   7
BRANCH   6  20
HETATM   20  C12 UNL     1      26.587   4.082  49.137  1.00  0.00     0.161 C 
HETATM   21  C13 UNL     1      26.826   3.392  50.401  1.00  0.00     0.063 C 
HETATM   22  N3  UNL     1      27.019   2.820  51.402  1.00  0.00    -0.197 NA
ENDBRANCH   6  20
ENDBRANCH   1   5
TORSDOF 6
ENDMDL
MODEL 8
REMARK VINA RESULT:      -6.6      4.443      7.566
REMARK  6 active torsions:
REMARK  status: ('A' for Active; 'I' for Inactive)
REMARK    1  A    between atoms: C3_3  and  C4_4 
REMARK    2  A    between atoms: C4_4  and  O1_5 
REMARK    3  A    between atoms: O1_5  and  C5_6 
REMARK    4  A    between atoms: C7_8  and  C8_9 
REMARK    5  A    between atoms: C8_9  and  C12_15 
REMARK    6  A    between atoms: C9_10  and  N1_11 
ROOT
HETATM    1  N1  UNL     1      25.640   4.790  49.578  1.00  0.00    -0.262 NA
HETATM    2  C10 UNL     1      26.384   5.577  48.876  1.00  0.00     0.209 C 
HETATM    3  C11 UNL     1      27.765   5.324  48.583  1.00  0.00     0.107 C 
HETATM    4  N2  UNL     1      28.875   5.118  48.327  1.00  0.00    -0.191 NA
ENDROOT
BRANCH   1   5
HETATM    5  C9  UNL     1      26.087   3.572  50.153  1.00  0.00     0.122 C 
HETATM    6  C8  UNL     1      25.509   2.875  51.144  1.00  0.00    -0.032 C 
BRANCH   6   7
HETATM    7  C7  UNL     1      24.287   3.514  51.630  1.00  0.00     0.111 A 
HETATM    8  C6  UNL     1      23.643   2.726  52.704  1.00  0.00     0.037 A 
HETATM    9  C5  UNL     1      22.469   2.355  52.200  1.00  0.00     0.104 A 
HETATM   10  S1  UNL     1      22.797   3.190  50.659  1.00  0.00    -0.092 SA
BRANCH   9  11
HETATM   11  O1  UNL     1      21.438   1.587  52.778  1.00  0.00    -0.340 OA
BRANCH  11  12
HETATM   12  C4  UNL     1      21.129   0.302  52.239  1.00  0.00     0.211 C 
BRANCH  12  13
HETATM   13  C3  UNL     1      19.652   0.152  52.057  1.00  0.00    -0.050 C 
HETATM   14  C2  UNL     1      18.849  -0.642  52.759  1.00  0.00    -0.076 C 
HETATM   15  C1  UNL     1      19.503  -1.458  53.832  1.00  0.00     0.044 C 
HETATM   16  C17 UNL     1      17.404  -0.729  52.512  1.00  0.00     0.061 C 
HETATM   17  C16 UNL     1      17.012  -0.495  51.102  1.00  0.00    -0.026 C 
HETATM   18  C15 UNL     1      17.794   0.311  50.423  1.00  0.00    -0.026 C 
HETATM   19  C14 UNL     1      18.990   0.955  50.997  1.00  0.00     0.063 C 
ENDBRANCH  12  13
ENDBRANCH  11  12
ENDBRANCH   9  11
ENDBRANCH   6   7
BRANCH   6  20
HETATM   20  C12 UNL     1      26.190   1.633  51.578  1.00  0.00     0.161 C 
HETATM   21  C13 UNL     1      27.376   2.005  52.342  1.00  0.00     0.063 C 
HETATM   22  N3  UNL     1      28.323   2.287  52.967  1.00  0.00    -0.197 NA
ENDBRANCH   6  20
ENDBRANCH   1   5
TORSDOF 6
ENDMDL
MODEL 9
REMARK VINA RESULT:      -6.5      1.949      2.587
REMARK  6 active torsions:
REMARK  status: ('A' for Active; 'I' for Inactive)
REMARK    1  A    between atoms: C3_3  and  C4_4 
REMARK    2  A    between atoms: C4_4  and  O1_5 
REMARK    3  A    between atoms: O1_5  and  C5_6 
REMARK    4  A    between atoms: C7_8  and  C8_9 
REMARK    5  A    between atoms: C8_9  and  C12_15 
REMARK    6  A    between atoms: C9_10  and  N1_11 
ROOT
HETATM    1  N1  UNL     1      26.830   0.639  52.109  1.00  0.00    -0.262 NA
HETATM    2  C10 UNL     1      27.956   0.970  52.646  1.00  0.00     0.209 C 
HETATM    3  C11 UNL     1      28.238   0.860  54.048  1.00  0.00     0.107 C 
HETATM    4  N2  UNL     1      28.479   0.758  55.176  1.00  0.00    -0.191 NA
ENDROOT
BRANCH   1   5
HETATM    5  C9  UNL     1      25.722   0.124  52.830  1.00  0.00     0.122 C 
HETATM    6  C8  UNL     1      24.438   0.502  52.738  1.00  0.00    -0.032 C 
BRANCH   6   7
HETATM    7  C7  UNL     1      24.247   1.573  51.760  1.00  0.00     0.111 A 
HETATM    8  C6  UNL     1      24.154   2.900  52.408  1.00  0.00     0.037 A 
HETATM    9  C5  UNL     1      22.923   3.327  52.140  1.00  0.00     0.104 A 
HETATM   10  S1  UNL     1      22.543   1.845  51.223  1.00  0.00    -0.092 SA
BRANCH   9  11
HETATM   11  O1  UNL     1      22.282   4.527  52.506  1.00  0.00    -0.340 OA
BRANCH  11  12
HETATM   12  C4  UNL     1      21.755   5.384  51.493  1.00  0.00     0.211 C 
BRANCH  12  13
HETATM   13  C3  UNL     1      22.837   5.811  50.554  1.00  0.00    -0.050 C 
HETATM   14  C2  UNL     1      22.932   5.495  49.266  1.00  0.00    -0.076 C 
HETATM   15  C1  UNL     1      21.840   4.626  48.719  1.00  0.00     0.044 C 
HETATM   16  C17 UNL     1      24.034   5.959  48.413  1.00  0.00     0.061 C 
HETATM   17  C16 UNL     1      25.317   6.152  49.128  1.00  0.00    -0.026 C 
HETATM   18  C15 UNL     1      25.216   6.490  50.392  1.00  0.00    -0.026 C 
HETATM   19  C14 UNL     1      23.926   6.672  51.082  1.00  0.00     0.063 C 
ENDBRANCH  12  13
ENDBRANCH  11  12
ENDBRANCH   9  11
ENDBRANCH   6   7
BRANCH   6  20
HETATM   20  C12 UNL     1      23.469  -0.186  53.620  1.00  0.00     0.161 C 
HETATM   21  C13 UNL     1      24.209  -0.812  54.711  1.00  0.00     0.063 C 
HETATM   22  N3  UNL     1      24.787  -1.308  55.599  1.00  0.00    -0.197 NA
ENDBRANCH   6  20
ENDBRANCH   1   5
TORSDOF 6
ENDMDL
