MODEL 1
REMARK VINA RESULT:      -9.6      0.000      0.000
REMARK  7 active torsions:
REMARK  status: ('A' for Active; 'I' for Inactive)
REMARK    1  A    between atoms: C8_10  and  N3_11 
REMARK    2  A    between atoms: N3_11  and  C9_12 
REMARK    3  A    between atoms: C13_17  and  O1_18 
REMARK    4  A    between atoms: C17_22  and  N4_23 
REMARK       I    between atoms: N4_23  and  C18_24 
REMARK    5  A    between atoms: C18_24  and  C19_26 
REMARK    6  A    between atoms: C20_27  and  C21_28 
REMARK    7  A    between atoms: C21_28  and  N5_29 
ROOT
HETATM    1  C1  UNL     1      22.831   3.558  48.279  1.00  0.00     0.050 C 
HETATM    2  C2  UNL     1      23.173   2.881  49.577  1.00  0.00    -0.033 A 
HETATM    3  C3  UNL     1      22.219   1.898  49.880  1.00  0.00     0.041 A 
HETATM    4  C4  UNL     1      22.375   1.174  51.044  1.00  0.00     0.069 A 
HETATM    5  N1  UNL     1      21.493   0.214  51.443  1.00  0.00    -0.259 NA
HETATM    6  C5  UNL     1      21.664  -0.454  52.596  1.00  0.00     0.142 A 
HETATM    7  C6  UNL     1      22.740  -0.220  53.461  1.00  0.00     0.089 A 
HETATM    8  C7  UNL     1      22.784  -0.994  54.643  1.00  0.00     0.103 C 
HETATM    9  N2  UNL     1      22.816  -1.619  55.592  1.00  0.00    -0.191 NA
HETATM   10  C8  UNL     1      23.609   0.746  53.036  1.00  0.00     0.067 A 
HETATM   11  C15 UNL     1      23.458   1.456  51.845  1.00  0.00     0.023 A 
HETATM   12  C16 UNL     1      24.437   2.420  51.593  1.00  0.00     0.046 A 
HETATM   13  C17 UNL     1      24.231   3.109  50.422  1.00  0.00     0.042 A 
ENDROOT
BRANCH  10  14
HETATM   14  N3  UNL     1      24.707   1.000  53.926  1.00  0.00    -0.354 N 
HETATM   15  H6  UNL     1      24.620   1.610  54.753  1.00  0.00     0.166 HD
BRANCH  14  16
HETATM   16  C9  UNL     1      25.981   0.379  53.643  1.00  0.00     0.035 A 
HETATM   17  C10 UNL     1      26.039  -0.896  53.121  1.00  0.00     0.032 A 
HETATM   18  C11 UNL     1      27.198  -1.542  52.846  1.00  0.00     0.047 A 
HETATM   19  C12 UNL     1      28.348  -0.854  53.118  1.00  0.00     0.149 A 
HETATM   20  F1  UNL     1      29.553  -1.439  52.864  1.00  0.00    -0.203 F 
HETATM   21  C13 UNL     1      28.366   0.442  53.649  1.00  0.00     0.106 A 
HETATM   22  C14 UNL     1      27.162   1.082  53.922  1.00  0.00     0.069 A 
BRANCH  21  23
HETATM   23  O1  UNL     1      29.618   1.039  53.884  1.00  0.00    -0.358 OA
HETATM   24  H9  UNL     1      29.779   1.301  54.851  1.00  0.00     0.217 HD
ENDBRANCH  21  23
ENDBRANCH  14  16
ENDBRANCH  10  14
BRANCH  13  25
HETATM   25  N4  UNL     1      25.012   4.141  49.839  1.00  0.00    -0.323 N 
HETATM   26  C18 UNL     1      26.317   4.238  49.364  1.00  0.00     0.245 C 
HETATM   27  O2  UNL     1      27.182   3.302  49.356  1.00  0.00    -0.268 OA
HETATM   28  H12 UNL     1      24.322   4.897  49.841  1.00  0.00     0.169 HD
BRANCH  26  29
HETATM   29  C19 UNL     1      26.823   5.505  48.802  1.00  0.00     0.072 C 
HETATM   30  C20 UNL     1      28.009   5.783  48.344  1.00  0.00     0.008 C 
BRANCH  30  31
HETATM   31  C21 UNL     1      28.297   7.125  47.825  1.00  0.00     0.299 C 
BRANCH  31  32
HETATM   32  N5  UNL     1      29.708   7.509  47.945  1.00  0.00     0.083 N 
HETATM   33  C22 UNL     1      29.850   8.577  48.930  1.00  0.00     0.309 C 
HETATM   34  C23 UNL     1      30.469   6.374  48.499  1.00  0.00     0.309 C 
ENDBRANCH  31  32
ENDBRANCH  30  31
ENDBRANCH  26  29
ENDBRANCH  13  25
TORSDOF 7
ENDMDL
MODEL 2
REMARK VINA RESULT:      -8.6      2.700      4.688
REMARK  7 active torsions:
REMARK  status: ('A' for Active; 'I' for Inactive)
REMARK    1  A    between atoms: C8_10  and  N3_11 
REMARK    2  A    between atoms: N3_11  and  C9_12 
REMARK    3  A    between atoms: C13_17  and  O1_18 
REMARK    4  A    between atoms: C17_22  and  N4_23 
REMARK       I    between atoms: N4_23  and  C18_24 
REMARK    5  A    between atoms: C18_24  and  C19_26 
REMARK    6  A    between atoms: C20_27  and  C21_28 
REMARK    7  A    between atoms: C21_28  and  N5_29 
ROOT
HETATM    1  C1  UNL     1      27.545   7.866  48.056  1.00  0.00     0.050 C 
HETATM    2  C2  UNL     1      27.127   6.542  48.633  1.00  0.00    -0.033 A 
HETATM    3  C3  UNL     1      25.878   6.657  49.262  1.00  0.00     0.041 A 
HETATM    4  C4  UNL     1      25.338   5.533  49.851  1.00  0.00     0.069 A 
HETATM    5  N1  UNL     1      24.143   5.543  50.508  1.00  0.00    -0.259 NA
HETATM    6  C5  UNL     1      23.660   4.434  51.093  1.00  0.00     0.142 A 
HETATM    7  C6  UNL     1      24.334   3.206  51.074  1.00  0.00     0.089 A 
HETATM    8  C7  UNL     1      23.707   2.128  51.740  1.00  0.00     0.103 C 
HETATM    9  N2  UNL     1      23.198   1.264  52.275  1.00  0.00    -0.191 NA
HETATM   10  C8  UNL     1      25.527   3.225  50.409  1.00  0.00     0.067 A 
HETATM   11  C15 UNL     1      26.055   4.359  49.793  1.00  0.00     0.023 A 
HETATM   12  C16 UNL     1      27.299   4.187  49.182  1.00  0.00     0.046 A 
HETATM   13  C17 UNL     1      27.787   5.338  48.611  1.00  0.00     0.042 A 
ENDROOT
BRANCH  10  14
HETATM   14  N3  UNL     1      26.229   1.972  50.400  1.00  0.00    -0.354 N 
HETATM   15  H6  UNL     1      26.315   1.391  49.552  1.00  0.00     0.166 HD
BRANCH  14  16
HETATM   16  C9  UNL     1      26.832   1.511  51.630  1.00  0.00     0.035 A 
HETATM   17  C10 UNL     1      27.504   2.388  52.454  1.00  0.00     0.032 A 
HETATM   18  C11 UNL     1      28.103   2.022  53.612  1.00  0.00     0.047 A 
HETATM   19  C12 UNL     1      28.012   0.698  53.942  1.00  0.00     0.149 A 
HETATM   20  F1  UNL     1      28.588   0.254  55.095  1.00  0.00    -0.203 F 
HETATM   21  C13 UNL     1      27.346  -0.251  53.154  1.00  0.00     0.106 A 
HETATM   22  C14 UNL     1      26.740   0.154  51.970  1.00  0.00     0.069 A 
BRANCH  21  23
HETATM   23  O1  UNL     1      27.325  -1.583  53.606  1.00  0.00    -0.358 OA
HETATM   24  H9  UNL     1      27.759  -2.244  52.970  1.00  0.00     0.217 HD
ENDBRANCH  21  23
ENDBRANCH  14  16
ENDBRANCH  10  14
BRANCH  13  25
HETATM   25  N4  UNL     1      29.000   5.543  47.902  1.00  0.00    -0.323 N 
HETATM   26  C18 UNL     1      30.348   5.579  48.247  1.00  0.00     0.245 C 
HETATM   27  O2  UNL     1      30.824   5.414  49.417  1.00  0.00    -0.268 OA
HETATM   28  H12 UNL     1      28.623   5.675  46.958  1.00  0.00     0.169 HD
BRANCH  26  29
HETATM   29  C19 UNL     1      31.382   5.823  47.225  1.00  0.00     0.072 C 
HETATM   30  C20 UNL     1      32.244   4.992  46.714  1.00  0.00     0.008 C 
BRANCH  30  31
HETATM   31  C21 UNL     1      33.194   5.455  45.696  1.00  0.00     0.299 C 
BRANCH  31  32
HETATM   32  N5  UNL     1      33.859   4.364  44.976  1.00  0.00     0.083 N 
HETATM   33  C22 UNL     1      34.585   4.897  43.828  1.00  0.00     0.309 C 
HETATM   34  C23 UNL     1      34.896   3.777  45.844  1.00  0.00     0.309 C 
ENDBRANCH  31  32
ENDBRANCH  30  31
ENDBRANCH  26  29
ENDBRANCH  13  25
TORSDOF 7
ENDMDL
MODEL 3
REMARK VINA RESULT:      -8.5      1.981      2.914
REMARK  7 active torsions:
REMARK  status: ('A' for Active; 'I' for Inactive)
REMARK    1  A    between atoms: C8_10  and  N3_11 
REMARK    2  A    between atoms: N3_11  and  C9_12 
REMARK    3  A    between atoms: C13_17  and  O1_18 
REMARK    4  A    between atoms: C17_22  and  N4_23 
REMARK       I    between atoms: N4_23  and  C18_24 
REMARK    5  A    between atoms: C18_24  and  C19_26 
REMARK    6  A    between atoms: C20_27  and  C21_28 
REMARK    7  A    between atoms: C21_28  and  N5_29 
ROOT
HETATM    1  C1  UNL     1      24.689   7.854  50.070  1.00  0.00     0.050 C 
HETATM    2  C2  UNL     1      24.765   6.382  50.362  1.00  0.00    -0.033 A 
HETATM    3  C3  UNL     1      23.679   5.985  51.156  1.00  0.00     0.041 A 
HETATM    4  C4  UNL     1      23.588   4.659  51.524  1.00  0.00     0.069 A 
HETATM    5  N1  UNL     1      22.587   4.175  52.313  1.00  0.00    -0.259 NA
HETATM    6  C5  UNL     1      22.546   2.881  52.672  1.00  0.00     0.142 A 
HETATM    7  C6  UNL     1      23.510   1.948  52.273  1.00  0.00     0.089 A 
HETATM    8  C7  UNL     1      23.340   0.623  52.736  1.00  0.00     0.103 C 
HETATM    9  N2  UNL     1      23.198  -0.442  53.109  1.00  0.00    -0.191 NA
HETATM   10  C8  UNL     1      24.500   2.458  51.483  1.00  0.00     0.067 A 
HETATM   11  C15 UNL     1      24.571   3.796  51.093  1.00  0.00     0.023 A 
HETATM   12  C16 UNL     1      25.671   4.134  50.303  1.00  0.00     0.046 A 
HETATM   13  C17 UNL     1      25.709   5.466  49.966  1.00  0.00     0.042 A 
ENDROOT
BRANCH  10  14
HETATM   14  N3  UNL     1      25.500   1.508  51.082  1.00  0.00    -0.354 N 
HETATM   15  H6  UNL     1      25.499   1.061  50.153  1.00  0.00     0.166 HD
BRANCH  14  16
HETATM   16  C9  UNL     1      26.540   1.165  52.024  1.00  0.00     0.035 A 
HETATM   17  C10 UNL     1      27.229   2.151  52.699  1.00  0.00     0.032 A 
HETATM   18  C11 UNL     1      28.224   1.901  53.584  1.00  0.00     0.047 A 
HETATM   19  C12 UNL     1      28.530   0.583  53.786  1.00  0.00     0.149 A 
HETATM   20  F1  UNL     1      29.518   0.254  54.664  1.00  0.00    -0.203 F 
HETATM   21  C13 UNL     1      27.875  -0.472  53.136  1.00  0.00     0.106 A 
HETATM   22  C14 UNL     1      26.857  -0.185  52.233  1.00  0.00     0.069 A 
BRANCH  21  23
HETATM   23  O1  UNL     1      28.286  -1.783  53.433  1.00  0.00    -0.358 OA
HETATM   24  H9  UNL     1      27.577  -2.348  53.890  1.00  0.00     0.217 HD
ENDBRANCH  21  23
ENDBRANCH  14  16
ENDBRANCH  10  14
BRANCH  13  25
HETATM   25  N4  UNL     1      26.659   6.165  49.176  1.00  0.00    -0.323 N 
HETATM   26  C18 UNL     1      27.818   5.813  48.490  1.00  0.00     0.245 C 
HETATM   27  O2  UNL     1      28.322   4.645  48.425  1.00  0.00    -0.268 OA
HETATM   28  H12 UNL     1      26.257   7.106  49.223  1.00  0.00     0.169 HD
BRANCH  26  29
HETATM   29  C19 UNL     1      28.589   6.825  47.744  1.00  0.00     0.072 C 
HETATM   30  C20 UNL     1      28.636   8.114  47.919  1.00  0.00     0.008 C 
BRANCH  30  31
HETATM   31  C21 UNL     1      29.483   8.940  47.050  1.00  0.00     0.299 C 
BRANCH  31  32
HETATM   32  N5  UNL     1      30.542   9.654  47.772  1.00  0.00     0.083 N 
HETATM   33  C22 UNL     1      30.149   9.850  49.164  1.00  0.00     0.309 C 
HETATM   34  C23 UNL     1      31.742   8.800  47.831  1.00  0.00     0.309 C 
ENDBRANCH  31  32
ENDBRANCH  30  31
ENDBRANCH  26  29
ENDBRANCH  13  25
TORSDOF 7
ENDMDL
MODEL 4
REMARK VINA RESULT:      -8.2      2.100      2.289
REMARK  7 active torsions:
REMARK  status: ('A' for Active; 'I' for Inactive)
REMARK    1  A    between atoms: C8_10  and  N3_11 
REMARK    2  A    between atoms: N3_11  and  C9_12 
REMARK    3  A    between atoms: C13_17  and  O1_18 
REMARK    4  A    between atoms: C17_22  and  N4_23 
REMARK       I    between atoms: N4_23  and  C18_24 
REMARK    5  A    between atoms: C18_24  and  C19_26 
REMARK    6  A    between atoms: C20_27  and  C21_28 
REMARK    7  A    between atoms: C21_28  and  N5_29 
ROOT
HETATM    1  C1  UNL     1      23.208   4.945  48.089  1.00  0.00     0.050 C 
HETATM    2  C2  UNL     1      23.319   4.048  49.291  1.00  0.00    -0.033 A 
HETATM    3  C3  UNL     1      22.381   3.008  49.212  1.00  0.00     0.041 A 
HETATM    4  C4  UNL     1      22.342   2.085  50.237  1.00  0.00     0.069 A 
HETATM    5  N1  UNL     1      21.453   1.051  50.270  1.00  0.00    -0.259 NA
HETATM    6  C5  UNL     1      21.426   0.187  51.298  1.00  0.00     0.142 A 
HETATM    7  C6  UNL     1      22.292   0.280  52.395  1.00  0.00     0.089 A 
HETATM    8  C7  UNL     1      22.141  -0.696  53.406  1.00  0.00     0.103 C 
HETATM    9  N2  UNL     1      22.017  -1.485  54.216  1.00  0.00    -0.191 NA
HETATM   10  C8  UNL     1      23.172   1.324  52.336  1.00  0.00     0.067 A 
HETATM   11  C15 UNL     1      23.223   2.237  51.284  1.00  0.00     0.023 A 
HETATM   12  C16 UNL     1      24.176   3.250  51.413  1.00  0.00     0.046 A 
HETATM   13  C17 UNL     1      24.171   4.138  50.364  1.00  0.00     0.042 A 
ENDROOT
BRANCH  10  14
HETATM   14  N3  UNL     1      24.052   1.432  53.466  1.00  0.00    -0.354 N 
HETATM   15  H6  UNL     1      23.781   1.917  54.335  1.00  0.00     0.166 HD
BRANCH  14  16
HETATM   16  C9  UNL     1      25.367   0.841  53.373  1.00  0.00     0.035 A 
HETATM   17  C10 UNL     1      25.656  -0.077  52.386  1.00  0.00     0.032 A 
HETATM   18  C11 UNL     1      26.861  -0.680  52.250  1.00  0.00     0.047 A 
HETATM   19  C12 UNL     1      27.815  -0.329  53.165  1.00  0.00     0.149 A 
HETATM   20  F1  UNL     1      29.053  -0.891  53.090  1.00  0.00    -0.203 F 
HETATM   21  C13 UNL     1      27.594   0.596  54.195  1.00  0.00     0.106 A 
HETATM   22  C14 UNL     1      26.346   1.199  54.311  1.00  0.00     0.069 A 
BRANCH  21  23
HETATM   23  O1  UNL     1      28.659   0.870  55.072  1.00  0.00    -0.358 OA
HETATM   24  H9  UNL     1      29.551   1.013  54.611  1.00  0.00     0.217 HD
ENDBRANCH  21  23
ENDBRANCH  14  16
ENDBRANCH  10  14
BRANCH  13  25
HETATM   25  N4  UNL     1      24.994   5.274  50.147  1.00  0.00    -0.323 N 
HETATM   26  C18 UNL     1      24.968   6.602  50.564  1.00  0.00     0.245 C 
HETATM   27  O2  UNL     1      24.089   7.131  51.320  1.00  0.00    -0.268 OA
HETATM   28  H12 UNL     1      25.704   4.855  49.540  1.00  0.00     0.169 HD
BRANCH  26  29
HETATM   29  C19 UNL     1      26.016   7.548  50.137  1.00  0.00     0.072 C 
HETATM   30  C20 UNL     1      25.950   8.841  50.004  1.00  0.00     0.008 C 
BRANCH  30  31
HETATM   31  C21 UNL     1      27.130   9.593  49.561  1.00  0.00     0.299 C 
BRANCH  31  32
HETATM   32  N5  UNL     1      26.821  10.645  48.587  1.00  0.00     0.083 N 
HETATM   33  C22 UNL     1      27.864  11.666  48.613  1.00  0.00     0.309 C 
HETATM   34  C23 UNL     1      26.879  10.075  47.229  1.00  0.00     0.309 C 
ENDBRANCH  31  32
ENDBRANCH  30  31
ENDBRANCH  26  29
ENDBRANCH  13  25
TORSDOF 7
ENDMDL
MODEL 5
REMARK VINA RESULT:      -8.1      4.126      9.270
REMARK  7 active torsions:
REMARK  status: ('A' for Active; 'I' for Inactive)
REMARK    1  A    between atoms: C8_10  and  N3_11 
REMARK    2  A    between atoms: N3_11  and  C9_12 
REMARK    3  A    between atoms: C13_17  and  O1_18 
REMARK    4  A    between atoms: C17_22  and  N4_23 
REMARK       I    between atoms: N4_23  and  C18_24 
REMARK    5  A    between atoms: C18_24  and  C19_26 
REMARK    6  A    between atoms: C20_27  and  C21_28 
REMARK    7  A    between atoms: C21_28  and  N5_29 
ROOT
HETATM    1  C1  UNL     1      22.369  -0.883  54.088  1.00  0.00     0.050 C 
HETATM    2  C2  UNL     1      22.869   0.076  53.044  1.00  0.00    -0.033 A 
HETATM    3  C3  UNL     1      24.257   0.245  53.162  1.00  0.00     0.041 A 
HETATM    4  C4  UNL     1      24.889   1.097  52.280  1.00  0.00     0.069 A 
HETATM    5  N1  UNL     1      26.228   1.349  52.324  1.00  0.00    -0.259 NA
HETATM    6  C5  UNL     1      26.805   2.206  51.465  1.00  0.00     0.142 A 
HETATM    7  C6  UNL     1      26.088   2.894  50.477  1.00  0.00     0.089 A 
HETATM    8  C7  UNL     1      26.829   3.769  49.650  1.00  0.00     0.103 C 
HETATM    9  N2  UNL     1      27.429   4.471  48.987  1.00  0.00    -0.191 NA
HETATM   10  C8  UNL     1      24.750   2.622  50.455  1.00  0.00     0.067 A 
HETATM   11  C15 UNL     1      24.122   1.738  51.333  1.00  0.00     0.023 A 
HETATM   12  C16 UNL     1      22.741   1.608  51.170  1.00  0.00     0.046 A 
HETATM   13  C17 UNL     1      22.167   0.747  52.073  1.00  0.00     0.042 A 
ENDROOT
BRANCH  10  14
HETATM   14  N3  UNL     1      24.008   3.335  49.453  1.00  0.00    -0.354 N 
HETATM   15  H6  UNL     1      23.962   3.024  48.471  1.00  0.00     0.166 HD
BRANCH  14  16
HETATM   16  C9  UNL     1      23.307   4.537  49.842  1.00  0.00     0.035 A 
HETATM   17  C10 UNL     1      21.972   4.700  49.540  1.00  0.00     0.032 A 
HETATM   18  C11 UNL     1      21.258   5.806  49.861  1.00  0.00     0.047 A 
HETATM   19  C12 UNL     1      21.941   6.790  50.521  1.00  0.00     0.149 A 
HETATM   20  F1  UNL     1      21.289   7.932  50.879  1.00  0.00    -0.203 F 
HETATM   21  C13 UNL     1      23.297   6.696  50.860  1.00  0.00     0.106 A 
HETATM   22  C14 UNL     1      24.005   5.549  50.518  1.00  0.00     0.069 A 
BRANCH  21  23
HETATM   23  O1  UNL     1      23.883   7.780  51.538  1.00  0.00    -0.358 OA
HETATM   24  H9  UNL     1      24.095   8.576  50.946  1.00  0.00     0.217 HD
ENDBRANCH  21  23
ENDBRANCH  14  16
ENDBRANCH  10  14
BRANCH  13  25
HETATM   25  N4  UNL     1      20.806   0.362  52.206  1.00  0.00    -0.323 N 
HETATM   26  C18 UNL     1      19.680   0.434  51.391  1.00  0.00     0.245 C 
HETATM   27  O2  UNL     1      19.638   0.922  50.215  1.00  0.00    -0.268 OA
HETATM   28  H12 UNL     1      20.834  -0.033  53.150  1.00  0.00     0.169 HD
BRANCH  26  29
HETATM   29  C19 UNL     1      18.378  -0.080  51.857  1.00  0.00     0.072 C 
HETATM   30  C20 UNL     1      18.129  -1.002  52.741  1.00  0.00     0.008 C 
BRANCH  30  31
HETATM   31  C21 UNL     1      16.741  -1.360  53.055  1.00  0.00     0.299 C 
BRANCH  31  32
HETATM   32  N5  UNL     1      15.763  -0.779  52.129  1.00  0.00     0.083 N 
HETATM   33  C22 UNL     1      14.928  -1.834  51.563  1.00  0.00     0.309 C 
HETATM   34  C23 UNL     1      14.833   0.078  52.888  1.00  0.00     0.309 C 
ENDBRANCH  31  32
ENDBRANCH  30  31
ENDBRANCH  26  29
ENDBRANCH  13  25
TORSDOF 7
ENDMDL
MODEL 6
REMARK VINA RESULT:      -7.9      2.892      5.001
REMARK  7 active torsions:
REMARK  status: ('A' for Active; 'I' for Inactive)
REMARK    1  A    between atoms: C8_10  and  N3_11 
REMARK    2  A    between atoms: N3_11  and  C9_12 
REMARK    3  A    between atoms: C13_17  and  O1_18 
REMARK    4  A    between atoms: C17_22  and  N4_23 
REMARK       I    between atoms: N4_23  and  C18_24 
REMARK    5  A    between atoms: C18_24  and  C19_26 
REMARK    6  A    between atoms: C20_27  and  C21_28 
REMARK    7  A    between atoms: C21_28  and  N5_29 
ROOT
HETATM    1  C1  UNL     1      28.513   2.432  53.172  1.00  0.00     0.050 C 
HETATM    2  C2  UNL     1      27.143   1.824  53.055  1.00  0.00    -0.033 A 
HETATM    3  C3  UNL     1      26.874   1.011  54.166  1.00  0.00     0.041 A 
HETATM    4  C4  UNL     1      25.654   0.369  54.226  1.00  0.00     0.069 A 
HETATM    5  N1  UNL     1      25.303  -0.462  55.248  1.00  0.00    -0.259 NA
HETATM    6  C5  UNL     1      24.116  -1.091  55.259  1.00  0.00     0.142 A 
HETATM    7  C6  UNL     1      23.166  -0.945  54.241  1.00  0.00     0.089 A 
HETATM    8  C7  UNL     1      21.964  -1.676  54.385  1.00  0.00     0.103 C 
HETATM    9  N2  UNL     1      20.999  -2.265  54.505  1.00  0.00    -0.191 NA
HETATM   10  C8  UNL     1      23.543  -0.106  53.230  1.00  0.00     0.067 A 
HETATM   11  C15 UNL     1      24.767   0.560  53.190  1.00  0.00     0.023 A 
HETATM   12  C16 UNL     1      24.981   1.357  52.063  1.00  0.00     0.046 A 
HETATM   13  C17 UNL     1      26.210   1.971  52.058  1.00  0.00     0.042 A 
ENDROOT
BRANCH  10  14
HETATM   14  N3  UNL     1      22.578   0.035  52.176  1.00  0.00    -0.354 N 
HETATM   15  H6  UNL     1      22.273  -0.759  51.593  1.00  0.00     0.166 HD
BRANCH  14  16
HETATM   16  C9  UNL     1      22.021   1.345  51.924  1.00  0.00     0.035 A 
HETATM   17  C10 UNL     1      21.161   1.928  52.830  1.00  0.00     0.032 A 
HETATM   18  C11 UNL     1      20.593   3.145  52.650  1.00  0.00     0.047 A 
HETATM   19  C12 UNL     1      20.917   3.793  51.491  1.00  0.00     0.149 A 
HETATM   20  F1  UNL     1      20.386   5.023  51.241  1.00  0.00    -0.203 F 
HETATM   21  C13 UNL     1      21.782   3.263  50.524  1.00  0.00     0.106 A 
HETATM   22  C14 UNL     1      22.352   2.012  50.735  1.00  0.00     0.069 A 
BRANCH  21  23
HETATM   23  O1  UNL     1      22.034   4.032  49.373  1.00  0.00    -0.358 OA
HETATM   24  H9  UNL     1      22.317   4.987  49.565  1.00  0.00     0.217 HD
ENDBRANCH  21  23
ENDBRANCH  14  16
ENDBRANCH  10  14
BRANCH  13  25
HETATM   25  N4  UNL     1      26.768   2.852  51.095  1.00  0.00    -0.323 N 
HETATM   26  C18 UNL     1      26.319   3.426  49.909  1.00  0.00     0.245 C 
HETATM   27  O2  UNL     1      25.172   3.253  49.382  1.00  0.00    -0.268 OA
HETATM   28  H12 UNL     1      27.692   2.997  51.513  1.00  0.00     0.169 HD
BRANCH  26  29
HETATM   29  C19 UNL     1      27.189   4.328  49.130  1.00  0.00     0.072 C 
HETATM   30  C20 UNL     1      27.031   5.592  48.864  1.00  0.00     0.008 C 
BRANCH  30  31
HETATM   31  C21 UNL     1      28.033   6.302  48.062  1.00  0.00     0.299 C 
BRANCH  31  32
HETATM   32  N5  UNL     1      27.834   7.755  48.028  1.00  0.00     0.083 N 
HETATM   33  C22 UNL     1      26.855   8.099  47.002  1.00  0.00     0.309 C 
HETATM   34  C23 UNL     1      27.222   8.186  49.299  1.00  0.00     0.309 C 
ENDBRANCH  31  32
ENDBRANCH  30  31
ENDBRANCH  26  29
ENDBRANCH  13  25
TORSDOF 7
ENDMDL
MODEL 7
REMARK VINA RESULT:      -7.9      4.240      7.872
REMARK  7 active torsions:
REMARK  status: ('A' for Active; 'I' for Inactive)
REMARK    1  A    between atoms: C8_10  and  N3_11 
REMARK    2  A    between atoms: N3_11  and  C9_12 
REMARK    3  A    between atoms: C13_17  and  O1_18 
REMARK    4  A    between atoms: C17_22  and  N4_23 
REMARK       I    between atoms: N4_23  and  C18_24 
REMARK    5  A    between atoms: C18_24  and  C19_26 
REMARK    6  A    between atoms: C20_27  and  C21_28 
REMARK    7  A    between atoms: C21_28  and  N5_29 
ROOT
HETATM    1  C1  UNL     1      18.517  -1.107  53.416  1.00  0.00     0.050 C 
HETATM    2  C2  UNL     1      19.975  -0.775  53.264  1.00  0.00    -0.033 A 
HETATM    3  C3  UNL     1      20.701  -1.246  54.368  1.00  0.00     0.041 A 
HETATM    4  C4  UNL     1      22.063  -1.027  54.397  1.00  0.00     0.069 A 
HETATM    5  N1  UNL     1      22.855  -1.423  55.434  1.00  0.00    -0.259 NA
HETATM    6  C5  UNL     1      24.174  -1.169  55.439  1.00  0.00     0.142 A 
HETATM    7  C6  UNL     1      24.825  -0.492  54.400  1.00  0.00     0.089 A 
HETATM    8  C7  UNL     1      26.216  -0.290  54.548  1.00  0.00     0.103 C 
HETATM    9  N2  UNL     1      27.335  -0.131  54.670  1.00  0.00    -0.191 NA
HETATM   10  C8  UNL     1      24.008  -0.108  53.374  1.00  0.00     0.067 A 
HETATM   11  C15 UNL     1      22.636  -0.356  53.340  1.00  0.00     0.023 A 
HETATM   12  C16 UNL     1      21.965   0.133  52.217  1.00  0.00     0.046 A 
HETATM   13  C17 UNL     1      20.613  -0.114  52.242  1.00  0.00     0.042 A 
ENDROOT
BRANCH  10  14
HETATM   14  N3  UNL     1      24.668   0.599  52.313  1.00  0.00    -0.354 N 
HETATM   15  H6  UNL     1      25.404   0.169  51.733  1.00  0.00     0.166 HD
BRANCH  14  16
HETATM   16  C9  UNL     1      24.286   1.970  52.058  1.00  0.00     0.035 A 
HETATM   17  C10 UNL     1      23.931   2.374  50.789  1.00  0.00     0.032 A 
HETATM   18  C11 UNL     1      23.576   3.644  50.477  1.00  0.00     0.047 A 
HETATM   19  C12 UNL     1      23.587   4.541  51.509  1.00  0.00     0.149 A 
HETATM   20  F1  UNL     1      23.239   5.837  51.273  1.00  0.00    -0.203 F 
HETATM   21  C13 UNL     1      23.936   4.203  52.823  1.00  0.00     0.106 A 
HETATM   22  C14 UNL     1      24.296   2.891  53.115  1.00  0.00     0.069 A 
BRANCH  21  23
HETATM   23  O1  UNL     1      23.907   5.220  53.794  1.00  0.00    -0.358 OA
HETATM   24  H9  UNL     1      23.568   4.919  54.702  1.00  0.00     0.217 HD
ENDBRANCH  21  23
ENDBRANCH  14  16
ENDBRANCH  10  14
BRANCH  13  25
HETATM   25  N4  UNL     1      19.622   0.220  51.282  1.00  0.00    -0.323 N 
HETATM   26  C18 UNL     1      19.015   1.401  50.864  1.00  0.00     0.245 C 
HETATM   27  O2  UNL     1      19.259   2.567  51.317  1.00  0.00    -0.268 OA
HETATM   28  H12 UNL     1      19.423  -0.714  50.913  1.00  0.00     0.169 HD
BRANCH  26  29
HETATM   29  C19 UNL     1      17.989   1.388  49.806  1.00  0.00     0.072 C 
HETATM   30  C20 UNL     1      17.261   2.369  49.357  1.00  0.00     0.008 C 
BRANCH  30  31
HETATM   31  C21 UNL     1      16.288   2.129  48.285  1.00  0.00     0.299 C 
BRANCH  31  32
HETATM   32  N5  UNL     1      15.028   2.858  48.463  1.00  0.00     0.083 N 
HETATM   33  C22 UNL     1      14.311   2.334  49.621  1.00  0.00     0.309 C 
HETATM   34  C23 UNL     1      15.328   4.261  48.803  1.00  0.00     0.309 C 
ENDBRANCH  31  32
ENDBRANCH  30  31
ENDBRANCH  26  29
ENDBRANCH  13  25
TORSDOF 7
ENDMDL
MODEL 8
REMARK VINA RESULT:      -7.9      4.235      8.847
REMARK  7 active torsions:
REMARK  status: ('A' for Active; 'I' for Inactive)
REMARK    1  A    between atoms: C8_10  and  N3_11 
REMARK    2  A    between atoms: N3_11  and  C9_12 
REMARK    3  A    between atoms: C13_17  and  O1_18 
REMARK    4  A    between atoms: C17_22  and  N4_23 
REMARK       I    between atoms: N4_23  and  C18_24 
REMARK    5  A    between atoms: C18_24  and  C19_26 
REMARK    6  A    between atoms: C20_27  and  C21_28 
REMARK    7  A    between atoms: C21_28  and  N5_29 
ROOT
HETATM    1  C1  UNL     1      20.715  -1.730  54.268  1.00  0.00     0.050 C 
HETATM    2  C2  UNL     1      21.835  -0.905  53.697  1.00  0.00    -0.033 A 
HETATM    3  C3  UNL     1      22.992  -1.048  54.478  1.00  0.00     0.041 A 
HETATM    4  C4  UNL     1      24.124  -0.357  54.100  1.00  0.00     0.069 A 
HETATM    5  N1  UNL     1      25.292  -0.407  54.802  1.00  0.00    -0.259 NA
HETATM    6  C5  UNL     1      26.367   0.301  54.418  1.00  0.00     0.142 A 
HETATM    7  C6  UNL     1      26.371   1.129  53.289  1.00  0.00     0.089 A 
HETATM    8  C7  UNL     1      27.574   1.819  53.013  1.00  0.00     0.103 C 
HETATM    9  N2  UNL     1      28.544   2.371  52.794  1.00  0.00    -0.191 NA
HETATM   10  C8  UNL     1      25.190   1.160  52.604  1.00  0.00     0.067 A 
HETATM   11  C15 UNL     1      24.057   0.438  52.977  1.00  0.00     0.023 A 
HETATM   12  C16 UNL     1      22.936   0.616  52.164  1.00  0.00     0.046 A 
HETATM   13  C17 UNL     1      21.839  -0.096  52.588  1.00  0.00     0.042 A 
ENDROOT
BRANCH  10  14
HETATM   14  N3  UNL     1      25.184   2.020  51.453  1.00  0.00    -0.354 N 
HETATM   15  H6  UNL     1      25.770   1.839  50.623  1.00  0.00     0.166 HD
BRANCH  14  16
HETATM   16  C9  UNL     1      24.329   3.184  51.468  1.00  0.00     0.035 A 
HETATM   17  C10 UNL     1      24.068   3.849  52.647  1.00  0.00     0.032 A 
HETATM   18  C11 UNL     1      23.265   4.936  52.735  1.00  0.00     0.047 A 
HETATM   19  C12 UNL     1      22.701   5.362  51.564  1.00  0.00     0.149 A 
HETATM   20  F1  UNL     1      21.884   6.452  51.573  1.00  0.00    -0.203 F 
HETATM   21  C13 UNL     1      22.919   4.737  50.329  1.00  0.00     0.106 A 
HETATM   22  C14 UNL     1      23.749   3.622  50.268  1.00  0.00     0.069 A 
BRANCH  21  23
HETATM   23  O1  UNL     1      22.279   5.274  49.198  1.00  0.00    -0.358 OA
HETATM   24  H9  UNL     1      22.881   5.837  48.607  1.00  0.00     0.217 HD
ENDBRANCH  21  23
ENDBRANCH  14  16
ENDBRANCH  10  14
BRANCH  13  25
HETATM   25  N4  UNL     1      20.542  -0.171  52.015  1.00  0.00    -0.323 N 
HETATM   26  C18 UNL     1      19.585   0.760  51.621  1.00  0.00     0.245 C 
HETATM   27  O2  UNL     1      19.695   2.027  51.706  1.00  0.00    -0.268 OA
HETATM   28  H12 UNL     1      20.448  -1.188  51.942  1.00  0.00     0.169 HD
BRANCH  26  29
HETATM   29  C19 UNL     1      18.301   0.323  51.042  1.00  0.00     0.072 C 
HETATM   30  C20 UNL     1      17.357  -0.390  51.585  1.00  0.00     0.008 C 
BRANCH  30  31
HETATM   31  C21 UNL     1      16.148  -0.711  50.818  1.00  0.00     0.299 C 
BRANCH  31  32
HETATM   32  N5  UNL     1      14.941  -0.819  51.644  1.00  0.00     0.083 N 
HETATM   33  C22 UNL     1      14.773  -2.196  52.099  1.00  0.00     0.309 C 
HETATM   34  C23 UNL     1      15.130  -0.031  52.876  1.00  0.00     0.309 C 
ENDBRANCH  31  32
ENDBRANCH  30  31
ENDBRANCH  26  29
ENDBRANCH  13  25
TORSDOF 7
ENDMDL
MODEL 9
REMARK VINA RESULT:      -7.9      3.749      5.290
REMARK  7 active torsions:
REMARK  status: ('A' for Active; 'I' for Inactive)
REMARK    1  A    between atoms: C8_10  and  N3_11 
REMARK    2  A    between atoms: N3_11  and  C9_12 
REMARK    3  A    between atoms: C13_17  and  O1_18 
REMARK    4  A    between atoms: C17_22  and  N4_23 
REMARK       I    between atoms: N4_23  and  C18_24 
REMARK    5  A    between atoms: C18_24  and  C19_26 
REMARK    6  A    between atoms: C20_27  and  C21_28 
REMARK    7  A    between atoms: C21_28  and  N5_29 
ROOT
HETATM    1  C1  UNL     1      26.794   3.745  49.344  1.00  0.00     0.050 C 
HETATM    2  C2  UNL     1      25.837   3.140  50.334  1.00  0.00    -0.033 A 
HETATM    3  C3  UNL     1      26.370   1.956  50.864  1.00  0.00     0.041 A 
HETATM    4  C4  UNL     1      25.622   1.262  51.794  1.00  0.00     0.069 A 
HETATM    5  N1  UNL     1      26.036   0.089  52.352  1.00  0.00    -0.259 NA
HETATM    6  C5  UNL     1      25.269  -0.572  53.234  1.00  0.00     0.142 A 
HETATM    7  C6  UNL     1      24.008  -0.117  53.640  1.00  0.00     0.089 A 
HETATM    8  C7  UNL     1      23.312  -0.924  54.569  1.00  0.00     0.103 C 
HETATM    9  N2  UNL     1      22.756  -1.575  55.317  1.00  0.00    -0.191 NA
HETATM   10  C8  UNL     1      23.618   1.060  53.066  1.00  0.00     0.067 A 
HETATM   11  C15 UNL     1      24.391   1.769  52.147  1.00  0.00     0.023 A 
HETATM   12  C16 UNL     1      23.814   2.940  51.653  1.00  0.00     0.046 A 
HETATM   13  C17 UNL     1      24.603   3.589  50.734  1.00  0.00     0.042 A 
ENDROOT
BRANCH  10  14
HETATM   14  N3  UNL     1      22.320   1.523  53.468  1.00  0.00    -0.354 N 
HETATM   15  H6  UNL     1      22.189   2.268  54.168  1.00  0.00     0.166 HD
BRANCH  14  16
HETATM   16  C9  UNL     1      21.155   0.912  52.868  1.00  0.00     0.035 A 
HETATM   17  C10 UNL     1      20.929   1.015  51.512  1.00  0.00     0.032 A 
HETATM   18  C11 UNL     1      19.853   0.480  50.888  1.00  0.00     0.047 A 
HETATM   19  C12 UNL     1      18.966  -0.189  51.686  1.00  0.00     0.149 A 
HETATM   20  F1  UNL     1      17.860  -0.756  51.129  1.00  0.00    -0.203 F 
HETATM   21  C13 UNL     1      19.129  -0.333  53.070  1.00  0.00     0.106 A 
HETATM   22  C14 UNL     1      20.245   0.227  53.685  1.00  0.00     0.069 A 
BRANCH  21  23
HETATM   23  O1  UNL     1      18.144  -1.044  53.779  1.00  0.00    -0.358 OA
HETATM   24  H9  UNL     1      17.980  -1.983  53.433  1.00  0.00     0.217 HD
ENDBRANCH  21  23
ENDBRANCH  14  16
ENDBRANCH  10  14
BRANCH  13  25
HETATM   25  N4  UNL     1      24.355   4.799  50.034  1.00  0.00    -0.323 N 
HETATM   26  C18 UNL     1      24.155   6.126  50.404  1.00  0.00     0.245 C 
HETATM   27  O2  UNL     1      24.155   6.579  51.595  1.00  0.00    -0.268 OA
HETATM   28  H12 UNL     1      24.356   4.442  49.074  1.00  0.00     0.169 HD
BRANCH  26  29
HETATM   29  C19 UNL     1      23.917   7.165  49.385  1.00  0.00     0.072 C 
HETATM   30  C20 UNL     1      24.614   7.447  48.322  1.00  0.00     0.008 C 
BRANCH  30  31
HETATM   31  C21 UNL     1      24.188   8.536  47.435  1.00  0.00     0.299 C 
BRANCH  31  32
HETATM   32  N5  UNL     1      25.296   9.376  46.966  1.00  0.00     0.083 N 
HETATM   33  C22 UNL     1      25.816  10.174  48.072  1.00  0.00     0.309 C 
HETATM   34  C23 UNL     1      26.417   8.510  46.559  1.00  0.00     0.309 C 
ENDBRANCH  31  32
ENDBRANCH  30  31
ENDBRANCH  26  29
ENDBRANCH  13  25
TORSDOF 7
ENDMDL
