MODEL 1
REMARK VINA RESULT:      -7.7      0.000      0.000
REMARK  6 active torsions:
REMARK  status: ('A' for Active; 'I' for Inactive)
REMARK    1  A    between atoms: N1_1  and  C1_2 
REMARK    2  A    between atoms: N2_3  and  C2_4 
REMARK    3  A    between atoms: N3_10  and  C8_11 
REMARK    4  A    between atoms: C8_11  and  C9_12 
REMARK    5  A    between atoms: C9_12  and  C10_13 
REMARK    6  A    between atoms: C10_13  and  N4_14 
ROOT
HETATM    1  C2  UNL     1      22.397   2.871  52.169  1.00  0.00     0.060 A 
HETATM    2  C3  UNL     1      21.014   2.795  52.097  1.00  0.00     0.034 A 
HETATM    3  C4  UNL     1      20.319   1.743  52.687  1.00  0.00     0.041 A 
HETATM    4  C5  UNL     1      21.032   0.760  53.358  1.00  0.00     0.096 A 
HETATM    5  C6  UNL     1      22.386   0.842  53.426  1.00  0.00     0.073 A 
HETATM    6  C7  UNL     1      23.074   1.879  52.844  1.00  0.00     0.064 A 
HETATM    7  N3  UNL     1      23.179  -0.120  54.081  1.00  0.00    -0.313 N 
HETATM    8  C15 UNL     1      22.439  -1.200  54.674  1.00  0.00     0.248 C 
HETATM    9  O2  UNL     1      22.936  -1.896  55.603  1.00  0.00    -0.271 OA
HETATM   10  C16 UNL     1      21.048  -1.524  54.196  1.00  0.00     0.279 C 
HETATM   11  O3  UNL     1      20.361  -0.303  53.958  1.00  0.00    -0.340 OA
ENDROOT
BRANCH   7  12
HETATM   12  C8  UNL     1      24.652  -0.123  54.211  1.00  0.00     0.134 C 
BRANCH  12  13
HETATM   13  C9  UNL     1      25.285  -0.807  53.037  1.00  0.00     0.040 C 
BRANCH  13  14
HETATM   14  C10 UNL     1      26.265  -0.004  52.257  1.00  0.00     0.118 C 
BRANCH  14  15
HETATM   15  N4  UNL     1      27.357   0.573  52.848  1.00  0.00    -0.408 N 
HETATM   16  C11 UNL     1      28.422  -0.139  53.410  1.00  0.00     0.143 C 
HETATM   17  C12 UNL     1      28.589   0.324  54.844  1.00  0.00     0.187 C 
HETATM   18  O1  UNL     1      29.018   1.646  54.851  1.00  0.00    -0.388 OA
HETATM   19  C13 UNL     1      28.726   2.314  53.671  1.00  0.00     0.187 C 
HETATM   20  C14 UNL     1      27.360   1.976  53.105  1.00  0.00     0.143 C 
ENDBRANCH  14  15
ENDBRANCH  13  14
ENDBRANCH  12  13
ENDBRANCH   7  12
BRANCH   1  21
HETATM   21  N2  UNL     1      22.894   4.020  51.501  1.00  0.00    -0.245 NA
HETATM   22  C1  UNL     1      23.476   4.912  52.252  1.00  0.00     0.200 C 
BRANCH  22  23
HETATM   23  N1  UNL     1      24.083   6.157  51.986  1.00  0.00    -0.394 N 
HETATM   24  H1  UNL     1      23.318   6.897  52.004  1.00  0.00     0.156 HD
HETATM   25  H2  UNL     1      25.111   6.289  51.808  1.00  0.00     0.156 HD
ENDBRANCH  22  23
ENDBRANCH   1  21
TORSDOF 6
ENDMDL
MODEL 2
REMARK VINA RESULT:      -7.3      2.127      4.335
REMARK  6 active torsions:
REMARK  status: ('A' for Active; 'I' for Inactive)
REMARK    1  A    between atoms: N1_1  and  C1_2 
REMARK    2  A    between atoms: N2_3  and  C2_4 
REMARK    3  A    between atoms: N3_10  and  C8_11 
REMARK    4  A    between atoms: C8_11  and  C9_12 
REMARK    5  A    between atoms: C9_12  and  C10_13 
REMARK    6  A    between atoms: C10_13  and  N4_14 
ROOT
HETATM    1  C2  UNL     1      21.844  -0.881  54.481  1.00  0.00     0.060 A 
HETATM    2  C3  UNL     1      20.614  -1.501  54.314  1.00  0.00     0.034 A 
HETATM    3  C4  UNL     1      19.665  -0.993  53.432  1.00  0.00     0.041 A 
HETATM    4  C5  UNL     1      19.966   0.153  52.710  1.00  0.00     0.096 A 
HETATM    5  C6  UNL     1      21.172   0.755  52.877  1.00  0.00     0.073 A 
HETATM    6  C7  UNL     1      22.110   0.255  53.748  1.00  0.00     0.064 A 
HETATM    7  N3  UNL     1      21.546   1.924  52.188  1.00  0.00    -0.313 N 
HETATM    8  C15 UNL     1      20.546   2.433  51.291  1.00  0.00     0.248 C 
HETATM    9  O2  UNL     1      20.858   3.203  50.339  1.00  0.00    -0.271 OA
HETATM   10  C16 UNL     1      19.098   2.058  51.469  1.00  0.00     0.279 C 
HETATM   11  O3  UNL     1      19.034   0.682  51.820  1.00  0.00    -0.340 OA
ENDROOT
BRANCH   7  12
HETATM   12  C8  UNL     1      22.828   2.652  52.299  1.00  0.00     0.134 C 
BRANCH  12  13
HETATM   13  C9  UNL     1      23.904   1.947  51.530  1.00  0.00     0.040 C 
BRANCH  13  14
HETATM   14  C10 UNL     1      25.306   2.292  51.892  1.00  0.00     0.118 C 
BRANCH  14  15
HETATM   15  N4  UNL     1      26.123   1.402  52.536  1.00  0.00    -0.408 N 
HETATM   16  C11 UNL     1      26.690   0.272  51.939  1.00  0.00     0.143 C 
HETATM   17  C12 UNL     1      26.307  -0.937  52.770  1.00  0.00     0.187 C 
HETATM   18  O1  UNL     1      26.928  -0.857  54.010  1.00  0.00    -0.388 OA
HETATM   19  C13 UNL     1      27.302   0.437  54.343  1.00  0.00     0.187 C 
HETATM   20  C14 UNL     1      26.277   1.484  53.952  1.00  0.00     0.143 C 
ENDBRANCH  14  15
ENDBRANCH  13  14
ENDBRANCH  12  13
ENDBRANCH   7  12
BRANCH   1  21
HETATM   21  N2  UNL     1      22.652  -1.565  55.426  1.00  0.00    -0.245 NA
HETATM   22  C1  UNL     1      23.883  -1.150  55.532  1.00  0.00     0.200 C 
BRANCH  22  23
HETATM   23  N1  UNL     1      24.976  -1.550  56.329  1.00  0.00    -0.394 N 
HETATM   24  H1  UNL     1      24.683  -1.453  57.347  1.00  0.00     0.156 HD
HETATM   25  H2  UNL     1      25.898  -1.881  55.946  1.00  0.00     0.156 HD
ENDBRANCH  22  23
ENDBRANCH   1  21
TORSDOF 6
ENDMDL
MODEL 3
REMARK VINA RESULT:      -7.0      1.986      6.077
REMARK  6 active torsions:
REMARK  status: ('A' for Active; 'I' for Inactive)
REMARK    1  A    between atoms: N1_1  and  C1_2 
REMARK    2  A    between atoms: N2_3  and  C2_4 
REMARK    3  A    between atoms: N3_10  and  C8_11 
REMARK    4  A    between atoms: C8_11  and  C9_12 
REMARK    5  A    between atoms: C9_12  and  C10_13 
REMARK    6  A    between atoms: C10_13  and  N4_14 
ROOT
HETATM    1  C2  UNL     1      23.433  -0.558  53.623  1.00  0.00     0.060 A 
HETATM    2  C3  UNL     1      23.700  -1.069  54.885  1.00  0.00     0.034 A 
HETATM    3  C4  UNL     1      24.964  -0.953  55.456  1.00  0.00     0.041 A 
HETATM    4  C5  UNL     1      25.967  -0.313  54.742  1.00  0.00     0.096 A 
HETATM    5  C6  UNL     1      25.699   0.186  53.508  1.00  0.00     0.073 A 
HETATM    6  C7  UNL     1      24.452   0.072  52.942  1.00  0.00     0.064 A 
HETATM    7  N3  UNL     1      26.665   0.840  52.720  1.00  0.00    -0.313 N 
HETATM    8  C15 UNL     1      27.963   0.938  53.328  1.00  0.00     0.248 C 
HETATM    9  O2  UNL     1      28.794   1.811  52.950  1.00  0.00    -0.271 OA
HETATM   10  C16 UNL     1      28.361  -0.003  54.435  1.00  0.00     0.279 C 
HETATM   11  O3  UNL     1      27.241  -0.183  55.292  1.00  0.00    -0.340 OA
ENDROOT
BRANCH   7  12
HETATM   12  C8  UNL     1      26.475   1.415  51.372  1.00  0.00     0.134 C 
BRANCH  12  13
HETATM   13  C9  UNL     1      26.050   2.850  51.464  1.00  0.00     0.040 C 
BRANCH  13  14
HETATM   14  C10 UNL     1      24.888   3.248  50.624  1.00  0.00     0.118 C 
BRANCH  14  15
HETATM   15  N4  UNL     1      23.612   2.854  50.927  1.00  0.00    -0.408 N 
HETATM   16  C11 UNL     1      22.794   2.100  50.079  1.00  0.00     0.143 C 
HETATM   17  C12 UNL     1      21.496   2.859  49.886  1.00  0.00     0.187 C 
HETATM   18  O1  UNL     1      20.803   2.894  51.090  1.00  0.00    -0.388 OA
HETATM   19  C13 UNL     1      21.623   2.690  52.190  1.00  0.00     0.187 C 
HETATM   20  C14 UNL     1      22.966   3.384  52.083  1.00  0.00     0.143 C 
ENDBRANCH  14  15
ENDBRANCH  13  14
ENDBRANCH  12  13
ENDBRANCH   7  12
BRANCH   1  21
HETATM   21  N2  UNL     1      22.087  -0.788  53.239  1.00  0.00    -0.245 NA
HETATM   22  C1  UNL     1      21.306  -1.282  54.158  1.00  0.00     0.200 C 
BRANCH  22  23
HETATM   23  N1  UNL     1      19.943  -1.646  54.180  1.00  0.00    -0.394 N 
HETATM   24  H1  UNL     1      19.654  -1.862  53.179  1.00  0.00     0.156 HD
HETATM   25  H2  UNL     1      19.355  -1.687  55.050  1.00  0.00     0.156 HD
ENDBRANCH  22  23
ENDBRANCH   1  21
TORSDOF 6
ENDMDL
MODEL 4
REMARK VINA RESULT:      -7.0      3.222      6.083
REMARK  6 active torsions:
REMARK  status: ('A' for Active; 'I' for Inactive)
REMARK    1  A    between atoms: N1_1  and  C1_2 
REMARK    2  A    between atoms: N2_3  and  C2_4 
REMARK    3  A    between atoms: N3_10  and  C8_11 
REMARK    4  A    between atoms: C8_11  and  C9_12 
REMARK    5  A    between atoms: C9_12  and  C10_13 
REMARK    6  A    between atoms: C10_13  and  N4_14 
ROOT
HETATM    1  C2  UNL     1      23.476  -0.549  53.534  1.00  0.00     0.060 A 
HETATM    2  C3  UNL     1      23.687  -1.002  54.827  1.00  0.00     0.034 A 
HETATM    3  C4  UNL     1      24.926  -0.863  55.446  1.00  0.00     0.041 A 
HETATM    4  C5  UNL     1      25.961  -0.257  54.747  1.00  0.00     0.096 A 
HETATM    5  C6  UNL     1      25.747   0.186  53.481  1.00  0.00     0.073 A 
HETATM    6  C7  UNL     1      24.525   0.048  52.868  1.00  0.00     0.064 A 
HETATM    7  N3  UNL     1      26.748   0.802  52.707  1.00  0.00    -0.313 N 
HETATM    8  C15 UNL     1      28.019   0.926  53.364  1.00  0.00     0.248 C 
HETATM    9  O2  UNL     1      28.869   1.779  52.982  1.00  0.00    -0.271 OA
HETATM   10  C16 UNL     1      28.366   0.035  54.528  1.00  0.00     0.279 C 
HETATM   11  O3  UNL     1      27.210  -0.105  55.344  1.00  0.00    -0.340 OA
ENDROOT
BRANCH   7  12
HETATM   12  C8  UNL     1      26.617   1.316  51.326  1.00  0.00     0.134 C 
BRANCH  12  13
HETATM   13  C9  UNL     1      26.178   2.749  51.335  1.00  0.00     0.040 C 
BRANCH  13  14
HETATM   14  C10 UNL     1      25.792   3.328  50.019  1.00  0.00     0.118 C 
BRANCH  14  15
HETATM   15  N4  UNL     1      26.203   4.576  49.634  1.00  0.00    -0.408 N 
HETATM   16  C11 UNL     1      25.495   5.756  49.887  1.00  0.00     0.143 C 
HETATM   17  C12 UNL     1      25.273   6.460  48.562  1.00  0.00     0.187 C 
HETATM   18  O1  UNL     1      26.495   6.894  48.064  1.00  0.00    -0.388 OA
HETATM   19  C13 UNL     1      27.571   6.197  48.594  1.00  0.00     0.187 C 
HETATM   20  C14 UNL     1      27.314   4.711  48.750  1.00  0.00     0.143 C 
ENDBRANCH  14  15
ENDBRANCH  13  14
ENDBRANCH  12  13
ENDBRANCH   7  12
BRANCH   1  21
HETATM   21  N2  UNL     1      22.146  -0.793  53.103  1.00  0.00    -0.245 NA
HETATM   22  C1  UNL     1      21.272  -1.019  54.044  1.00  0.00     0.200 C 
BRANCH  22  23
HETATM   23  N1  UNL     1      19.890  -1.299  54.037  1.00  0.00    -0.394 N 
HETATM   24  H1  UNL     1      19.561  -1.261  53.025  1.00  0.00     0.156 HD
HETATM   25  H2  UNL     1      19.323  -1.505  54.898  1.00  0.00     0.156 HD
ENDBRANCH  22  23
ENDBRANCH   1  21
TORSDOF 6
ENDMDL
MODEL 5
REMARK VINA RESULT:      -7.0      2.327      5.154
REMARK  6 active torsions:
REMARK  status: ('A' for Active; 'I' for Inactive)
REMARK    1  A    between atoms: N1_1  and  C1_2 
REMARK    2  A    between atoms: N2_3  and  C2_4 
REMARK    3  A    between atoms: N3_10  and  C8_11 
REMARK    4  A    between atoms: C8_11  and  C9_12 
REMARK    5  A    between atoms: C9_12  and  C10_13 
REMARK    6  A    between atoms: C10_13  and  N4_14 
ROOT
HETATM    1  C2  UNL     1      26.493   1.424  52.539  1.00  0.00     0.060 A 
HETATM    2  C3  UNL     1      27.305   0.891  53.529  1.00  0.00     0.034 A 
HETATM    3  C4  UNL     1      26.804  -0.013  54.462  1.00  0.00     0.041 A 
HETATM    4  C5  UNL     1      25.467  -0.379  54.390  1.00  0.00     0.096 A 
HETATM    5  C6  UNL     1      24.678   0.147  53.418  1.00  0.00     0.073 A 
HETATM    6  C7  UNL     1      25.171   1.039  52.497  1.00  0.00     0.064 A 
HETATM    7  N3  UNL     1      23.313  -0.170  53.286  1.00  0.00    -0.313 N 
HETATM    8  C15 UNL     1      22.818  -1.096  54.266  1.00  0.00     0.248 C 
HETATM    9  O2  UNL     1      21.769  -1.768  54.055  1.00  0.00    -0.271 OA
HETATM   10  C16 UNL     1      23.543  -1.286  55.572  1.00  0.00     0.279 C 
HETATM   11  O3  UNL     1      24.941  -1.282  55.311  1.00  0.00    -0.340 OA
ENDROOT
BRANCH   7  12
HETATM   12  C8  UNL     1      22.373   0.346  52.268  1.00  0.00     0.134 C 
BRANCH  12  13
HETATM   13  C9  UNL     1      21.631   1.540  52.789  1.00  0.00     0.040 C 
BRANCH  13  14
HETATM   14  C10 UNL     1      21.127   2.499  51.769  1.00  0.00     0.118 C 
BRANCH  14  15
HETATM   15  N4  UNL     1      21.839   3.613  51.415  1.00  0.00    -0.408 N 
HETATM   16  C11 UNL     1      21.738   4.258  50.177  1.00  0.00     0.143 C 
HETATM   17  C12 UNL     1      23.130   4.344  49.581  1.00  0.00     0.187 C 
HETATM   18  O1  UNL     1      23.906   5.201  50.351  1.00  0.00    -0.388 OA
HETATM   19  C13 UNL     1      23.421   5.354  51.642  1.00  0.00     0.187 C 
HETATM   20  C14 UNL     1      22.902   4.066  52.252  1.00  0.00     0.143 C 
ENDBRANCH  14  15
ENDBRANCH  13  14
ENDBRANCH  12  13
ENDBRANCH   7  12
BRANCH   1  21
HETATM   21  N2  UNL     1      27.208   2.320  51.702  1.00  0.00    -0.245 NA
HETATM   22  C1  UNL     1      26.489   3.032  50.880  1.00  0.00     0.200 C 
BRANCH  22  23
HETATM   23  N1  UNL     1      26.803   4.007  49.911  1.00  0.00    -0.394 N 
HETATM   24  H1  UNL     1      27.864   4.063  49.846  1.00  0.00     0.156 HD
HETATM   25  H2  UNL     1      26.089   4.556  49.369  1.00  0.00     0.156 HD
ENDBRANCH  22  23
ENDBRANCH   1  21
TORSDOF 6
ENDMDL
MODEL 6
REMARK VINA RESULT:      -6.7      2.567      5.348
REMARK  6 active torsions:
REMARK  status: ('A' for Active; 'I' for Inactive)
REMARK    1  A    between atoms: N1_1  and  C1_2 
REMARK    2  A    between atoms: N2_3  and  C2_4 
REMARK    3  A    between atoms: N3_10  and  C8_11 
REMARK    4  A    between atoms: C8_11  and  C9_12 
REMARK    5  A    between atoms: C9_12  and  C10_13 
REMARK    6  A    between atoms: C10_13  and  N4_14 
ROOT
HETATM    1  C2  UNL     1      24.507  -0.643  54.540  1.00  0.00     0.060 A 
HETATM    2  C3  UNL     1      23.628  -1.396  55.304  1.00  0.00     0.034 A 
HETATM    3  C4  UNL     1      22.276  -1.474  54.980  1.00  0.00     0.041 A 
HETATM    4  C5  UNL     1      21.811  -0.782  53.871  1.00  0.00     0.096 A 
HETATM    5  C6  UNL     1      22.677  -0.047  53.126  1.00  0.00     0.073 A 
HETATM    6  C7  UNL     1      24.012   0.031  53.445  1.00  0.00     0.064 A 
HETATM    7  N3  UNL     1      22.280   0.688  51.993  1.00  0.00    -0.313 N 
HETATM    8  C15 UNL     1      20.879   0.599  51.685  1.00  0.00     0.248 C 
HETATM    9  O2  UNL     1      20.451   0.852  50.525  1.00  0.00    -0.271 OA
HETATM   10  C16 UNL     1      19.889   0.199  52.747  1.00  0.00     0.279 C 
HETATM   11  O3  UNL     1      20.463  -0.844  53.525  1.00  0.00    -0.340 OA
ENDROOT
BRANCH   7  12
HETATM   12  C8  UNL     1      23.140   1.515  51.120  1.00  0.00     0.134 C 
BRANCH  12  13
HETATM   13  C9  UNL     1      23.104   2.950  51.549  1.00  0.00     0.040 C 
BRANCH  13  14
HETATM   14  C10 UNL     1      22.760   3.944  50.496  1.00  0.00     0.118 C 
BRANCH  14  15
HETATM   15  N4  UNL     1      23.594   4.986  50.189  1.00  0.00    -0.408 N 
HETATM   16  C11 UNL     1      24.307   5.103  48.991  1.00  0.00     0.143 C 
HETATM   17  C12 UNL     1      25.774   5.277  49.336  1.00  0.00     0.187 C 
HETATM   18  O1  UNL     1      25.954   6.504  49.964  1.00  0.00    -0.388 OA
HETATM   19  C13 UNL     1      24.786   6.998  50.528  1.00  0.00     0.187 C 
HETATM   20  C14 UNL     1      23.939   5.933  51.198  1.00  0.00     0.143 C 
ENDBRANCH  14  15
ENDBRANCH  13  14
ENDBRANCH  12  13
ENDBRANCH   7  12
BRANCH   1  21
HETATM   21  N2  UNL     1      25.830  -0.704  55.049  1.00  0.00    -0.245 NA
HETATM   22  C1  UNL     1      26.628   0.260  54.685  1.00  0.00     0.200 C 
BRANCH  22  23
HETATM   23  N1  UNL     1      27.979   0.557  54.962  1.00  0.00    -0.394 N 
HETATM   24  H1  UNL     1      28.566   0.141  54.178  1.00  0.00     0.156 HD
HETATM   25  H2  UNL     1      28.307   1.098  55.803  1.00  0.00     0.156 HD
ENDBRANCH  22  23
ENDBRANCH   1  21
TORSDOF 6
ENDMDL
MODEL 7
REMARK VINA RESULT:      -6.6      4.501      6.271
REMARK  6 active torsions:
REMARK  status: ('A' for Active; 'I' for Inactive)
REMARK    1  A    between atoms: N1_1  and  C1_2 
REMARK    2  A    between atoms: N2_3  and  C2_4 
REMARK    3  A    between atoms: N3_10  and  C8_11 
REMARK    4  A    between atoms: C8_11  and  C9_12 
REMARK    5  A    between atoms: C9_12  and  C10_13 
REMARK    6  A    between atoms: C10_13  and  N4_14 
ROOT
HETATM    1  C2  UNL     1      27.859   5.261  48.528  1.00  0.00     0.060 A 
HETATM    2  C3  UNL     1      27.500   6.549  48.157  1.00  0.00     0.034 A 
HETATM    3  C4  UNL     1      26.218   7.035  48.395  1.00  0.00     0.041 A 
HETATM    4  C5  UNL     1      25.291   6.210  49.016  1.00  0.00     0.096 A 
HETATM    5  C6  UNL     1      25.650   4.951  49.377  1.00  0.00     0.073 A 
HETATM    6  C7  UNL     1      26.914   4.468  49.142  1.00  0.00     0.064 A 
HETATM    7  N3  UNL     1      24.764   4.053  50.002  1.00  0.00    -0.313 N 
HETATM    8  C15 UNL     1      23.445   4.575  50.229  1.00  0.00     0.248 C 
HETATM    9  O2  UNL     1      22.686   4.071  51.103  1.00  0.00    -0.271 OA
HETATM   10  C16 UNL     1      22.938   5.742  49.422  1.00  0.00     0.279 C 
HETATM   11  O3  UNL     1      24.001   6.673  49.266  1.00  0.00    -0.340 OA
ENDROOT
BRANCH   7  12
HETATM   12  C8  UNL     1      25.055   2.668  50.433  1.00  0.00     0.134 C 
BRANCH  12  13
HETATM   13  C9  UNL     1      25.624   2.654  51.820  1.00  0.00     0.040 C 
BRANCH  13  14
HETATM   14  C10 UNL     1      27.037   2.206  51.947  1.00  0.00     0.118 C 
BRANCH  14  15
HETATM   15  N4  UNL     1      27.395   1.184  52.786  1.00  0.00    -0.408 N 
HETATM   16  C11 UNL     1      26.555   0.127  53.150  1.00  0.00     0.143 C 
HETATM   17  C12 UNL     1      26.496   0.079  54.665  1.00  0.00     0.187 C 
HETATM   18  O1  UNL     1      27.741  -0.287  55.160  1.00  0.00    -0.388 OA
HETATM   19  C13 UNL     1      28.771  -0.044  54.263  1.00  0.00     0.187 C 
HETATM   20  C14 UNL     1      28.623   1.263  53.509  1.00  0.00     0.143 C 
ENDBRANCH  14  15
ENDBRANCH  13  14
ENDBRANCH  12  13
ENDBRANCH   7  12
BRANCH   1  21
HETATM   21  N2  UNL     1      29.207   4.975  48.190  1.00  0.00    -0.245 NA
HETATM   22  C1  UNL     1      30.002   6.004  48.087  1.00  0.00     0.200 C 
BRANCH  22  23
HETATM   23  N1  UNL     1      31.370   6.145  47.777  1.00  0.00    -0.394 N 
HETATM   24  H1  UNL     1      31.439   6.428  46.753  1.00  0.00     0.156 HD
HETATM   25  H2  UNL     1      32.152   5.991  48.463  1.00  0.00     0.156 HD
ENDBRANCH  22  23
ENDBRANCH   1  21
TORSDOF 6
ENDMDL
MODEL 8
REMARK VINA RESULT:      -6.6      2.889      4.575
REMARK  6 active torsions:
REMARK  status: ('A' for Active; 'I' for Inactive)
REMARK    1  A    between atoms: N1_1  and  C1_2 
REMARK    2  A    between atoms: N2_3  and  C2_4 
REMARK    3  A    between atoms: N3_10  and  C8_11 
REMARK    4  A    between atoms: C8_11  and  C9_12 
REMARK    5  A    between atoms: C9_12  and  C10_13 
REMARK    6  A    between atoms: C10_13  and  N4_14 
ROOT
HETATM    1  C2  UNL     1      21.015   0.188  52.232  1.00  0.00     0.060 A 
HETATM    2  C3  UNL     1      20.188   0.419  51.142  1.00  0.00     0.034 A 
HETATM    3  C4  UNL     1      20.614   1.195  50.067  1.00  0.00     0.041 A 
HETATM    4  C5  UNL     1      21.890   1.739  50.097  1.00  0.00     0.096 A 
HETATM    5  C6  UNL     1      22.694   1.508  51.167  1.00  0.00     0.073 A 
HETATM    6  C7  UNL     1      22.276   0.744  52.229  1.00  0.00     0.064 A 
HETATM    7  N3  UNL     1      23.996   2.033  51.273  1.00  0.00    -0.313 N 
HETATM    8  C15 UNL     1      24.409   2.836  50.155  1.00  0.00     0.248 C 
HETATM    9  O2  UNL     1      25.632   3.036  49.914  1.00  0.00    -0.271 OA
HETATM   10  C16 UNL     1      23.384   3.461  49.245  1.00  0.00     0.279 C 
HETATM   11  O3  UNL     1      22.341   2.518  49.034  1.00  0.00    -0.340 OA
ENDROOT
BRANCH   7  12
HETATM   12  C8  UNL     1      24.947   1.840  52.389  1.00  0.00     0.134 C 
BRANCH  12  13
HETATM   13  C9  UNL     1      25.636   0.514  52.275  1.00  0.00     0.040 C 
BRANCH  13  14
HETATM   14  C10 UNL     1      26.092  -0.103  53.550  1.00  0.00     0.118 C 
BRANCH  14  15
HETATM   15  N4  UNL     1      27.418  -0.332  53.804  1.00  0.00    -0.408 N 
HETATM   16  C11 UNL     1      28.195   0.419  54.692  1.00  0.00     0.143 C 
HETATM   17  C12 UNL     1      29.408   0.928  53.936  1.00  0.00     0.187 C 
HETATM   18  O1  UNL     1      30.219  -0.147  53.596  1.00  0.00    -0.388 OA
HETATM   19  C13 UNL     1      29.536  -1.355  53.582  1.00  0.00     0.187 C 
HETATM   20  C14 UNL     1      28.142  -1.257  52.995  1.00  0.00     0.143 C 
ENDBRANCH  14  15
ENDBRANCH  13  14
ENDBRANCH  12  13
ENDBRANCH   7  12
BRANCH   1  21
HETATM   21  N2  UNL     1      20.380  -0.624  53.208  1.00  0.00    -0.245 NA
HETATM   22  C1  UNL     1      19.092  -0.778  53.074  1.00  0.00     0.200 C 
BRANCH  22  23
HETATM   23  N1  UNL     1      18.119  -1.484  53.811  1.00  0.00    -0.394 N 
HETATM   24  H1  UNL     1      17.450  -0.767  54.227  1.00  0.00     0.156 HD
HETATM   25  H2  UNL     1      18.091  -2.530  53.906  1.00  0.00     0.156 HD
ENDBRANCH  22  23
ENDBRANCH   1  21
TORSDOF 6
ENDMDL
MODEL 9
REMARK VINA RESULT:      -6.6      3.004      6.081
REMARK  6 active torsions:
REMARK  status: ('A' for Active; 'I' for Inactive)
REMARK    1  A    between atoms: N1_1  and  C1_2 
REMARK    2  A    between atoms: N2_3  and  C2_4 
REMARK    3  A    between atoms: N3_10  and  C8_11 
REMARK    4  A    between atoms: C8_11  and  C9_12 
REMARK    5  A    between atoms: C9_12  and  C10_13 
REMARK    6  A    between atoms: C10_13  and  N4_14 
ROOT
HETATM    1  C2  UNL     1      20.931  -0.322  53.466  1.00  0.00     0.060 A 
HETATM    2  C3  UNL     1      21.225  -1.301  54.404  1.00  0.00     0.034 A 
HETATM    3  C4  UNL     1      22.530  -1.512  54.840  1.00  0.00     0.041 A 
HETATM    4  C5  UNL     1      23.547  -0.723  54.322  1.00  0.00     0.096 A 
HETATM    5  C6  UNL     1      23.252   0.235  53.405  1.00  0.00     0.073 A 
HETATM    6  C7  UNL     1      21.965   0.444  52.973  1.00  0.00     0.064 A 
HETATM    7  N3  UNL     1      24.229   1.068  52.828  1.00  0.00    -0.313 N 
HETATM    8  C15 UNL     1      25.568   0.824  53.288  1.00  0.00     0.248 C 
HETATM    9  O2  UNL     1      26.463   1.709  53.184  1.00  0.00    -0.271 OA
HETATM   10  C16 UNL     1      25.934  -0.500  53.906  1.00  0.00     0.279 C 
HETATM   11  O3  UNL     1      24.861  -0.914  54.743  1.00  0.00    -0.340 OA
ENDROOT
BRANCH   7  12
HETATM   12  C8  UNL     1      24.013   2.135  51.827  1.00  0.00     0.134 C 
BRANCH  12  13
HETATM   13  C9  UNL     1      23.859   3.466  52.498  1.00  0.00     0.040 C 
BRANCH  13  14
HETATM   14  C10 UNL     1      22.671   4.271  52.101  1.00  0.00     0.118 C 
BRANCH  14  15
HETATM   15  N4  UNL     1      22.782   5.358  51.277  1.00  0.00    -0.408 N 
HETATM   16  C11 UNL     1      23.976   5.788  50.688  1.00  0.00     0.143 C 
HETATM   17  C12 UNL     1      24.182   7.243  51.061  1.00  0.00     0.187 C 
HETATM   18  O1  UNL     1      23.202   8.016  50.450  1.00  0.00    -0.388 OA
HETATM   19  C13 UNL     1      22.079   7.282  50.098  1.00  0.00     0.187 C 
HETATM   20  C14 UNL     1      21.678   6.251  51.135  1.00  0.00     0.143 C 
ENDBRANCH  14  15
ENDBRANCH  13  14
ENDBRANCH  12  13
ENDBRANCH   7  12
BRANCH   1  21
HETATM   21  N2  UNL     1      19.545  -0.281  53.167  1.00  0.00    -0.245 NA
HETATM   22  C1  UNL     1      18.818  -1.228  53.693  1.00  0.00     0.200 C 
BRANCH  22  23
HETATM   23  N1  UNL     1      17.443  -1.537  53.641  1.00  0.00    -0.394 N 
HETATM   24  H1  UNL     1      17.175  -1.961  54.579  1.00  0.00     0.156 HD
HETATM   25  H2  UNL     1      16.828  -1.362  52.806  1.00  0.00     0.156 HD
ENDBRANCH  22  23
ENDBRANCH   1  21
TORSDOF 6
ENDMDL
