MODEL 1
REMARK VINA RESULT:      -8.5      0.000      0.000
REMARK  4 active torsions:
REMARK  status: ('A' for Active; 'I' for Inactive)
REMARK    1  A    between atoms: C3_4  and  O2_5 
REMARK    2  A    between atoms: O2_5  and  O3_6 
REMARK    3  A    between atoms: N4_22  and  C16_23 
REMARK    4  A    between atoms: C16_23  and  C17_24 
ROOT
HETATM    1  C17 UNL     1      28.979   0.785  54.662  1.00  0.00     0.143 C 
HETATM    2  C18 UNL     1      29.016  -0.542  54.047  1.00  0.00     0.060 C 
HETATM    3  N5  UNL     1      29.058  -1.601  53.574  1.00  0.00    -0.197 NA
ENDROOT
BRANCH   1   4
HETATM    4  C16 UNL     1      28.736   1.788  53.538  1.00  0.00     0.139 C 
BRANCH   4   5
HETATM    5  N4  UNL     1      27.344   1.957  53.259  1.00  0.00    -0.363 N 
HETATM    6  C2  UNL     1      26.057   1.774  53.878  1.00  0.00     0.222 C 
HETATM    7  C1  UNL     1      25.272   3.082  53.931  1.00  0.00     0.063 C 
HETATM    8  O1  UNL     1      25.381   0.763  53.253  1.00  0.00    -0.330 OA
HETATM    9  C3  UNL     1      25.019  -0.305  54.059  1.00  0.00     0.333 C 
HETATM   10  C4  UNL     1      23.535  -0.438  54.029  1.00  0.00     0.001 A 
HETATM   11  C5  UNL     1      22.888  -1.461  54.687  1.00  0.00     0.012 A 
HETATM   12  C9  UNL     1      22.773   0.486  53.317  1.00  0.00     0.041 A 
HETATM   13  C6  UNL     1      21.502  -1.599  54.660  1.00  0.00     0.003 A 
HETATM   14  C7  UNL     1      20.786  -0.653  53.935  1.00  0.00     0.029 A 
HETATM   15  C8  UNL     1      21.398   0.386  53.265  1.00  0.00     0.029 A 
HETATM   16  N1  UNL     1      20.684   1.372  52.505  1.00  0.00    -0.375 N 
HETATM   17  C10 UNL     1      20.879   1.489  51.050  1.00  0.00     0.229 C 
HETATM   18  H11 UNL     1      20.127   1.818  53.289  1.00  0.00     0.161 HD
HETATM   19  N2  UNL     1      22.266   1.764  50.742  1.00  0.00    -0.406 NA
HETATM   20  C11 UNL     1      22.715   2.543  49.850  1.00  0.00     0.437 C 
HETATM   21  N3  UNL     1      24.124   2.620  49.769  1.00  0.00    -0.274 NA
HETATM   22  C12 UNL     1      24.790   3.661  49.358  1.00  0.00     0.090 C 
HETATM   23  C13 UNL     1      26.215   3.260  49.454  1.00  0.00     0.075 C 
HETATM   24  C14 UNL     1      26.542   2.717  50.793  1.00  0.00    -0.005 C 
HETATM   25  C15 UNL     1      27.025   2.467  51.982  1.00  0.00     0.084 C 
BRANCH   9  26
HETATM   26  O2  UNL     1      25.559  -1.520  53.638  1.00  0.00    -0.205 OA
BRANCH  26  27
HETATM   27  O3  UNL     1      26.188  -1.345  52.513  1.00  0.00    -0.248 OA
HETATM   28  H6  UNL     1      25.630  -1.383  51.709  1.00  0.00     0.253 HD
ENDBRANCH  26  27
ENDBRANCH   9  26
ENDBRANCH   4   5
ENDBRANCH   1   4
TORSDOF 4
ENDMDL
MODEL 2
REMARK VINA RESULT:      -8.3      2.519      3.743
REMARK  4 active torsions:
REMARK  status: ('A' for Active; 'I' for Inactive)
REMARK    1  A    between atoms: C3_4  and  O2_5 
REMARK    2  A    between atoms: O2_5  and  O3_6 
REMARK    3  A    between atoms: N4_22  and  C16_23 
REMARK    4  A    between atoms: C16_23  and  C17_24 
ROOT
HETATM    1  C17 UNL     1      26.466   4.795  49.031  1.00  0.00     0.143 C 
HETATM    2  C18 UNL     1      27.839   5.081  48.615  1.00  0.00     0.060 C 
HETATM    3  N5  UNL     1      28.921   5.313  48.267  1.00  0.00    -0.197 NA
ENDROOT
BRANCH   1   4
HETATM    4  C16 UNL     1      26.541   3.681  50.071  1.00  0.00     0.139 C 
BRANCH   4   5
HETATM    5  N4  UNL     1      25.245   3.273  50.517  1.00  0.00    -0.363 N 
HETATM    6  C2  UNL     1      24.555   2.890  51.721  1.00  0.00     0.222 C 
HETATM    7  C1  UNL     1      23.359   3.799  51.991  1.00  0.00     0.063 C 
HETATM    8  O1  UNL     1      24.225   1.564  51.666  1.00  0.00    -0.330 OA
HETATM    9  C3  UNL     1      24.747   0.773  52.677  1.00  0.00     0.333 C 
HETATM   10  C4  UNL     1      23.616   0.151  53.422  1.00  0.00     0.001 A 
HETATM   11  C5  UNL     1      23.831  -0.745  54.446  1.00  0.00     0.012 A 
HETATM   12  C9  UNL     1      22.304   0.472  53.079  1.00  0.00     0.041 A 
HETATM   13  C6  UNL     1      22.781  -1.337  55.144  1.00  0.00     0.003 A 
HETATM   14  C7  UNL     1      21.491  -0.986  54.765  1.00  0.00     0.029 A 
HETATM   15  C8  UNL     1      21.236  -0.092  53.746  1.00  0.00     0.029 A 
HETATM   16  N1  UNL     1      19.914   0.284  53.330  1.00  0.00    -0.375 N 
HETATM   17  C10 UNL     1      19.430  -0.036  51.977  1.00  0.00     0.229 C 
HETATM   18  H11 UNL     1      19.585   0.754  54.222  1.00  0.00     0.161 HD
HETATM   19  N2  UNL     1      20.284   0.565  50.974  1.00  0.00    -0.406 NA
HETATM   20  C11 UNL     1      19.927   1.102  49.884  1.00  0.00     0.437 C 
HETATM   21  N3  UNL     1      20.980   1.613  49.090  1.00  0.00    -0.274 NA
HETATM   22  C12 UNL     1      20.870   2.613  48.265  1.00  0.00     0.090 C 
HETATM   23  C13 UNL     1      22.224   2.768  47.677  1.00  0.00     0.075 C 
HETATM   24  C14 UNL     1      23.270   2.847  48.723  1.00  0.00    -0.005 C 
HETATM   25  C15 UNL     1      24.246   3.188  49.524  1.00  0.00     0.084 C 
BRANCH   9  26
HETATM   26  O2  UNL     1      25.558  -0.260  52.205  1.00  0.00    -0.205 OA
BRANCH  26  27
HETATM   27  O3  UNL     1      26.654   0.242  51.717  1.00  0.00    -0.248 OA
HETATM   28  H6  UNL     1      27.250   0.664  52.371  1.00  0.00     0.253 HD
ENDBRANCH  26  27
ENDBRANCH   9  26
ENDBRANCH   4   5
ENDBRANCH   1   4
TORSDOF 4
ENDMDL
MODEL 3
REMARK VINA RESULT:      -7.7      3.119      4.682
REMARK  4 active torsions:
REMARK  status: ('A' for Active; 'I' for Inactive)
REMARK    1  A    between atoms: C3_4  and  O2_5 
REMARK    2  A    between atoms: O2_5  and  O3_6 
REMARK    3  A    between atoms: N4_22  and  C16_23 
REMARK    4  A    between atoms: C16_23  and  C17_24 
ROOT
HETATM    1  C17 UNL     1      26.120   6.496  48.500  1.00  0.00     0.143 C 
HETATM    2  C18 UNL     1      27.109   5.430  48.660  1.00  0.00     0.060 C 
HETATM    3  N5  UNL     1      27.890   4.579  48.769  1.00  0.00    -0.197 NA
ENDROOT
BRANCH   1   4
HETATM    4  C16 UNL     1      25.526   6.761  49.880  1.00  0.00     0.139 C 
BRANCH   4   5
HETATM    5  N4  UNL     1      24.503   5.819  50.216  1.00  0.00    -0.363 N 
HETATM    6  C2  UNL     1      24.094   4.964  51.300  1.00  0.00     0.222 C 
HETATM    7  C1  UNL     1      22.676   5.289  51.761  1.00  0.00     0.063 C 
HETATM    8  O1  UNL     1      24.261   3.654  50.946  1.00  0.00    -0.330 OA
HETATM    9  C3  UNL     1      25.110   2.917  51.756  1.00  0.00     0.333 C 
HETATM   10  C4  UNL     1      24.341   1.780  52.336  1.00  0.00     0.001 A 
HETATM   11  C5  UNL     1      24.944   0.832  53.133  1.00  0.00     0.012 A 
HETATM   12  C9  UNL     1      22.979   1.659  52.067  1.00  0.00     0.041 A 
HETATM   13  C6  UNL     1      24.236  -0.239  53.675  1.00  0.00     0.003 A 
HETATM   14  C7  UNL     1      22.880  -0.317  53.377  1.00  0.00     0.029 A 
HETATM   15  C8  UNL     1      22.241   0.614  52.584  1.00  0.00     0.029 A 
HETATM   16  N1  UNL     1      20.845   0.555  52.257  1.00  0.00    -0.375 N 
HETATM   17  C10 UNL     1      20.405   0.372  50.864  1.00  0.00     0.229 C 
HETATM   18  H11 UNL     1      20.439   0.671  53.230  1.00  0.00     0.161 HD
HETATM   19  N2  UNL     1      20.903   1.442  50.027  1.00  0.00    -0.406 NA
HETATM   20  C11 UNL     1      20.293   2.027  49.084  1.00  0.00     0.437 C 
HETATM   21  N3  UNL     1      21.025   3.045  48.430  1.00  0.00    -0.274 NA
HETATM   22  C12 UNL     1      20.498   4.085  47.850  1.00  0.00     0.090 C 
HETATM   23  C13 UNL     1      21.655   4.848  47.320  1.00  0.00     0.075 C 
HETATM   24  C14 UNL     1      22.680   5.084  48.362  1.00  0.00    -0.005 C 
HETATM   25  C15 UNL     1      23.528   5.584  49.224  1.00  0.00     0.084 C 
BRANCH   9  26
HETATM   26  O2  UNL     1      26.199   2.381  51.068  1.00  0.00    -0.205 OA
BRANCH  26  27
HETATM   27  O3  UNL     1      27.258   3.093  51.317  1.00  0.00    -0.248 OA
HETATM   28  H6  UNL     1      27.251   3.573  52.171  1.00  0.00     0.253 HD
ENDBRANCH  26  27
ENDBRANCH   9  26
ENDBRANCH   4   5
ENDBRANCH   1   4
TORSDOF 4
ENDMDL
MODEL 4
REMARK VINA RESULT:      -7.5      2.928      6.218
REMARK  4 active torsions:
REMARK  status: ('A' for Active; 'I' for Inactive)
REMARK    1  A    between atoms: C3_4  and  O2_5 
REMARK    2  A    between atoms: O2_5  and  O3_6 
REMARK    3  A    between atoms: N4_22  and  C16_23 
REMARK    4  A    between atoms: C16_23  and  C17_24 
ROOT
HETATM    1  C17 UNL     1      19.997   4.054  47.086  1.00  0.00     0.143 C 
HETATM    2  C18 UNL     1      21.075   3.850  46.118  1.00  0.00     0.060 C 
HETATM    3  N5  UNL     1      21.919   3.673  45.343  1.00  0.00    -0.197 NA
ENDROOT
BRANCH   1   4
HETATM    4  C16 UNL     1      20.631   4.657  48.336  1.00  0.00     0.139 C 
BRANCH   4   5
HETATM    5  N4  UNL     1      21.513   3.740  48.989  1.00  0.00    -0.363 N 
HETATM    6  C2  UNL     1      21.488   2.476  49.678  1.00  0.00     0.222 C 
HETATM    7  C1  UNL     1      22.401   1.456  49.002  1.00  0.00     0.063 C 
HETATM    8  O1  UNL     1      21.774   2.663  51.002  1.00  0.00    -0.330 OA
HETATM    9  C3  UNL     1      20.794   2.248  51.891  1.00  0.00     0.333 C 
HETATM   10  C4  UNL     1      21.379   1.209  52.785  1.00  0.00     0.001 A 
HETATM   11  C5  UNL     1      20.655   0.657  53.820  1.00  0.00     0.012 A 
HETATM   12  C9  UNL     1      22.689   0.782  52.583  1.00  0.00     0.041 A 
HETATM   13  C6  UNL     1      21.193  -0.310  54.666  1.00  0.00     0.003 A 
HETATM   14  C7  UNL     1      22.505  -0.703  54.425  1.00  0.00     0.029 A 
HETATM   15  C8  UNL     1      23.260  -0.174  53.399  1.00  0.00     0.029 A 
HETATM   16  N1  UNL     1      24.617  -0.557  53.131  1.00  0.00    -0.375 N 
HETATM   17  C10 UNL     1      25.713   0.417  53.255  1.00  0.00     0.229 C 
HETATM   18  H11 UNL     1      24.458  -1.576  52.883  1.00  0.00     0.161 HD
HETATM   19  N2  UNL     1      25.499   1.542  52.370  1.00  0.00    -0.406 NA
HETATM   20  C11 UNL     1      26.370   2.163  51.692  1.00  0.00     0.437 C 
HETATM   21  N3  UNL     1      25.877   3.230  50.907  1.00  0.00    -0.274 NA
HETATM   22  C12 UNL     1      26.410   3.643  49.793  1.00  0.00     0.090 C 
HETATM   23  C13 UNL     1      25.545   4.766  49.353  1.00  0.00     0.075 C 
HETATM   24  C14 UNL     1      24.116   4.380  49.332  1.00  0.00    -0.005 C 
HETATM   25  C15 UNL     1      22.875   4.106  49.019  1.00  0.00     0.084 C 
BRANCH   9  26
HETATM   26  O2  UNL     1      20.314   3.278  52.700  1.00  0.00    -0.205 OA
BRANCH  26  27
HETATM   27  O3  UNL     1      19.138   3.642  52.280  1.00  0.00    -0.248 OA
HETATM   28  H6  UNL     1      18.788   4.468  52.675  1.00  0.00     0.253 HD
ENDBRANCH  26  27
ENDBRANCH   9  26
ENDBRANCH   4   5
ENDBRANCH   1   4
TORSDOF 4
ENDMDL
MODEL 5
REMARK VINA RESULT:      -6.9      3.405      5.764
REMARK  4 active torsions:
REMARK  status: ('A' for Active; 'I' for Inactive)
REMARK    1  A    between atoms: C3_4  and  O2_5 
REMARK    2  A    between atoms: O2_5  and  O3_6 
REMARK    3  A    between atoms: N4_22  and  C16_23 
REMARK    4  A    between atoms: C16_23  and  C17_24 
ROOT
HETATM    1  C17 UNL     1      26.377   7.705  49.742  1.00  0.00     0.143 C 
HETATM    2  C18 UNL     1      26.440   9.160  49.604  1.00  0.00     0.060 C 
HETATM    3  N5  UNL     1      26.493  10.316  49.514  1.00  0.00    -0.197 NA
ENDROOT
BRANCH   1   4
HETATM    4  C16 UNL     1      25.389   7.202  48.694  1.00  0.00     0.139 C 
BRANCH   4   5
HETATM    5  N4  UNL     1      24.543   6.168  49.204  1.00  0.00    -0.363 N 
HETATM    6  C2  UNL     1      24.353   5.372  50.389  1.00  0.00     0.222 C 
HETATM    7  C1  UNL     1      22.948   5.547  50.958  1.00  0.00     0.063 C 
HETATM    8  O1  UNL     1      24.674   4.069  50.129  1.00  0.00    -0.330 OA
HETATM    9  C3  UNL     1      25.685   3.532  50.910  1.00  0.00     0.333 C 
HETATM   10  C4  UNL     1      25.137   2.362  51.654  1.00  0.00     0.001 A 
HETATM   11  C5  UNL     1      25.935   1.584  52.463  1.00  0.00     0.012 A 
HETATM   12  C9  UNL     1      23.789   2.036  51.530  1.00  0.00     0.041 A 
HETATM   13  C6  UNL     1      25.435   0.484  53.157  1.00  0.00     0.003 A 
HETATM   14  C7  UNL     1      24.083   0.198  53.001  1.00  0.00     0.029 A 
HETATM   15  C8  UNL     1      23.254   0.955  52.200  1.00  0.00     0.029 A 
HETATM   16  N1  UNL     1      21.857   0.679  52.017  1.00  0.00    -0.375 N 
HETATM   17  C10 UNL     1      21.331   0.307  50.693  1.00  0.00     0.229 C 
HETATM   18  H11 UNL     1      21.524   0.831  53.011  1.00  0.00     0.161 HD
HETATM   19  N2  UNL     1      21.598   1.351  49.726  1.00  0.00    -0.406 NA
HETATM   20  C11 UNL     1      20.834   1.756  48.802  1.00  0.00     0.437 C 
HETATM   21  N3  UNL     1      21.355   2.796  47.999  1.00  0.00    -0.274 NA
HETATM   22  C12 UNL     1      20.639   3.697  47.390  1.00  0.00     0.090 C 
HETATM   23  C13 UNL     1      21.626   4.554  46.688  1.00  0.00     0.075 C 
HETATM   24  C14 UNL     1      22.692   5.023  47.603  1.00  0.00    -0.005 C 
HETATM   25  C15 UNL     1      23.530   5.711  48.335  1.00  0.00     0.084 C 
BRANCH   9  26
HETATM   26  O2  UNL     1      26.776   3.084  50.166  1.00  0.00    -0.205 OA
BRANCH  26  27
HETATM   27  O3  UNL     1      27.479   4.106  49.775  1.00  0.00    -0.248 OA
HETATM   28  H6  UNL     1      28.391   4.150  50.131  1.00  0.00     0.253 HD
ENDBRANCH  26  27
ENDBRANCH   9  26
ENDBRANCH   4   5
ENDBRANCH   1   4
TORSDOF 4
ENDMDL
MODEL 6
REMARK VINA RESULT:      -6.7      3.050      6.151
REMARK  4 active torsions:
REMARK  status: ('A' for Active; 'I' for Inactive)
REMARK    1  A    between atoms: C3_4  and  O2_5 
REMARK    2  A    between atoms: O2_5  and  O3_6 
REMARK    3  A    between atoms: N4_22  and  C16_23 
REMARK    4  A    between atoms: C16_23  and  C17_24 
ROOT
HETATM    1  C17 UNL     1      22.557   7.261  49.052  1.00  0.00     0.143 C 
HETATM    2  C18 UNL     1      22.944   8.603  48.615  1.00  0.00     0.060 C 
HETATM    3  N5  UNL     1      23.237   9.666  48.254  1.00  0.00    -0.197 NA
ENDROOT
BRANCH   1   4
HETATM    4  C16 UNL     1      23.803   6.612  49.647  1.00  0.00     0.139 C 
BRANCH   4   5
HETATM    5  N4  UNL     1      23.488   5.455  50.425  1.00  0.00    -0.363 N 
HETATM    6  C2  UNL     1      24.027   4.656  51.495  1.00  0.00     0.222 C 
HETATM    7  C1  UNL     1      23.066   4.592  52.680  1.00  0.00     0.063 C 
HETATM    8  O1  UNL     1      24.384   3.425  51.021  1.00  0.00    -0.330 OA
HETATM    9  C3  UNL     1      25.719   3.085  51.181  1.00  0.00     0.333 C 
HETATM   10  C4  UNL     1      25.795   1.849  52.011  1.00  0.00     0.001 A 
HETATM   11  C5  UNL     1      26.997   1.233  52.281  1.00  0.00     0.012 A 
HETATM   12  C9  UNL     1      24.627   1.290  52.526  1.00  0.00     0.041 A 
HETATM   13  C6  UNL     1      27.080   0.075  53.049  1.00  0.00     0.003 A 
HETATM   14  C7  UNL     1      25.887  -0.446  53.540  1.00  0.00     0.029 A 
HETATM   15  C8  UNL     1      24.665   0.143  53.292  1.00  0.00     0.029 A 
HETATM   16  N1  UNL     1      23.419  -0.375  53.781  1.00  0.00    -0.375 N 
HETATM   17  C10 UNL     1      22.384  -0.853  52.850  1.00  0.00     0.229 C 
HETATM   18  H11 UNL     1      23.590  -0.269  54.822  1.00  0.00     0.161 HD
HETATM   19  N2  UNL     1      21.979   0.206  51.950  1.00  0.00    -0.406 NA
HETATM   20  C11 UNL     1      20.809   0.457  51.537  1.00  0.00     0.437 C 
HETATM   21  N3  UNL     1      20.702   1.560  50.659  1.00  0.00    -0.274 NA
HETATM   22  C12 UNL     1      19.646   2.312  50.534  1.00  0.00     0.090 C 
HETATM   23  C13 UNL     1      20.018   3.318  49.508  1.00  0.00     0.075 C 
HETATM   24  C14 UNL     1      21.303   3.980  49.830  1.00  0.00    -0.005 C 
HETATM   25  C15 UNL     1      22.269   4.815  50.117  1.00  0.00     0.084 C 
BRANCH   9  26
HETATM   26  O2  UNL     1      26.368   2.822  49.975  1.00  0.00    -0.205 OA
BRANCH  26  27
HETATM   27  O3  UNL     1      27.182   3.800  49.703  1.00  0.00    -0.248 OA
HETATM   28  H6  UNL     1      27.644   3.734  48.841  1.00  0.00     0.253 HD
ENDBRANCH  26  27
ENDBRANCH   9  26
ENDBRANCH   4   5
ENDBRANCH   1   4
TORSDOF 4
ENDMDL
MODEL 7
REMARK VINA RESULT:      -6.5      3.296      6.158
REMARK  4 active torsions:
REMARK  status: ('A' for Active; 'I' for Inactive)
REMARK    1  A    between atoms: C3_4  and  O2_5 
REMARK    2  A    between atoms: O2_5  and  O3_6 
REMARK    3  A    between atoms: N4_22  and  C16_23 
REMARK    4  A    between atoms: C16_23  and  C17_24 
ROOT
HETATM    1  C17 UNL     1      25.507   1.233  52.778  1.00  0.00     0.143 C 
HETATM    2  C18 UNL     1      26.254   0.994  54.013  1.00  0.00     0.060 C 
HETATM    3  N5  UNL     1      26.864   0.807  54.982  1.00  0.00    -0.197 NA
ENDROOT
BRANCH   1   4
HETATM    4  C16 UNL     1      24.213   0.430  52.881  1.00  0.00     0.139 C 
BRANCH   4   5
HETATM    5  N4  UNL     1      23.151   1.021  52.129  1.00  0.00    -0.363 N 
HETATM    6  C2  UNL     1      22.917   2.080  51.182  1.00  0.00     0.222 C 
HETATM    7  C1  UNL     1      22.314   1.545  49.885  1.00  0.00     0.063 C 
HETATM    8  O1  UNL     1      22.165   3.064  51.762  1.00  0.00    -0.330 OA
HETATM    9  C3  UNL     1      22.748   4.322  51.798  1.00  0.00     0.333 C 
HETATM   10  C4  UNL     1      21.873   5.269  51.051  1.00  0.00     0.001 A 
HETATM   11  C5  UNL     1      22.164   6.613  50.975  1.00  0.00     0.012 A 
HETATM   12  C9  UNL     1      20.727   4.796  50.415  1.00  0.00     0.041 A 
HETATM   13  C6  UNL     1      21.350   7.509  50.286  1.00  0.00     0.003 A 
HETATM   14  C7  UNL     1      20.218   6.989  49.668  1.00  0.00     0.029 A 
HETATM   15  C8  UNL     1      19.894   5.649  49.721  1.00  0.00     0.029 A 
HETATM   16  N1  UNL     1      18.730   5.087  49.098  1.00  0.00    -0.375 N 
HETATM   17  C10 UNL     1      17.667   4.468  49.908  1.00  0.00     0.229 C 
HETATM   18  H11 UNL     1      18.966   5.292  48.085  1.00  0.00     0.161 HD
HETATM   19  N2  UNL     1      18.195   3.371  50.690  1.00  0.00    -0.406 NA
HETATM   20  C11 UNL     1      17.636   2.260  50.930  1.00  0.00     0.437 C 
HETATM   21  N3  UNL     1      18.386   1.366  51.728  1.00  0.00    -0.274 NA
HETATM   22  C12 UNL     1      18.300   0.068  51.672  1.00  0.00     0.090 C 
HETATM   23  C13 UNL     1      19.270  -0.418  52.686  1.00  0.00     0.075 C 
HETATM   24  C14 UNL     1      20.606   0.194  52.503  1.00  0.00    -0.005 C 
HETATM   25  C15 UNL     1      21.874   0.448  52.304  1.00  0.00     0.084 C 
BRANCH   9  26
HETATM   26  O2  UNL     1      22.900   4.820  53.092  1.00  0.00    -0.205 OA
BRANCH  26  27
HETATM   27  O3  UNL     1      24.166   4.965  53.352  1.00  0.00    -0.248 OA
HETATM   28  H6  UNL     1      24.754   4.281  52.970  1.00  0.00     0.253 HD
ENDBRANCH  26  27
ENDBRANCH   9  26
ENDBRANCH   4   5
ENDBRANCH   1   4
TORSDOF 4
ENDMDL
MODEL 8
REMARK VINA RESULT:      -6.3      3.369      7.477
REMARK  4 active torsions:
REMARK  status: ('A' for Active; 'I' for Inactive)
REMARK    1  A    between atoms: C3_4  and  O2_5 
REMARK    2  A    between atoms: O2_5  and  O3_6 
REMARK    3  A    between atoms: N4_22  and  C16_23 
REMARK    4  A    between atoms: C16_23  and  C17_24 
ROOT
HETATM    1  C17 UNL     1      19.906   0.769  51.967  1.00  0.00     0.143 C 
HETATM    2  C18 UNL     1      19.289   1.098  50.681  1.00  0.00     0.060 C 
HETATM    3  N5  UNL     1      18.809   1.343  49.654  1.00  0.00    -0.197 NA
ENDROOT
BRANCH   1   4
HETATM    4  C16 UNL     1      20.115   2.087  52.708  1.00  0.00     0.139 C 
BRANCH   4   5
HETATM    5  N4  UNL     1      21.290   2.771  52.267  1.00  0.00    -0.363 N 
HETATM    6  C2  UNL     1      21.693   4.029  51.693  1.00  0.00     0.222 C 
HETATM    7  C1  UNL     1      22.713   4.743  52.575  1.00  0.00     0.063 C 
HETATM    8  O1  UNL     1      22.128   3.836  50.411  1.00  0.00    -0.330 OA
HETATM    9  C3  UNL     1      21.437   4.533  49.432  1.00  0.00     0.333 C 
HETATM   10  C4  UNL     1      22.397   5.425  48.721  1.00  0.00     0.001 A 
HETATM   11  C5  UNL     1      22.009   6.194  47.647  1.00  0.00     0.012 A 
HETATM   12  C9  UNL     1      23.724   5.486  49.142  1.00  0.00     0.041 A 
HETATM   13  C6  UNL     1      22.898   7.026  46.971  1.00  0.00     0.003 A 
HETATM   14  C7  UNL     1      24.212   7.051  47.427  1.00  0.00     0.029 A 
HETATM   15  C8  UNL     1      24.638   6.296  48.500  1.00  0.00     0.029 A 
HETATM   16  N1  UNL     1      25.987   6.300  48.988  1.00  0.00    -0.375 N 
HETATM   17  C10 UNL     1      26.810   5.080  48.936  1.00  0.00     0.229 C 
HETATM   18  H11 UNL     1      26.052   7.311  49.298  1.00  0.00     0.161 HD
HETATM   19  N2  UNL     1      26.184   4.009  49.683  1.00  0.00    -0.406 NA
HETATM   20  C11 UNL     1      26.753   3.152  50.421  1.00  0.00     0.437 C 
HETATM   21  N3  UNL     1      25.890   2.215  51.034  1.00  0.00    -0.274 NA
HETATM   22  C12 UNL     1      26.120   1.625  52.172  1.00  0.00     0.090 C 
HETATM   23  C13 UNL     1      24.942   0.748  52.387  1.00  0.00     0.075 C 
HETATM   24  C14 UNL     1      23.670   1.492  52.240  1.00  0.00    -0.005 C 
HETATM   25  C15 UNL     1      22.505   2.065  52.397  1.00  0.00     0.084 C 
BRANCH   9  26
HETATM   26  O2  UNL     1      20.848   3.704  48.478  1.00  0.00    -0.205 OA
BRANCH  26  27
HETATM   27  O3  UNL     1      21.474   2.564  48.453  1.00  0.00    -0.248 OA
HETATM   28  H6  UNL     1      21.914   2.345  47.605  1.00  0.00     0.253 HD
ENDBRANCH  26  27
ENDBRANCH   9  26
ENDBRANCH   4   5
ENDBRANCH   1   4
TORSDOF 4
ENDMDL
MODEL 9
REMARK VINA RESULT:      -6.2      3.250      6.336
REMARK  4 active torsions:
REMARK  status: ('A' for Active; 'I' for Inactive)
REMARK    1  A    between atoms: C3_4  and  O2_5 
REMARK    2  A    between atoms: O2_5  and  O3_6 
REMARK    3  A    between atoms: N4_22  and  C16_23 
REMARK    4  A    between atoms: C16_23  and  C17_24 
ROOT
HETATM    1  C17 UNL     1      23.777   7.130  47.899  1.00  0.00     0.143 C 
HETATM    2  C18 UNL     1      23.252   7.865  49.051  1.00  0.00     0.060 C 
HETATM    3  N5  UNL     1      22.832   8.463  49.951  1.00  0.00    -0.197 NA
ENDROOT
BRANCH   1   4
HETATM    4  C16 UNL     1      24.837   6.171  48.431  1.00  0.00     0.139 C 
BRANCH   4   5
HETATM    5  N4  UNL     1      24.265   4.969  48.951  1.00  0.00    -0.363 N 
HETATM    6  C2  UNL     1      23.025   4.235  48.944  1.00  0.00     0.222 C 
HETATM    7  C1  UNL     1      23.216   2.825  48.391  1.00  0.00     0.063 C 
HETATM    8  O1  UNL     1      22.466   4.256  50.191  1.00  0.00    -0.330 OA
HETATM    9  C3  UNL     1      21.199   4.813  50.271  1.00  0.00     0.333 C 
HETATM   10  C4  UNL     1      20.261   3.779  50.794  1.00  0.00     0.001 A 
HETATM   11  C5  UNL     1      18.937   4.067  51.045  1.00  0.00     0.012 A 
HETATM   12  C9  UNL     1      20.725   2.490  51.045  1.00  0.00     0.041 A 
HETATM   13  C6  UNL     1      18.054   3.111  51.541  1.00  0.00     0.003 A 
HETATM   14  C7  UNL     1      18.564   1.839  51.776  1.00  0.00     0.029 A 
HETATM   15  C8  UNL     1      19.883   1.513  51.535  1.00  0.00     0.029 A 
HETATM   16  N1  UNL     1      20.436   0.211  51.774  1.00  0.00    -0.375 N 
HETATM   17  C10 UNL     1      21.493   0.014  52.780  1.00  0.00     0.229 C 
HETATM   18  H11 UNL     1      19.865  -0.345  51.075  1.00  0.00     0.161 HD
HETATM   19  N2  UNL     1      22.652   0.822  52.467  1.00  0.00    -0.406 NA
HETATM   20  C11 UNL     1      23.870   0.498  52.591  1.00  0.00     0.437 C 
HETATM   21  N3  UNL     1      24.801   1.490  52.207  1.00  0.00    -0.274 NA
HETATM   22  C12 UNL     1      25.996   1.251  51.749  1.00  0.00     0.090 C 
HETATM   23  C13 UNL     1      26.577   2.592  51.491  1.00  0.00     0.075 C 
HETATM   24  C14 UNL     1      25.677   3.429  50.666  1.00  0.00    -0.005 C 
HETATM   25  C15 UNL     1      25.115   4.170  49.745  1.00  0.00     0.084 C 
BRANCH   9  26
HETATM   26  O2  UNL     1      21.134   5.912  51.127  1.00  0.00    -0.205 OA
BRANCH  26  27
HETATM   27  O3  UNL     1      22.207   5.949  51.862  1.00  0.00    -0.248 OA
HETATM   28  H6  UNL     1      22.339   5.177  52.451  1.00  0.00     0.253 HD
ENDBRANCH  26  27
ENDBRANCH   9  26
ENDBRANCH   4   5
ENDBRANCH   1   4
TORSDOF 4
ENDMDL
