MODEL 1
REMARK VINA RESULT:      -8.9      0.000      0.000
REMARK  2 active torsions:
REMARK  status: ('A' for Active; 'I' for Inactive)
REMARK    1  A    between atoms: C6_7  and  N1_8 
REMARK    2  A    between atoms: N1_8  and  C7_9 
ROOT
HETATM    1  C7  UNL     1      24.843   3.850  50.859  1.00  0.00     0.160 A 
HETATM    2  N2  UNL     1      23.594   3.844  50.311  1.00  0.00    -0.222 NA
HETATM    3  C8  UNL     1      22.866   2.701  50.423  1.00  0.00     0.238 A 
HETATM    4  N3  UNL     1      23.313   1.573  51.044  1.00  0.00    -0.215 NA
HETATM    5  C9  UNL     1      24.556   1.538  51.606  1.00  0.00     0.202 A 
HETATM    6  C10 UNL     1      25.309   2.713  51.494  1.00  0.00     0.129 A 
HETATM    7  N4  UNL     1      26.637   2.911  52.020  1.00  0.00    -0.379 N 
HETATM    8  C11 UNL     1      27.120   2.265  53.230  1.00  0.00     0.161 C 
HETATM    9  C12 UNL     1      27.190   0.810  53.070  1.00  0.00    -0.005 A 
HETATM   10  C13 UNL     1      28.429   0.321  53.439  1.00  0.00     0.035 A 
HETATM   11  C14 UNL     1      28.679  -1.020  53.350  1.00  0.00     0.034 A 
HETATM   12 CL1  UNL     1      30.275  -1.556  53.844  1.00  0.00    -0.084 Cl
HETATM   13  C15 UNL     1      27.688  -1.859  52.894  1.00  0.00     0.026 A 
HETATM   14  C16 UNL     1      26.443  -1.388  52.522  1.00  0.00     0.039 A 
HETATM   15  C17 UNL     1      26.180  -0.013  52.611  1.00  0.00     0.086 A 
HETATM   16  O1  UNL     1      24.873   0.319  52.203  1.00  0.00    -0.289 OA
HETATM   17  H7  UNL     1      27.157   3.588  51.382  1.00  0.00     0.160 HD
ENDROOT
BRANCH   1  18
HETATM   18  N1  UNL     1      25.618   5.030  50.730  1.00  0.00    -0.337 N 
HETATM   19  H5  UNL     1      26.295   5.149  51.517  1.00  0.00     0.167 HD
BRANCH  18  20
HETATM   20  C6  UNL     1      25.614   6.030  49.738  1.00  0.00     0.057 A 
HETATM   21  C2  UNL     1      26.608   6.091  48.669  1.00  0.00    -0.030 A 
HETATM   22  C1  UNL     1      27.582   5.199  48.562  1.00  0.00     0.045 C 
HETATM   23  C3  UNL     1      26.410   7.208  47.755  1.00  0.00     0.011 A 
HETATM   24  C4  UNL     1      25.330   7.793  48.266  1.00  0.00     0.022 A 
HETATM   25  C5  UNL     1      24.866   7.078  49.451  1.00  0.00     0.038 A 
HETATM   26 BR1  UNL     1      23.341   7.547  50.537  1.00  0.00    -0.049 Br
ENDBRANCH  18  20
ENDBRANCH   1  18
TORSDOF 2
ENDMDL
MODEL 2
REMARK VINA RESULT:      -8.8      3.954      7.125
REMARK  2 active torsions:
REMARK  status: ('A' for Active; 'I' for Inactive)
REMARK    1  A    between atoms: C6_7  and  N1_8 
REMARK    2  A    between atoms: N1_8  and  C7_9 
ROOT
HETATM    1  C7  UNL     1      26.061   1.603  52.101  1.00  0.00     0.160 A 
HETATM    2  N2  UNL     1      26.987   2.304  51.386  1.00  0.00    -0.222 NA
HETATM    3  C8  UNL     1      26.533   3.089  50.373  1.00  0.00     0.238 A 
HETATM    4  N3  UNL     1      25.218   3.211  50.036  1.00  0.00    -0.215 NA
HETATM    5  C9  UNL     1      24.260   2.526  50.727  1.00  0.00     0.202 A 
HETATM    6  C10 UNL     1      24.723   1.717  51.771  1.00  0.00     0.129 A 
HETATM    7  N4  UNL     1      23.896   0.917  52.640  1.00  0.00    -0.379 N 
HETATM    8  C11 UNL     1      22.543   1.290  53.020  1.00  0.00     0.161 C 
HETATM    9  C12 UNL     1      21.645   1.308  51.863  1.00  0.00    -0.005 A 
HETATM   10  C13 UNL     1      20.503   0.568  52.099  1.00  0.00     0.035 A 
HETATM   11  C14 UNL     1      19.550   0.467  51.124  1.00  0.00     0.034 A 
HETATM   12 CL1  UNL     1      18.128  -0.485  51.509  1.00  0.00    -0.084 Cl
HETATM   13  C15 UNL     1      19.749   1.108  49.921  1.00  0.00     0.026 A 
HETATM   14  C16 UNL     1      20.886   1.852  49.668  1.00  0.00     0.039 A 
HETATM   15  C17 UNL     1      21.867   1.960  50.664  1.00  0.00     0.086 A 
HETATM   16  O1  UNL     1      22.963   2.750  50.267  1.00  0.00    -0.289 OA
HETATM   17  H7  UNL     1      24.447   0.052  52.931  1.00  0.00     0.160 HD
ENDROOT
BRANCH   1  18
HETATM   18  N1  UNL     1      26.526   0.765  53.146  1.00  0.00    -0.337 N 
HETATM   19  H5  UNL     1      25.832   0.676  53.921  1.00  0.00     0.167 HD
BRANCH  18  20
HETATM   20  C6  UNL     1      27.736   0.059  53.290  1.00  0.00     0.057 A 
HETATM   21  C2  UNL     1      27.873  -1.357  52.962  1.00  0.00    -0.030 A 
HETATM   22  C1  UNL     1      26.859  -2.073  52.498  1.00  0.00     0.045 C 
HETATM   23  C3  UNL     1      29.214  -1.879  53.188  1.00  0.00     0.011 A 
HETATM   24  C4  UNL     1      29.855  -0.804  53.638  1.00  0.00     0.022 A 
HETATM   25  C5  UNL     1      28.959   0.347  53.695  1.00  0.00     0.038 A 
HETATM   26 BR1  UNL     1      29.426   2.124  54.284  1.00  0.00    -0.049 Br
ENDBRANCH  18  20
ENDBRANCH   1  18
TORSDOF 2
ENDMDL
MODEL 3
REMARK VINA RESULT:      -8.7      1.427      1.912
REMARK  2 active torsions:
REMARK  status: ('A' for Active; 'I' for Inactive)
REMARK    1  A    between atoms: C6_7  and  N1_8 
REMARK    2  A    between atoms: N1_8  and  C7_9 
ROOT
HETATM    1  C7  UNL     1      23.803   3.622  51.598  1.00  0.00     0.160 A 
HETATM    2  N2  UNL     1      22.526   3.462  51.148  1.00  0.00    -0.222 NA
HETATM    3  C8  UNL     1      21.987   2.216  51.225  1.00  0.00     0.238 A 
HETATM    4  N3  UNL     1      22.648   1.131  51.720  1.00  0.00    -0.215 NA
HETATM    5  C9  UNL     1      23.927   1.250  52.180  1.00  0.00     0.202 A 
HETATM    6  C10 UNL     1      24.486   2.531  52.104  1.00  0.00     0.129 A 
HETATM    7  N4  UNL     1      25.811   2.894  52.541  1.00  0.00    -0.379 N 
HETATM    8  C11 UNL     1      26.487   2.251  53.656  1.00  0.00     0.161 C 
HETATM    9  C12 UNL     1      26.757   0.838  53.377  1.00  0.00    -0.005 A 
HETATM   10  C13 UNL     1      28.081   0.521  53.610  1.00  0.00     0.035 A 
HETATM   11  C14 UNL     1      28.518  -0.757  53.397  1.00  0.00     0.034 A 
HETATM   12 CL1  UNL     1      30.212  -1.074  53.724  1.00  0.00    -0.084 Cl
HETATM   13  C15 UNL     1      27.624  -1.706  52.954  1.00  0.00     0.026 A 
HETATM   14  C16 UNL     1      26.296  -1.407  52.716  1.00  0.00     0.039 A 
HETATM   15  C17 UNL     1      25.842  -0.098  52.933  1.00  0.00     0.086 A 
HETATM   16  O1  UNL     1      24.471   0.057  52.654  1.00  0.00    -0.289 OA
HETATM   17  H7  UNL     1      26.168   3.684  51.921  1.00  0.00     0.160 HD
ENDROOT
BRANCH   1  18
HETATM   18  N1  UNL     1      24.382   4.913  51.504  1.00  0.00    -0.337 N 
HETATM   19  H5  UNL     1      24.543   5.346  52.441  1.00  0.00     0.167 HD
BRANCH  18  20
HETATM   20  C6  UNL     1      24.760   5.672  50.379  1.00  0.00     0.057 A 
HETATM   21  C2  UNL     1      24.128   6.941  50.029  1.00  0.00    -0.030 A 
HETATM   22  C1  UNL     1      23.153   7.466  50.756  1.00  0.00     0.045 C 
HETATM   23  C3  UNL     1      24.679   7.553  48.827  1.00  0.00     0.011 A 
HETATM   24  C4  UNL     1      25.612   6.673  48.474  1.00  0.00     0.022 A 
HETATM   25  C5  UNL     1      25.649   5.554  49.410  1.00  0.00     0.038 A 
HETATM   26 BR1  UNL     1      26.828   4.030  49.316  1.00  0.00    -0.049 Br
ENDBRANCH  18  20
ENDBRANCH   1  18
TORSDOF 2
ENDMDL
MODEL 4
REMARK VINA RESULT:      -8.7      3.560      6.895
REMARK  2 active torsions:
REMARK  status: ('A' for Active; 'I' for Inactive)
REMARK    1  A    between atoms: C6_7  and  N1_8 
REMARK    2  A    between atoms: N1_8  and  C7_9 
ROOT
HETATM    1  C7  UNL     1      25.413   1.231  52.992  1.00  0.00     0.160 A 
HETATM    2  N2  UNL     1      24.406   0.421  53.428  1.00  0.00    -0.222 NA
HETATM    3  C8  UNL     1      23.232   0.458  52.744  1.00  0.00     0.238 A 
HETATM    4  N3  UNL     1      23.008   1.253  51.660  1.00  0.00    -0.215 NA
HETATM    5  C9  UNL     1      23.990   2.077  51.191  1.00  0.00     0.202 A 
HETATM    6  C10 UNL     1      25.201   2.042  51.892  1.00  0.00     0.129 A 
HETATM    7  N4  UNL     1      26.377   2.814  51.572  1.00  0.00    -0.379 N 
HETATM    8  C11 UNL     1      26.733   3.198  50.216  1.00  0.00     0.161 C 
HETATM    9  C12 UNL     1      25.742   4.109  49.637  1.00  0.00    -0.005 A 
HETATM   10  C13 UNL     1      26.340   5.238  49.112  1.00  0.00     0.035 A 
HETATM   11  C14 UNL     1      25.566   6.204  48.533  1.00  0.00     0.034 A 
HETATM   12 CL1  UNL     1      26.406   7.602  47.886  1.00  0.00    -0.084 Cl
HETATM   13  C15 UNL     1      24.201   6.032  48.484  1.00  0.00     0.026 A 
HETATM   14  C16 UNL     1      23.586   4.908  49.004  1.00  0.00     0.039 A 
HETATM   15  C17 UNL     1      24.375   3.913  49.599  1.00  0.00     0.086 A 
HETATM   16  O1  UNL     1      23.614   2.829  50.079  1.00  0.00    -0.289 OA
HETATM   17  H7  UNL     1      26.899   3.027  52.476  1.00  0.00     0.160 HD
ENDROOT
BRANCH   1  18
HETATM   18  N1  UNL     1      26.635   1.215  53.710  1.00  0.00    -0.337 N 
HETATM   19  H5  UNL     1      26.658   1.932  54.469  1.00  0.00     0.167 HD
BRANCH  18  20
HETATM   20  C6  UNL     1      27.780   0.408  53.562  1.00  0.00     0.057 A 
HETATM   21  C2  UNL     1      29.127   0.874  53.881  1.00  0.00    -0.030 A 
HETATM   22  C1  UNL     1      29.359   2.096  54.338  1.00  0.00     0.045 C 
HETATM   23  C3  UNL     1      30.158  -0.129  53.653  1.00  0.00     0.011 A 
HETATM   24  C4  UNL     1      29.445  -1.161  53.211  1.00  0.00     0.022 A 
HETATM   25  C5  UNL     1      28.025  -0.825  53.162  1.00  0.00     0.038 A 
HETATM   26 BR1  UNL     1      26.600  -1.992  52.586  1.00  0.00    -0.049 Br
ENDBRANCH  18  20
ENDBRANCH   1  18
TORSDOF 2
ENDMDL
MODEL 5
REMARK VINA RESULT:      -8.6      3.301      6.737
REMARK  2 active torsions:
REMARK  status: ('A' for Active; 'I' for Inactive)
REMARK    1  A    between atoms: C6_7  and  N1_8 
REMARK    2  A    between atoms: N1_8  and  C7_9 
ROOT
HETATM    1  C7  UNL     1      24.336   3.148  52.369  1.00  0.00     0.160 A 
HETATM    2  N2  UNL     1      23.021   3.142  52.729  1.00  0.00    -0.222 NA
HETATM    3  C8  UNL     1      22.154   3.839  51.948  1.00  0.00     0.238 A 
HETATM    4  N3  UNL     1      22.524   4.537  50.837  1.00  0.00    -0.215 NA
HETATM    5  C9  UNL     1      23.831   4.568  50.442  1.00  0.00     0.202 A 
HETATM    6  C10 UNL     1      24.727   3.851  51.244  1.00  0.00     0.129 A 
HETATM    7  N4  UNL     1      26.145   3.731  51.014  1.00  0.00    -0.379 N 
HETATM    8  C11 UNL     1      26.741   3.736  49.688  1.00  0.00     0.161 C 
HETATM    9  C12 UNL     1      26.545   5.022  49.014  1.00  0.00    -0.005 A 
HETATM   10  C13 UNL     1      27.736   5.523  48.526  1.00  0.00     0.035 A 
HETATM   11  C14 UNL     1      27.745   6.723  47.870  1.00  0.00     0.034 A 
HETATM   12 CL1  UNL     1      29.298   7.282  47.277  1.00  0.00    -0.084 Cl
HETATM   13  C15 UNL     1      26.562   7.409  47.708  1.00  0.00     0.026 A 
HETATM   14  C16 UNL     1      25.362   6.921  48.189  1.00  0.00     0.039 A 
HETATM   15  C17 UNL     1      25.345   5.692  48.863  1.00  0.00     0.086 A 
HETATM   16  O1  UNL     1      24.056   5.322  49.292  1.00  0.00    -0.289 OA
HETATM   17  H7  UNL     1      26.635   3.641  51.956  1.00  0.00     0.160 HD
ENDROOT
BRANCH   1  18
HETATM   18  N1  UNL     1      25.252   2.441  53.188  1.00  0.00    -0.337 N 
HETATM   19  H5  UNL     1      25.605   3.021  53.981  1.00  0.00     0.167 HD
BRANCH  18  20
HETATM   20  C6  UNL     1      25.738   1.122  53.100  1.00  0.00     0.057 A 
HETATM   21  C2  UNL     1      27.160   0.805  53.002  1.00  0.00    -0.030 A 
HETATM   22  C1  UNL     1      28.092   1.747  52.995  1.00  0.00     0.045 C 
HETATM   23  C3  UNL     1      27.434  -0.624  52.922  1.00  0.00     0.011 A 
HETATM   24  C4  UNL     1      26.209  -1.141  52.971  1.00  0.00     0.022 A 
HETATM   25  C5  UNL     1      25.205  -0.086  53.077  1.00  0.00     0.038 A 
HETATM   26 BR1  UNL     1      23.295  -0.338  53.173  1.00  0.00    -0.049 Br
ENDBRANCH  18  20
ENDBRANCH   1  18
TORSDOF 2
ENDMDL
MODEL 6
REMARK VINA RESULT:      -8.4      3.416      6.617
REMARK  2 active torsions:
REMARK  status: ('A' for Active; 'I' for Inactive)
REMARK    1  A    between atoms: C6_7  and  N1_8 
REMARK    2  A    between atoms: N1_8  and  C7_9 
ROOT
HETATM    1  C7  UNL     1      23.657   4.981  51.645  1.00  0.00     0.160 A 
HETATM    2  N2  UNL     1      22.432   5.575  51.733  1.00  0.00    -0.222 NA
HETATM    3  C8  UNL     1      22.107   6.484  50.776  1.00  0.00     0.238 A 
HETATM    4  N3  UNL     1      22.929   6.832  49.746  1.00  0.00    -0.215 NA
HETATM    5  C9  UNL     1      24.163   6.260  49.622  1.00  0.00     0.202 A 
HETATM    6  C10 UNL     1      24.502   5.322  50.605  1.00  0.00     0.129 A 
HETATM    7  N4  UNL     1      25.740   4.586  50.668  1.00  0.00    -0.379 N 
HETATM    8  C11 UNL     1      26.494   4.190  49.490  1.00  0.00     0.161 C 
HETATM    9  C12 UNL     1      27.000   5.355  48.759  1.00  0.00    -0.005 A 
HETATM   10  C13 UNL     1      28.354   5.244  48.509  1.00  0.00     0.035 A 
HETATM   11  C14 UNL     1      29.000   6.246  47.839  1.00  0.00     0.034 A 
HETATM   12 CL1  UNL     1      30.718   6.022  47.558  1.00  0.00    -0.084 Cl
HETATM   13  C15 UNL     1      28.286   7.348  47.426  1.00  0.00     0.026 A 
HETATM   14  C16 UNL     1      26.931   7.474  47.667  1.00  0.00     0.039 A 
HETATM   15  C17 UNL     1      26.262   6.451  48.353  1.00  0.00     0.086 A 
HETATM   16  O1  UNL     1      24.889   6.714  48.523  1.00  0.00    -0.289 OA
HETATM   17  H7  UNL     1      25.972   4.400  51.692  1.00  0.00     0.160 HD
ENDROOT
BRANCH   1  18
HETATM   18  N1  UNL     1      24.014   4.046  52.649  1.00  0.00    -0.337 N 
HETATM   19  H5  UNL     1      24.507   4.496  53.453  1.00  0.00     0.167 HD
BRANCH  18  20
HETATM   20  C6  UNL     1      23.812   2.654  52.726  1.00  0.00     0.057 A 
HETATM   21  C2  UNL     1      24.891   1.708  52.997  1.00  0.00    -0.030 A 
HETATM   22  C1  UNL     1      26.140   2.105  53.195  1.00  0.00     0.045 C 
HETATM   23  C3  UNL     1      24.453   0.320  53.031  1.00  0.00     0.011 A 
HETATM   24  C4  UNL     1      23.150   0.437  52.788  1.00  0.00     0.022 A 
HETATM   25  C5  UNL     1      22.781   1.838  52.606  1.00  0.00     0.038 A 
HETATM   26 BR1  UNL     1      21.012   2.509  52.229  1.00  0.00    -0.049 Br
ENDBRANCH  18  20
ENDBRANCH   1  18
TORSDOF 2
ENDMDL
MODEL 7
REMARK VINA RESULT:      -8.3      3.363      6.967
REMARK  2 active torsions:
REMARK  status: ('A' for Active; 'I' for Inactive)
REMARK    1  A    between atoms: C6_7  and  N1_8 
REMARK    2  A    between atoms: N1_8  and  C7_9 
ROOT
HETATM    1  C7  UNL     1      24.459   2.829  51.758  1.00  0.00     0.160 A 
HETATM    2  N2  UNL     1      23.310   3.119  52.434  1.00  0.00    -0.222 NA
HETATM    3  C8  UNL     1      22.773   4.355  52.256  1.00  0.00     0.238 A 
HETATM    4  N3  UNL     1      23.315   5.310  51.448  1.00  0.00    -0.215 NA
HETATM    5  C9  UNL     1      24.463   5.060  50.753  1.00  0.00     0.202 A 
HETATM    6  C10 UNL     1      25.020   3.788  50.934  1.00  0.00     0.129 A 
HETATM    7  N4  UNL     1      26.216   3.299  50.295  1.00  0.00    -0.379 N 
HETATM    8  C11 UNL     1      26.637   3.713  48.966  1.00  0.00     0.161 C 
HETATM    9  C12 UNL     1      26.967   5.140  48.927  1.00  0.00    -0.005 A 
HETATM   10  C13 UNL     1      28.210   5.356  48.365  1.00  0.00     0.035 A 
HETATM   11  C14 UNL     1      28.688   6.632  48.252  1.00  0.00     0.034 A 
HETATM   12 CL1  UNL     1      30.272   6.816  47.520  1.00  0.00    -0.084 Cl
HETATM   13  C15 UNL     1      27.916   7.680  48.700  1.00  0.00     0.026 A 
HETATM   14  C16 UNL     1      26.670   7.483  49.264  1.00  0.00     0.039 A 
HETATM   15  C17 UNL     1      26.174   6.177  49.384  1.00  0.00     0.086 A 
HETATM   16  O1  UNL     1      24.896   6.130  49.972  1.00  0.00    -0.289 OA
HETATM   17  H7  UNL     1      26.697   2.613  50.954  1.00  0.00     0.160 HD
ENDROOT
BRANCH   1  18
HETATM   18  N1  UNL     1      25.039   1.550  51.952  1.00  0.00    -0.337 N 
HETATM   19  H5  UNL     1      25.118   1.010  51.062  1.00  0.00     0.167 HD
BRANCH  18  20
HETATM   20  C6  UNL     1      25.509   0.921  53.122  1.00  0.00     0.057 A 
HETATM   21  C2  UNL     1      24.743  -0.095  53.839  1.00  0.00    -0.030 A 
HETATM   22  C1  UNL     1      23.549  -0.497  53.428  1.00  0.00     0.045 C 
HETATM   23  C3  UNL     1      25.423  -0.609  55.020  1.00  0.00     0.011 A 
HETATM   24  C4  UNL     1      26.560   0.082  55.005  1.00  0.00     0.022 A 
HETATM   25  C5  UNL     1      26.597   0.993  53.865  1.00  0.00     0.038 A 
HETATM   26 BR1  UNL     1      28.033   2.203  53.422  1.00  0.00    -0.049 Br
ENDBRANCH  18  20
ENDBRANCH   1  18
TORSDOF 2
ENDMDL
MODEL 8
REMARK VINA RESULT:      -8.2      3.504      4.838
REMARK  2 active torsions:
REMARK  status: ('A' for Active; 'I' for Inactive)
REMARK    1  A    between atoms: C6_7  and  N1_8 
REMARK    2  A    between atoms: N1_8  and  C7_9 
ROOT
HETATM    1  C7  UNL     1      25.427   2.848  50.970  1.00  0.00     0.160 A 
HETATM    2  N2  UNL     1      26.743   2.861  51.328  1.00  0.00    -0.222 NA
HETATM    3  C8  UNL     1      27.166   1.903  52.195  1.00  0.00     0.238 A 
HETATM    4  N3  UNL     1      26.355   0.942  52.721  1.00  0.00    -0.215 NA
HETATM    5  C9  UNL     1      25.032   0.894  52.388  1.00  0.00     0.202 A 
HETATM    6  C10 UNL     1      24.592   1.878  51.495  1.00  0.00     0.129 A 
HETATM    7  N4  UNL     1      23.247   2.014  50.995  1.00  0.00    -0.379 N 
HETATM    8  C11 UNL     1      22.357   0.884  50.783  1.00  0.00     0.161 C 
HETATM    9  C12 UNL     1      22.026   0.217  52.045  1.00  0.00    -0.005 A 
HETATM   10  C13 UNL     1      20.661   0.061  52.191  1.00  0.00     0.035 A 
HETATM   11  C14 UNL     1      20.167  -0.539  53.316  1.00  0.00     0.034 A 
HETATM   12 CL1  UNL     1      18.423  -0.702  53.419  1.00  0.00    -0.084 Cl
HETATM   13  C15 UNL     1      21.044  -0.979  54.283  1.00  0.00     0.026 A 
HETATM   14  C16 UNL     1      22.411  -0.832  54.152  1.00  0.00     0.039 A 
HETATM   15  C17 UNL     1      22.925  -0.218  53.001  1.00  0.00     0.086 A 
HETATM   16  O1  UNL     1      24.331  -0.141  53.004  1.00  0.00    -0.289 OA
HETATM   17  H7  UNL     1      23.053   3.048  50.820  1.00  0.00     0.160 HD
ENDROOT
BRANCH   1  18
HETATM   18  N1  UNL     1      24.971   3.855  50.083  1.00  0.00    -0.337 N 
HETATM   19  H5  UNL     1      24.449   3.461  49.269  1.00  0.00     0.167 HD
BRANCH  18  20
HETATM   20  C6  UNL     1      25.108   5.256  50.132  1.00  0.00     0.057 A 
HETATM   21  C2  UNL     1      24.169   6.122  50.841  1.00  0.00    -0.030 A 
HETATM   22  C1  UNL     1      23.122   5.638  51.493  1.00  0.00     0.045 C 
HETATM   23  C3  UNL     1      24.508   7.536  50.760  1.00  0.00     0.011 A 
HETATM   24  C4  UNL     1      25.616   7.512  50.024  1.00  0.00     0.022 A 
HETATM   25  C5  UNL     1      25.963   6.142  49.655  1.00  0.00     0.038 A 
HETATM   26 BR1  UNL     1      27.478   5.600  48.592  1.00  0.00    -0.049 Br
ENDBRANCH  18  20
ENDBRANCH   1  18
TORSDOF 2
ENDMDL
MODEL 9
REMARK VINA RESULT:      -8.1      3.497      4.711
REMARK  2 active torsions:
REMARK  status: ('A' for Active; 'I' for Inactive)
REMARK    1  A    between atoms: C6_7  and  N1_8 
REMARK    2  A    between atoms: N1_8  and  C7_9 
ROOT
HETATM    1  C7  UNL     1      25.199   2.682  51.070  1.00  0.00     0.160 A 
HETATM    2  N2  UNL     1      26.509   2.716  51.445  1.00  0.00    -0.222 NA
HETATM    3  C8  UNL     1      26.934   1.771  52.325  1.00  0.00     0.238 A 
HETATM    4  N3  UNL     1      26.130   0.803  52.849  1.00  0.00    -0.215 NA
HETATM    5  C9  UNL     1      24.812   0.734  52.499  1.00  0.00     0.202 A 
HETATM    6  C10 UNL     1      24.370   1.705  51.592  1.00  0.00     0.129 A 
HETATM    7  N4  UNL     1      23.030   1.819  51.074  1.00  0.00    -0.379 N 
HETATM    8  C11 UNL     1      22.158   0.675  50.860  1.00  0.00     0.161 C 
HETATM    9  C12 UNL     1      21.820   0.013  52.123  1.00  0.00    -0.005 A 
HETATM   10  C13 UNL     1      20.456  -0.160  52.253  1.00  0.00     0.035 A 
HETATM   11  C14 UNL     1      19.955  -0.758  53.376  1.00  0.00     0.034 A 
HETATM   12 CL1  UNL     1      18.213  -0.944  53.457  1.00  0.00    -0.084 Cl
HETATM   13  C15 UNL     1      20.825  -1.178  54.357  1.00  0.00     0.026 A 
HETATM   14  C16 UNL     1      22.192  -1.014  54.243  1.00  0.00     0.039 A 
HETATM   15  C17 UNL     1      22.712  -0.401  53.094  1.00  0.00     0.086 A 
HETATM   16  O1  UNL     1      24.117  -0.305  53.115  1.00  0.00    -0.289 OA
HETATM   17  H7  UNL     1      22.824   2.848  50.888  1.00  0.00     0.160 HD
ENDROOT
BRANCH   1  18
HETATM   18  N1  UNL     1      24.740   3.676  50.169  1.00  0.00    -0.337 N 
HETATM   19  H5  UNL     1      24.397   3.269  49.271  1.00  0.00     0.167 HD
BRANCH  18  20
HETATM   20  C6  UNL     1      24.679   5.077  50.298  1.00  0.00     0.057 A 
HETATM   21  C2  UNL     1      25.661   5.974  49.692  1.00  0.00    -0.030 A 
HETATM   22  C1  UNL     1      26.677   5.521  48.972  1.00  0.00     0.045 C 
HETATM   23  C3  UNL     1      25.400   7.383  49.954  1.00  0.00     0.011 A 
HETATM   24  C4  UNL     1      24.296   7.325  50.694  1.00  0.00     0.022 A 
HETATM   25  C5  UNL     1      23.877   5.941  50.892  1.00  0.00     0.038 A 
HETATM   26 BR1  UNL     1      22.340   5.350  51.897  1.00  0.00    -0.049 Br
ENDBRANCH  18  20
ENDBRANCH   1  18
TORSDOF 2
ENDMDL
