MODEL 1
REMARK VINA RESULT:      -7.7      0.000      0.000
REMARK  5 active torsions:
REMARK  status: ('A' for Active; 'I' for Inactive)
REMARK    1  A    between atoms: C2_2  and  C3_3 
REMARK    2  A    between atoms: C3_3  and  C4_4 
REMARK    3  A    between atoms: C4_4  and  C5_5 
REMARK    4  A    between atoms: C9_11  and  C10_12 
REMARK    5  A    between atoms: C10_12  and  S1_13 
ROOT
HETATM    1  C10 UNL     1      21.902   4.168  52.272  1.00  0.00     0.129 C 
ENDROOT
BRANCH   1   2
HETATM    2  C9  UNL     1      21.033   3.086  51.761  1.00  0.00    -0.045 C 
HETATM    3  C8  UNL     1      20.376   3.374  50.470  1.00  0.00     0.205 C 
HETATM    4  O1  UNL     1      19.321   2.533  50.173  1.00  0.00    -0.367 OA
HETATM    5  C7  UNL     1      19.689   1.247  49.826  1.00  0.00     0.216 C 
HETATM    6  C6  UNL     1      19.623   0.457  51.105  1.00  0.00     0.023 C 
HETATM    7 BR1  UNL     1      21.463   1.146  49.061  1.00  0.00    -0.057 Br
HETATM    8  C5  UNL     1      20.193   0.818  52.268  1.00  0.00    -0.058 C 
HETATM    9  C18 UNL     1      20.973   2.015  52.542  1.00  0.00     0.012 C 
BRANCH   8  10
HETATM   10  C4  UNL     1      20.030  -0.076  53.427  1.00  0.00     0.038 C 
BRANCH  10  11
HETATM   11  C3  UNL     1      21.109   0.049  54.455  1.00  0.00     0.004 C 
BRANCH  11  12
HETATM   12  C2  UNL     1      21.822  -1.310  54.513  1.00  0.00    -0.004 C 
HETATM   13  C1  UNL     1      23.011  -1.308  55.413  1.00  0.00     0.005 C 
ENDBRANCH  11  12
ENDBRANCH  10  11
ENDBRANCH   8  10
ENDBRANCH   1   2
BRANCH   1  14
HETATM   14  S1  UNL     1      23.562   4.133  51.541  1.00  0.00    -0.056 SA
HETATM   15  N1  UNL     1      24.231   5.263  50.604  1.00  0.00    -0.166 NA
HETATM   16  C11 UNL     1      25.554   4.971  50.170  1.00  0.00     0.352 A 
HETATM   17  O2  UNL     1      26.101   5.856  49.426  1.00  0.00    -0.244 OA
HETATM   18  N2  UNL     1      26.334   3.813  50.468  1.00  0.00    -0.305 N 
HETATM   19  C12 UNL     1      25.899   2.718  51.279  1.00  0.00     0.054 A 
HETATM   20  H16 UNL     1      27.297   3.735  50.076  1.00  0.00     0.171 HD
HETATM   21  C13 UNL     1      26.755   1.640  51.497  1.00  0.00     0.031 A 
HETATM   22  C17 UNL     1      24.644   2.712  51.850  1.00  0.00     0.039 A 
HETATM   23  C14 UNL     1      26.339   0.582  52.278  1.00  0.00     0.002 A 
HETATM   24  C15 UNL     1      25.086   0.570  52.852  1.00  0.00     0.002 A 
HETATM   25  C16 UNL     1      24.244   1.656  52.622  1.00  0.00     0.022 A 
ENDBRANCH   1  14
TORSDOF 5
ENDMDL
MODEL 2
REMARK VINA RESULT:      -7.7      3.186      5.043
REMARK  5 active torsions:
REMARK  status: ('A' for Active; 'I' for Inactive)
REMARK    1  A    between atoms: C2_2  and  C3_3 
REMARK    2  A    between atoms: C3_3  and  C4_4 
REMARK    3  A    between atoms: C4_4  and  C5_5 
REMARK    4  A    between atoms: C9_11  and  C10_12 
REMARK    5  A    between atoms: C10_12  and  S1_13 
ROOT
HETATM    1  C10 UNL     1      26.391   2.723  50.403  1.00  0.00     0.129 C 
ENDROOT
BRANCH   1   2
HETATM    2  C9  UNL     1      25.071   3.386  50.447  1.00  0.00    -0.045 C 
HETATM    3  C8  UNL     1      24.770   4.087  51.711  1.00  0.00     0.205 C 
HETATM    4  O1  UNL     1      23.434   4.400  51.879  1.00  0.00    -0.367 OA
HETATM    5  C7  UNL     1      22.976   5.424  51.072  1.00  0.00     0.216 C 
HETATM    6  C6  UNL     1      22.399   4.746  49.860  1.00  0.00     0.023 C 
HETATM    7 BR1  UNL     1      24.370   6.662  50.552  1.00  0.00    -0.057 Br
HETATM    8  C5  UNL     1      23.022   3.806  49.129  1.00  0.00    -0.058 C 
HETATM    9  C18 UNL     1      24.351   3.250  49.340  1.00  0.00     0.012 C 
BRANCH   8  10
HETATM   10  C4  UNL     1      22.310   3.244  47.968  1.00  0.00     0.038 C 
BRANCH  10  11
HETATM   11  C3  UNL     1      22.227   1.751  47.962  1.00  0.00     0.004 C 
BRANCH  11  12
HETATM   12  C2  UNL     1      21.062   1.369  48.886  1.00  0.00    -0.004 C 
HETATM   13  C1  UNL     1      21.509   0.727  50.155  1.00  0.00     0.005 C 
ENDBRANCH  11  12
ENDBRANCH  10  11
ENDBRANCH   8  10
ENDBRANCH   1   2
BRANCH   1  14
HETATM   14  S1  UNL     1      26.937   2.145  52.033  1.00  0.00    -0.056 SA
HETATM   15  N1  UNL     1      28.292   2.562  52.803  1.00  0.00    -0.166 NA
HETATM   16  C11 UNL     1      28.465   1.952  54.077  1.00  0.00     0.352 A 
HETATM   17  O2  UNL     1      29.534   2.270  54.703  1.00  0.00    -0.244 OA
HETATM   18  N2  UNL     1      27.590   1.032  54.730  1.00  0.00    -0.305 N 
HETATM   19  C12 UNL     1      26.352   0.556  54.193  1.00  0.00     0.054 A 
HETATM   20  H16 UNL     1      27.850   0.664  55.670  1.00  0.00     0.171 HD
HETATM   21  C13 UNL     1      25.583  -0.343  54.929  1.00  0.00     0.031 A 
HETATM   22  C17 UNL     1      25.907   0.975  52.957  1.00  0.00     0.039 A 
HETATM   23  C14 UNL     1      24.389  -0.804  54.414  1.00  0.00     0.002 A 
HETATM   24  C15 UNL     1      23.938  -0.390  53.179  1.00  0.00     0.002 A 
HETATM   25  C16 UNL     1      24.721   0.509  52.459  1.00  0.00     0.022 A 
ENDBRANCH   1  14
TORSDOF 5
ENDMDL
MODEL 3
REMARK VINA RESULT:      -7.6      3.125      5.473
REMARK  5 active torsions:
REMARK  status: ('A' for Active; 'I' for Inactive)
REMARK    1  A    between atoms: C2_2  and  C3_3 
REMARK    2  A    between atoms: C3_3  and  C4_4 
REMARK    3  A    between atoms: C4_4  and  C5_5 
REMARK    4  A    between atoms: C9_11  and  C10_12 
REMARK    5  A    between atoms: C10_12  and  S1_13 
ROOT
HETATM    1  C10 UNL     1      21.859   2.543  52.282  1.00  0.00     0.129 C 
ENDROOT
BRANCH   1   2
HETATM    2  C9  UNL     1      22.112   2.557  50.825  1.00  0.00    -0.045 C 
HETATM    3  C8  UNL     1      21.483   1.452  50.074  1.00  0.00     0.205 C 
HETATM    4  O1  UNL     1      21.993   1.270  48.803  1.00  0.00    -0.367 OA
HETATM    5  C7  UNL     1      21.630   2.244  47.892  1.00  0.00     0.216 C 
HETATM    6  C6  UNL     1      22.750   3.249  47.919  1.00  0.00     0.023 C 
HETATM    7 BR1  UNL     1      19.948   3.099  48.323  1.00  0.00    -0.057 Br
HETATM    8  C5  UNL     1      23.266   3.803  49.029  1.00  0.00    -0.058 C 
HETATM    9  C18 UNL     1      22.871   3.563  50.409  1.00  0.00     0.012 C 
BRANCH   8  10
HETATM   10  C4  UNL     1      24.363   4.774  48.875  1.00  0.00     0.038 C 
BRANCH  10  11
HETATM   11  C3  UNL     1      25.370   4.744  49.981  1.00  0.00     0.004 C 
BRANCH  11  12
HETATM   12  C2  UNL     1      26.587   3.973  49.449  1.00  0.00    -0.004 C 
HETATM   13  C1  UNL     1      27.528   4.831  48.675  1.00  0.00     0.005 C 
ENDBRANCH  11  12
ENDBRANCH  10  11
ENDBRANCH   8  10
ENDBRANCH   1   2
BRANCH   1  14
HETATM   14  S1  UNL     1      22.577   1.093  53.101  1.00  0.00    -0.056 SA
HETATM   15  N1  UNL     1      21.829   0.086  54.116  1.00  0.00    -0.166 NA
HETATM   16  C11 UNL     1      22.641  -0.972  54.611  1.00  0.00     0.352 A 
HETATM   17  O2  UNL     1      22.065  -1.781  55.417  1.00  0.00    -0.244 OA
HETATM   18  N2  UNL     1      24.012  -1.232  54.313  1.00  0.00    -0.305 N 
HETATM   19  C12 UNL     1      24.825  -0.445  53.438  1.00  0.00     0.054 A 
HETATM   20  H16 UNL     1      24.481  -2.053  54.755  1.00  0.00     0.171 HD
HETATM   21  C13 UNL     1      26.155  -0.802  53.227  1.00  0.00     0.031 A 
HETATM   22  C17 UNL     1      24.311   0.664  52.799  1.00  0.00     0.039 A 
HETATM   23  C14 UNL     1      26.942  -0.045  52.384  1.00  0.00     0.002 A 
HETATM   24  C15 UNL     1      26.435   1.065  51.741  1.00  0.00     0.002 A 
HETATM   25  C16 UNL     1      25.103   1.406  51.965  1.00  0.00     0.022 A 
ENDBRANCH   1  14
TORSDOF 5
ENDMDL
MODEL 4
REMARK VINA RESULT:      -7.5      3.306      6.426
REMARK  5 active torsions:
REMARK  status: ('A' for Active; 'I' for Inactive)
REMARK    1  A    between atoms: C2_2  and  C3_3 
REMARK    2  A    between atoms: C3_3  and  C4_4 
REMARK    3  A    between atoms: C4_4  and  C5_5 
REMARK    4  A    between atoms: C9_11  and  C10_12 
REMARK    5  A    between atoms: C10_12  and  S1_13 
ROOT
HETATM    1  C10 UNL     1      26.379   2.282  50.260  1.00  0.00     0.129 C 
ENDROOT
BRANCH   1   2
HETATM    2  C9  UNL     1      25.427   3.412  50.206  1.00  0.00    -0.045 C 
HETATM    3  C8  UNL     1      24.005   3.032  50.317  1.00  0.00     0.205 C 
HETATM    4  O1  UNL     1      23.123   4.022  49.927  1.00  0.00    -0.367 OA
HETATM    5  C7  UNL     1      23.023   5.084  50.805  1.00  0.00     0.216 C 
HETATM    6  C6  UNL     1      23.999   6.111  50.298  1.00  0.00     0.023 C 
HETATM    7 BR1  UNL     1      23.441   4.601  52.631  1.00  0.00    -0.057 Br
HETATM    8  C5  UNL     1      25.284   5.870  49.986  1.00  0.00    -0.058 C 
HETATM    9  C18 UNL     1      25.996   4.603  50.065  1.00  0.00     0.012 C 
BRANCH   8  10
HETATM   10  C4  UNL     1      26.103   6.994  49.502  1.00  0.00     0.038 C 
BRANCH  10  11
HETATM   11  C3  UNL     1      26.707   6.778  48.151  1.00  0.00     0.004 C 
BRANCH  11  12
HETATM   12  C2  UNL     1      28.226   6.940  48.316  1.00  0.00    -0.004 C 
HETATM   13  C1  UNL     1      28.965   5.650  48.219  1.00  0.00     0.005 C 
ENDBRANCH  11  12
ENDBRANCH  10  11
ENDBRANCH   8  10
ENDBRANCH   1   2
BRANCH   1  14
HETATM   14  S1  UNL     1      26.935   1.917  51.947  1.00  0.00    -0.056 SA
HETATM   15  N1  UNL     1      28.272   2.464  52.666  1.00  0.00    -0.166 NA
HETATM   16  C11 UNL     1      28.457   2.013  54.002  1.00  0.00     0.352 A 
HETATM   17  O2  UNL     1      29.512   2.437  54.588  1.00  0.00    -0.244 OA
HETATM   18  N2  UNL     1      27.608   1.148  54.756  1.00  0.00    -0.305 N 
HETATM   19  C12 UNL     1      26.389   0.574  54.277  1.00  0.00     0.054 A 
HETATM   20  H16 UNL     1      27.875   0.901  55.734  1.00  0.00     0.171 HD
HETATM   21  C13 UNL     1      25.646  -0.258  55.112  1.00  0.00     0.031 A 
HETATM   22  C17 UNL     1      25.937   0.830  53.000  1.00  0.00     0.039 A 
HETATM   23  C14 UNL     1      24.470  -0.815  54.653  1.00  0.00     0.002 A 
HETATM   24  C15 UNL     1      24.012  -0.562  53.377  1.00  0.00     0.002 A 
HETATM   25  C16 UNL     1      24.769   0.272  52.558  1.00  0.00     0.022 A 
ENDBRANCH   1  14
TORSDOF 5
ENDMDL
MODEL 5
REMARK VINA RESULT:      -7.4      3.105      4.798
REMARK  5 active torsions:
REMARK  status: ('A' for Active; 'I' for Inactive)
REMARK    1  A    between atoms: C2_2  and  C3_3 
REMARK    2  A    between atoms: C3_3  and  C4_4 
REMARK    3  A    between atoms: C4_4  and  C5_5 
REMARK    4  A    between atoms: C9_11  and  C10_12 
REMARK    5  A    between atoms: C10_12  and  S1_13 
ROOT
HETATM    1  C10 UNL     1      24.758   1.847  51.230  1.00  0.00     0.129 C 
ENDROOT
BRANCH   1   2
HETATM    2  C9  UNL     1      23.607   2.748  51.450  1.00  0.00    -0.045 C 
HETATM    3  C8  UNL     1      23.913   3.971  52.219  1.00  0.00     0.205 C 
HETATM    4  O1  UNL     1      22.799   4.623  52.712  1.00  0.00    -0.367 OA
HETATM    5  C7  UNL     1      22.044   5.277  51.758  1.00  0.00     0.216 C 
HETATM    6  C6  UNL     1      20.975   4.297  51.356  1.00  0.00     0.023 C 
HETATM    7 BR1  UNL     1      23.077   5.819  50.213  1.00  0.00    -0.057 Br
HETATM    8  C5  UNL     1      21.192   3.020  50.998  1.00  0.00    -0.058 C 
HETATM    9  C18 UNL     1      22.467   2.321  50.923  1.00  0.00     0.012 C 
BRANCH   8  10
HETATM   10  C4  UNL     1      20.028   2.194  50.632  1.00  0.00     0.038 C 
BRANCH  10  11
HETATM   11  C3  UNL     1      19.323   1.575  51.797  1.00  0.00     0.004 C 
BRANCH  11  12
HETATM   12  C2  UNL     1      18.990   0.131  51.394  1.00  0.00    -0.004 C 
HETATM   13  C1  UNL     1      18.183  -0.589  52.419  1.00  0.00     0.005 C 
ENDBRANCH  11  12
ENDBRANCH  10  11
ENDBRANCH   8  10
ENDBRANCH   1   2
BRANCH   1  14
HETATM   14  S1  UNL     1      25.195   0.897  52.712  1.00  0.00    -0.056 SA
HETATM   15  N1  UNL     1      26.654   0.776  53.389  1.00  0.00    -0.166 NA
HETATM   16  C11 UNL     1      26.706  -0.041  54.552  1.00  0.00     0.352 A 
HETATM   17  O2  UNL     1      27.855  -0.149  55.103  1.00  0.00    -0.244 OA
HETATM   18  N2  UNL     1      25.630  -0.750  55.168  1.00  0.00    -0.305 N 
HETATM   19  C12 UNL     1      24.278  -0.754  54.703  1.00  0.00     0.054 A 
HETATM   20  H16 UNL     1      25.820  -1.314  56.024  1.00  0.00     0.171 HD
HETATM   21  C13 UNL     1      23.315  -1.487  55.394  1.00  0.00     0.031 A 
HETATM   22  C17 UNL     1      23.911  -0.042  53.580  1.00  0.00     0.039 A 
HETATM   23  C14 UNL     1      22.009  -1.493  54.947  1.00  0.00     0.002 A 
HETATM   24  C15 UNL     1      21.636  -0.785  53.826  1.00  0.00     0.002 A 
HETATM   25  C16 UNL     1      22.613  -0.058  53.149  1.00  0.00     0.022 A 
ENDBRANCH   1  14
TORSDOF 5
ENDMDL
MODEL 6
REMARK VINA RESULT:      -7.3      2.085      3.194
REMARK  5 active torsions:
REMARK  status: ('A' for Active; 'I' for Inactive)
REMARK    1  A    between atoms: C2_2  and  C3_3 
REMARK    2  A    between atoms: C3_3  and  C4_4 
REMARK    3  A    between atoms: C4_4  and  C5_5 
REMARK    4  A    between atoms: C9_11  and  C10_12 
REMARK    5  A    between atoms: C10_12  and  S1_13 
ROOT
HETATM    1  C10 UNL     1      22.767   4.685  52.501  1.00  0.00     0.129 C 
ENDROOT
BRANCH   1   2
HETATM    2  C9  UNL     1      22.255   3.414  51.947  1.00  0.00    -0.045 C 
HETATM    3  C8  UNL     1      21.127   3.556  51.005  1.00  0.00     0.205 C 
HETATM    4  O1  UNL     1      20.440   2.381  50.764  1.00  0.00    -0.367 OA
HETATM    5  C7  UNL     1      21.121   1.465  49.985  1.00  0.00     0.216 C 
HETATM    6  C6  UNL     1      21.819   0.556  50.959  1.00  0.00     0.023 C 
HETATM    7 BR1  UNL     1      22.404   2.288  48.793  1.00  0.00    -0.057 Br
HETATM    8  C5  UNL     1      22.580   0.964  51.989  1.00  0.00    -0.058 C 
HETATM    9  C18 UNL     1      22.889   2.331  52.381  1.00  0.00     0.012 C 
BRANCH   8  10
HETATM   10  C4  UNL     1      23.193  -0.063  52.849  1.00  0.00     0.038 C 
BRANCH  10  11
HETATM   11  C3  UNL     1      24.425   0.390  53.565  1.00  0.00     0.004 C 
BRANCH  11  12
HETATM   12  C2  UNL     1      25.596  -0.415  52.983  1.00  0.00    -0.004 C 
HETATM   13  C1  UNL     1      26.393   0.353  51.985  1.00  0.00     0.005 C 
ENDBRANCH  11  12
ENDBRANCH  10  11
ENDBRANCH   8  10
ENDBRANCH   1   2
BRANCH   1  14
HETATM   14  S1  UNL     1      23.519   5.746  51.236  1.00  0.00    -0.056 SA
HETATM   15  N1  UNL     1      23.030   7.217  50.791  1.00  0.00    -0.166 NA
HETATM   16  C11 UNL     1      23.813   7.821  49.768  1.00  0.00     0.352 A 
HETATM   17  O2  UNL     1      23.441   8.988  49.402  1.00  0.00    -0.244 OA
HETATM   18  N2  UNL     1      24.957   7.277  49.109  1.00  0.00    -0.305 N 
HETATM   19  C12 UNL     1      25.524   5.992  49.378  1.00  0.00     0.054 A 
HETATM   20  H16 UNL     1      25.433   7.840  48.372  1.00  0.00     0.171 HD
HETATM   21  C13 UNL     1      26.646   5.572  48.666  1.00  0.00     0.031 A 
HETATM   22  C17 UNL     1      24.977   5.160  50.333  1.00  0.00     0.039 A 
HETATM   23  C14 UNL     1      27.195   4.333  48.922  1.00  0.00     0.002 A 
HETATM   24  C15 UNL     1      26.654   3.496  49.875  1.00  0.00     0.002 A 
HETATM   25  C16 UNL     1      25.533   3.934  50.577  1.00  0.00     0.022 A 
ENDBRANCH   1  14
TORSDOF 5
ENDMDL
MODEL 7
REMARK VINA RESULT:      -7.2      3.404      6.575
REMARK  5 active torsions:
REMARK  status: ('A' for Active; 'I' for Inactive)
REMARK    1  A    between atoms: C2_2  and  C3_3 
REMARK    2  A    between atoms: C3_3  and  C4_4 
REMARK    3  A    between atoms: C4_4  and  C5_5 
REMARK    4  A    between atoms: C9_11  and  C10_12 
REMARK    5  A    between atoms: C10_12  and  S1_13 
ROOT
HETATM    1  C10 UNL     1      21.921   1.321  50.242  1.00  0.00     0.129 C 
ENDROOT
BRANCH   1   2
HETATM    2  C9  UNL     1      22.433   2.643  50.663  1.00  0.00    -0.045 C 
HETATM    3  C8  UNL     1      21.834   3.174  51.904  1.00  0.00     0.205 C 
HETATM    4  O1  UNL     1      22.050   4.525  52.102  1.00  0.00    -0.367 OA
HETATM    5  C7  UNL     1      23.345   4.856  52.453  1.00  0.00     0.216 C 
HETATM    6  C6  UNL     1      24.032   5.198  51.159  1.00  0.00     0.023 C 
HETATM    7 BR1  UNL     1      24.279   3.419  53.352  1.00  0.00    -0.057 Br
HETATM    8  C5  UNL     1      24.018   4.438  50.051  1.00  0.00    -0.058 C 
HETATM    9  C18 UNL     1      23.357   3.155  49.860  1.00  0.00     0.012 C 
BRANCH   8  10
HETATM   10  C4  UNL     1      24.746   4.924  48.866  1.00  0.00     0.038 C 
BRANCH  10  11
HETATM   11  C3  UNL     1      25.499   6.197  49.087  1.00  0.00     0.004 C 
BRANCH  11  12
HETATM   12  C2  UNL     1      26.913   5.975  48.531  1.00  0.00    -0.004 C 
HETATM   13  C1  UNL     1      27.437   4.606  48.798  1.00  0.00     0.005 C 
ENDBRANCH  11  12
ENDBRANCH  10  11
ENDBRANCH   8  10
ENDBRANCH   1   2
BRANCH   1  14
HETATM   14  S1  UNL     1      21.049   0.453  51.574  1.00  0.00    -0.056 SA
HETATM   15  N1  UNL     1      19.460   0.195  51.683  1.00  0.00    -0.166 NA
HETATM   16  C11 UNL     1      19.051  -0.518  52.844  1.00  0.00     0.352 A 
HETATM   17  O2  UNL     1      17.794  -0.733  52.948  1.00  0.00    -0.244 OA
HETATM   18  N2  UNL     1      19.875  -1.017  53.898  1.00  0.00    -0.305 N 
HETATM   19  C12 UNL     1      21.297  -0.878  53.962  1.00  0.00     0.054 A 
HETATM   20  H16 UNL     1      19.431  -1.525  54.693  1.00  0.00     0.171 HD
HETATM   21  C13 UNL     1      21.993  -1.410  55.046  1.00  0.00     0.031 A 
HETATM   22  C17 UNL     1      21.992  -0.224  52.966  1.00  0.00     0.039 A 
HETATM   23  C14 UNL     1      23.364  -1.277  55.111  1.00  0.00     0.002 A 
HETATM   24  C15 UNL     1      24.066  -0.625  54.119  1.00  0.00     0.002 A 
HETATM   25  C16 UNL     1      23.352  -0.100  53.044  1.00  0.00     0.022 A 
ENDBRANCH   1  14
TORSDOF 5
ENDMDL
MODEL 8
REMARK VINA RESULT:      -7.1      1.445      2.109
REMARK  5 active torsions:
REMARK  status: ('A' for Active; 'I' for Inactive)
REMARK    1  A    between atoms: C2_2  and  C3_3 
REMARK    2  A    between atoms: C3_3  and  C4_4 
REMARK    3  A    between atoms: C4_4  and  C5_5 
REMARK    4  A    between atoms: C9_11  and  C10_12 
REMARK    5  A    between atoms: C10_12  and  S1_13 
ROOT
HETATM    1  C10 UNL     1      22.449   3.595  52.292  1.00  0.00     0.129 C 
ENDROOT
BRANCH   1   2
HETATM    2  C9  UNL     1      21.369   2.962  51.505  1.00  0.00    -0.045 C 
HETATM    3  C8  UNL     1      21.030   3.654  50.246  1.00  0.00     0.205 C 
HETATM    4  O1  UNL     1      19.820   3.272  49.699  1.00  0.00    -0.367 OA
HETATM    5  C7  UNL     1      19.814   2.010  49.137  1.00  0.00     0.216 C 
HETATM    6  C6  UNL     1      19.319   1.094  50.224  1.00  0.00     0.023 C 
HETATM    7 BR1  UNL     1      21.560   1.445  48.522  1.00  0.00    -0.057 Br
HETATM    8  C5  UNL     1      19.797   1.054  51.479  1.00  0.00    -0.058 C 
HETATM    9  C18 UNL     1      20.864   1.862  52.051  1.00  0.00     0.012 C 
BRANCH   8  10
HETATM   10  C4  UNL     1      19.197   0.094  52.421  1.00  0.00     0.038 C 
BRANCH  10  11
HETATM   11  C3  UNL     1      17.951  -0.563  51.918  1.00  0.00     0.004 C 
BRANCH  11  12
HETATM   12  C2  UNL     1      17.300  -1.257  53.123  1.00  0.00    -0.004 C 
HETATM   13  C1  UNL     1      18.097  -2.409  53.632  1.00  0.00     0.005 C 
ENDBRANCH  11  12
ENDBRANCH  10  11
ENDBRANCH   8  10
ENDBRANCH   1   2
BRANCH   1  14
HETATM   14  S1  UNL     1      24.102   3.085  51.747  1.00  0.00    -0.056 SA
HETATM   15  N1  UNL     1      25.096   3.905  50.777  1.00  0.00    -0.166 NA
HETATM   16  C11 UNL     1      26.338   3.261  50.516  1.00  0.00     0.352 A 
HETATM   17  O2  UNL     1      27.140   3.896  49.748  1.00  0.00    -0.244 OA
HETATM   18  N2  UNL     1      26.786   1.999  51.008  1.00  0.00    -0.305 N 
HETATM   19  C12 UNL     1      26.036   1.143  51.874  1.00  0.00     0.054 A 
HETATM   20  H16 UNL     1      27.729   1.651  50.728  1.00  0.00     0.171 HD
HETATM   21  C13 UNL     1      26.585  -0.070  52.287  1.00  0.00     0.031 A 
HETATM   22  C17 UNL     1      24.777   1.500  52.308  1.00  0.00     0.039 A 
HETATM   23  C14 UNL     1      25.864  -0.898  53.123  1.00  0.00     0.002 A 
HETATM   24  C15 UNL     1      24.604  -0.548  53.560  1.00  0.00     0.002 A 
HETATM   25  C16 UNL     1      24.073   0.669  53.136  1.00  0.00     0.022 A 
ENDBRANCH   1  14
TORSDOF 5
ENDMDL
MODEL 9
REMARK VINA RESULT:      -7.0      2.672      5.563
REMARK  5 active torsions:
REMARK  status: ('A' for Active; 'I' for Inactive)
REMARK    1  A    between atoms: C2_2  and  C3_3 
REMARK    2  A    between atoms: C3_3  and  C4_4 
REMARK    3  A    between atoms: C4_4  and  C5_5 
REMARK    4  A    between atoms: C9_11  and  C10_12 
REMARK    5  A    between atoms: C10_12  and  S1_13 
ROOT
HETATM    1  C10 UNL     1      22.363   3.948  52.338  1.00  0.00     0.129 C 
ENDROOT
BRANCH   1   2
HETATM    2  C9  UNL     1      23.518   3.534  51.512  1.00  0.00    -0.045 C 
HETATM    3  C8  UNL     1      23.352   3.748  50.060  1.00  0.00     0.205 C 
HETATM    4  O1  UNL     1      24.262   3.060  49.280  1.00  0.00    -0.367 OA
HETATM    5  C7  UNL     1      25.550   3.559  49.320  1.00  0.00     0.216 C 
HETATM    6  C6  UNL     1      26.251   2.763  50.387  1.00  0.00     0.023 C 
HETATM    7 BR1  UNL     1      25.619   5.448  49.734  1.00  0.00    -0.057 Br
HETATM    8  C5  UNL     1      25.783   2.552  51.629  1.00  0.00    -0.058 C 
HETATM    9  C18 UNL     1      24.534   3.031  52.202  1.00  0.00     0.012 C 
BRANCH   8  10
HETATM   10  C4  UNL     1      26.601   1.746  52.552  1.00  0.00     0.038 C 
BRANCH  10  11
HETATM   11  C3  UNL     1      25.972   1.515  53.889  1.00  0.00     0.004 C 
BRANCH  11  12
HETATM   12  C2  UNL     1      26.049   0.005  54.157  1.00  0.00    -0.004 C 
HETATM   13  C1  UNL     1      26.110  -0.808  52.909  1.00  0.00     0.005 C 
ENDBRANCH  11  12
ENDBRANCH  10  11
ENDBRANCH   8  10
ENDBRANCH   1   2
BRANCH   1  14
HETATM   14  S1  UNL     1      20.968   2.795  52.212  1.00  0.00    -0.056 SA
HETATM   15  N1  UNL     1      19.556   3.061  51.478  1.00  0.00    -0.166 NA
HETATM   16  C11 UNL     1      18.640   1.973  51.536  1.00  0.00     0.352 A 
HETATM   17  O2  UNL     1      17.516   2.165  50.959  1.00  0.00    -0.244 OA
HETATM   18  N2  UNL     1      18.832   0.704  52.160  1.00  0.00    -0.305 N 
HETATM   19  C12 UNL     1      20.017   0.302  52.853  1.00  0.00     0.054 A 
HETATM   20  H16 UNL     1      18.065  -0.001  52.122  1.00  0.00     0.171 HD
HETATM   21  C13 UNL     1      20.083  -0.968  53.423  1.00  0.00     0.031 A 
HETATM   22  C17 UNL     1      21.096   1.153  52.967  1.00  0.00     0.039 A 
HETATM   23  C14 UNL     1      21.224  -1.359  54.093  1.00  0.00     0.002 A 
HETATM   24  C15 UNL     1      22.307  -0.514  54.210  1.00  0.00     0.002 A 
HETATM   25  C16 UNL     1      22.221   0.751  53.634  1.00  0.00     0.022 A 
ENDBRANCH   1  14
TORSDOF 5
ENDMDL
