MODEL 1
REMARK VINA RESULT:      -8.3      0.000      0.000
REMARK  5 active torsions:
REMARK  status: ('A' for Active; 'I' for Inactive)
REMARK    1  A    between atoms: C3_3  and  C4_4 
REMARK       I    between atoms: C4_4  and  N1_6 
REMARK    2  A    between atoms: N1_6  and  C5_7 
REMARK    3  A    between atoms: C10_13  and  N3_14 
REMARK    4  A    between atoms: C11_15  and  N4_16 
REMARK    5  A    between atoms: N4_16  and  C12_17 
ROOT
HETATM    1  C1  UNL     1      30.172  -1.008  53.795  1.00  0.00     0.112 C 
HETATM    2  C2  UNL     1      28.809  -0.476  53.935  1.00  0.00    -0.101 C 
HETATM    3  C3  UNL     1      27.676  -0.015  54.044  1.00  0.00    -0.006 C 
ENDROOT
BRANCH   3   4
HETATM    4  C4  UNL     1      26.354   0.529  54.171  1.00  0.00     0.300 C 
HETATM    5  O1  UNL     1      26.133   1.685  54.603  1.00  0.00    -0.258 OA
HETATM    6  N1  UNL     1      25.298  -0.335  53.770  1.00  0.00    -0.316 N 
HETATM    7  H4  UNL     1      25.486  -1.315  53.402  1.00  0.00     0.170 HD
BRANCH   6   8
HETATM    8  C5  UNL     1      23.880  -0.389  53.659  1.00  0.00     0.036 A 
HETATM    9  C6  UNL     1      23.210  -1.012  54.698  1.00  0.00     0.032 A 
HETATM   10  C7  UNL     1      21.816  -1.117  54.686  1.00  0.00     0.035 A 
HETATM   11  C8  UNL     1      21.176  -0.570  53.592  1.00  0.00     0.069 A 
HETATM   12  N2  UNL     1      19.842  -0.671  53.580  1.00  0.00    -0.258 NA
HETATM   13  C18 UNL     1      21.844   0.056  52.547  1.00  0.00     0.024 A 
HETATM   14  C9  UNL     1      19.117  -0.168  52.555  1.00  0.00     0.148 A 
HETATM   15  C10 UNL     1      19.780   0.457  51.511  1.00  0.00     0.071 A 
HETATM   16  C11 UNL     1      21.151   0.582  51.482  1.00  0.00     0.073 A 
HETATM   17  C19 UNL     1      23.225   0.147  52.583  1.00  0.00     0.045 A 
BRANCH  15  18
HETATM   18  N3  UNL     1      18.992   0.977  50.442  1.00  0.00    -0.396 N 
HETATM   19  H8  UNL     1      18.753   1.922  50.839  1.00  0.00     0.156 HD
HETATM   20  H9  UNL     1      18.760   0.492  49.547  1.00  0.00     0.156 HD
ENDBRANCH  15  18
BRANCH  16  21
HETATM   21  N4  UNL     1      21.834   1.223  50.413  1.00  0.00    -0.354 N 
HETATM   22  H10 UNL     1      21.929   0.706  49.512  1.00  0.00     0.166 HD
BRANCH  21  23
HETATM   23  C12 UNL     1      22.371   2.532  50.567  1.00  0.00     0.033 A 
HETATM   24  C13 UNL     1      21.618   3.499  51.199  1.00  0.00     0.029 A 
HETATM   25  C14 UNL     1      22.191   4.765  51.323  1.00  0.00     0.004 A 
HETATM   26  C15 UNL     1      23.456   5.027  50.832  1.00  0.00     0.019 A 
HETATM   27  C16 UNL     1      24.209   4.046  50.197  1.00  0.00     0.013 A 
HETATM   28 BR1  UNL     1      25.956   4.344  49.501  1.00  0.00    -0.051 Br
HETATM   29  C17 UNL     1      23.632   2.801  50.081  1.00  0.00     0.048 A 
ENDBRANCH  21  23
ENDBRANCH  16  21
ENDBRANCH   6   8
ENDBRANCH   3   4
TORSDOF 5
ENDMDL
MODEL 2
REMARK VINA RESULT:      -7.7      2.991      4.911
REMARK  5 active torsions:
REMARK  status: ('A' for Active; 'I' for Inactive)
REMARK    1  A    between atoms: C3_3  and  C4_4 
REMARK       I    between atoms: C4_4  and  N1_6 
REMARK    2  A    between atoms: N1_6  and  C5_7 
REMARK    3  A    between atoms: C10_13  and  N3_14 
REMARK    4  A    between atoms: C11_15  and  N4_16 
REMARK    5  A    between atoms: N4_16  and  C12_17 
ROOT
HETATM    1  C1  UNL     1      29.270   6.529  47.802  1.00  0.00     0.112 C 
HETATM    2  C2  UNL     1      28.195   5.716  48.391  1.00  0.00    -0.101 C 
HETATM    3  C3  UNL     1      27.295   5.029  48.864  1.00  0.00    -0.006 C 
ENDROOT
BRANCH   3   4
HETATM    4  C4  UNL     1      26.239   4.225  49.413  1.00  0.00     0.300 C 
HETATM    5  O1  UNL     1      25.052   4.302  49.018  1.00  0.00    -0.258 OA
HETATM    6  N1  UNL     1      26.630   3.326  50.442  1.00  0.00    -0.316 N 
HETATM    7  H4  UNL     1      27.638   3.261  50.775  1.00  0.00     0.170 HD
BRANCH   6   8
HETATM    8  C5  UNL     1      26.104   2.338  51.321  1.00  0.00     0.036 A 
HETATM    9  C6  UNL     1      27.019   1.448  51.858  1.00  0.00     0.032 A 
HETATM   10  C7  UNL     1      26.604   0.440  52.733  1.00  0.00     0.035 A 
HETATM   11  C8  UNL     1      25.253   0.399  53.014  1.00  0.00     0.069 A 
HETATM   12  N2  UNL     1      24.856  -0.566  53.851  1.00  0.00    -0.258 NA
HETATM   13  C18 UNL     1      24.332   1.289  52.477  1.00  0.00     0.024 A 
HETATM   14  C9  UNL     1      23.554  -0.696  54.193  1.00  0.00     0.148 A 
HETATM   15  C10 UNL     1      22.632   0.190  53.660  1.00  0.00     0.071 A 
HETATM   16  C11 UNL     1      22.997   1.197  52.795  1.00  0.00     0.073 A 
HETATM   17  C19 UNL     1      24.767   2.278  51.613  1.00  0.00     0.045 A 
BRANCH  15  18
HETATM   18  N3  UNL     1      21.266   0.030  54.037  1.00  0.00    -0.396 N 
HETATM   19  H8  UNL     1      20.823  -0.030  53.085  1.00  0.00     0.156 HD
HETATM   20  H9  UNL     1      20.890  -0.007  55.011  1.00  0.00     0.156 HD
ENDBRANCH  15  18
BRANCH  16  21
HETATM   21  N4  UNL     1      22.053   2.108  52.247  1.00  0.00    -0.354 N 
HETATM   22  H10 UNL     1      21.572   2.767  52.898  1.00  0.00     0.166 HD
BRANCH  21  23
HETATM   23  C12 UNL     1      21.773   2.121  50.852  1.00  0.00     0.033 A 
HETATM   24  C13 UNL     1      21.572   0.926  50.193  1.00  0.00     0.029 A 
HETATM   25  C14 UNL     1      21.301   0.995  48.827  1.00  0.00     0.004 A 
HETATM   26  C15 UNL     1      21.239   2.211  48.172  1.00  0.00     0.019 A 
HETATM   27  C16 UNL     1      21.441   3.412  48.843  1.00  0.00     0.013 A 
HETATM   28 BR1  UNL     1      21.367   5.116  47.999  1.00  0.00    -0.051 Br
HETATM   29  C17 UNL     1      21.708   3.329  50.192  1.00  0.00     0.048 A 
ENDBRANCH  21  23
ENDBRANCH  16  21
ENDBRANCH   6   8
ENDBRANCH   3   4
TORSDOF 5
ENDMDL
MODEL 3
REMARK VINA RESULT:      -7.5      2.443      6.132
REMARK  5 active torsions:
REMARK  status: ('A' for Active; 'I' for Inactive)
REMARK    1  A    between atoms: C3_3  and  C4_4 
REMARK       I    between atoms: C4_4  and  N1_6 
REMARK    2  A    between atoms: N1_6  and  C5_7 
REMARK    3  A    between atoms: C10_13  and  N3_14 
REMARK    4  A    between atoms: C11_15  and  N4_16 
REMARK    5  A    between atoms: N4_16  and  C12_17 
ROOT
HETATM    1  C1  UNL     1      16.884   1.196  49.513  1.00  0.00     0.112 C 
HETATM    2  C2  UNL     1      17.814   0.749  50.560  1.00  0.00    -0.101 C 
HETATM    3  C3  UNL     1      18.599   0.364  51.421  1.00  0.00    -0.006 C 
ENDROOT
BRANCH   3   4
HETATM    4  C4  UNL     1      19.517  -0.093  52.427  1.00  0.00     0.300 C 
HETATM    5  O1  UNL     1      19.152  -0.736  53.439  1.00  0.00    -0.258 OA
HETATM    6  N1  UNL     1      20.882   0.232  52.199  1.00  0.00    -0.316 N 
HETATM    7  H4  UNL     1      21.191   0.777  51.339  1.00  0.00     0.170 HD
BRANCH   6   8
HETATM    8  C5  UNL     1      22.177   0.082  52.770  1.00  0.00     0.036 A 
HETATM    9  C6  UNL     1      22.478  -1.170  53.280  1.00  0.00     0.032 A 
HETATM   10  C7  UNL     1      23.724  -1.421  53.861  1.00  0.00     0.035 A 
HETATM   11  C8  UNL     1      24.606  -0.360  53.889  1.00  0.00     0.069 A 
HETATM   12  N2  UNL     1      25.798  -0.601  54.446  1.00  0.00    -0.258 NA
HETATM   13  C18 UNL     1      24.308   0.897  53.378  1.00  0.00     0.024 A 
HETATM   14  C9  UNL     1      26.737   0.370  54.524  1.00  0.00     0.148 A 
HETATM   15  C10 UNL     1      26.444   1.625  54.016  1.00  0.00     0.071 A 
HETATM   16  C11 UNL     1      25.230   1.916  53.435  1.00  0.00     0.073 A 
HETATM   17  C19 UNL     1      23.068   1.121  52.807  1.00  0.00     0.045 A 
BRANCH  15  18
HETATM   18  N3  UNL     1      27.451   2.630  54.112  1.00  0.00    -0.396 N 
HETATM   19  H8  UNL     1      27.682   2.556  55.135  1.00  0.00     0.156 HD
HETATM   20  H9  UNL     1      27.806   3.231  53.334  1.00  0.00     0.156 HD
ENDBRANCH  15  18
BRANCH  16  21
HETATM   21  N4  UNL     1      24.926   3.203  52.912  1.00  0.00    -0.354 N 
HETATM   22  H10 UNL     1      24.576   3.931  53.573  1.00  0.00     0.166 HD
BRANCH  21  23
HETATM   23  C12 UNL     1      25.097   3.490  51.529  1.00  0.00     0.033 A 
HETATM   24  C13 UNL     1      26.269   3.120  50.903  1.00  0.00     0.029 A 
HETATM   25  C14 UNL     1      26.386   3.425  49.547  1.00  0.00     0.004 A 
HETATM   26  C15 UNL     1      25.366   4.069  48.870  1.00  0.00     0.019 A 
HETATM   27  C16 UNL     1      24.187   4.438  49.508  1.00  0.00     0.013 A 
HETATM   28 BR1  UNL     1      22.748   5.324  48.632  1.00  0.00    -0.051 Br
HETATM   29  C17 UNL     1      24.085   4.131  50.847  1.00  0.00     0.048 A 
ENDBRANCH  21  23
ENDBRANCH  16  21
ENDBRANCH   6   8
ENDBRANCH   3   4
TORSDOF 5
ENDMDL
MODEL 4
REMARK VINA RESULT:      -7.4      2.740      6.128
REMARK  5 active torsions:
REMARK  status: ('A' for Active; 'I' for Inactive)
REMARK    1  A    between atoms: C3_3  and  C4_4 
REMARK       I    between atoms: C4_4  and  N1_6 
REMARK    2  A    between atoms: N1_6  and  C5_7 
REMARK    3  A    between atoms: C10_13  and  N3_14 
REMARK    4  A    between atoms: C11_15  and  N4_16 
REMARK    5  A    between atoms: N4_16  and  C12_17 
ROOT
HETATM    1  C1  UNL     1      21.479   3.965  45.069  1.00  0.00     0.112 C 
HETATM    2  C2  UNL     1      21.932   3.581  46.415  1.00  0.00    -0.101 C 
HETATM    3  C3  UNL     1      22.314   3.281  47.541  1.00  0.00    -0.006 C 
ENDROOT
BRANCH   3   4
HETATM    4  C4  UNL     1      22.765   2.933  48.860  1.00  0.00     0.300 C 
HETATM    5  O1  UNL     1      23.912   3.213  49.282  1.00  0.00    -0.258 OA
HETATM    6  N1  UNL     1      21.818   2.246  49.667  1.00  0.00    -0.316 N 
HETATM    7  H4  UNL     1      20.844   2.010  49.308  1.00  0.00     0.170 HD
BRANCH   6   8
HETATM    8  C5  UNL     1      21.658   1.672  50.959  1.00  0.00     0.036 A 
HETATM    9  C6  UNL     1      20.451   1.914  51.591  1.00  0.00     0.032 A 
HETATM   10  C7  UNL     1      20.195   1.394  52.863  1.00  0.00     0.035 A 
HETATM   11  C8  UNL     1      21.206   0.643  53.426  1.00  0.00     0.069 A 
HETATM   12  N2  UNL     1      20.961   0.147  54.644  1.00  0.00    -0.258 NA
HETATM   13  C18 UNL     1      22.419   0.397  52.796  1.00  0.00     0.024 A 
HETATM   14  C9  UNL     1      21.885  -0.604  55.286  1.00  0.00     0.148 A 
HETATM   15  C10 UNL     1      23.097  -0.853  54.661  1.00  0.00     0.071 A 
HETATM   16  C11 UNL     1      23.390  -0.360  53.408  1.00  0.00     0.073 A 
HETATM   17  C19 UNL     1      22.649   0.923  51.537  1.00  0.00     0.045 A 
BRANCH  15  18
HETATM   18  N3  UNL     1      24.053  -1.646  55.360  1.00  0.00    -0.396 N 
HETATM   19  H8  UNL     1      24.910  -1.050  55.230  1.00  0.00     0.156 HD
HETATM   20  H9  UNL     1      23.873  -2.556  55.841  1.00  0.00     0.156 HD
ENDBRANCH  15  18
BRANCH  16  21
HETATM   21  N4  UNL     1      24.632  -0.613  52.764  1.00  0.00    -0.354 N 
HETATM   22  H10 UNL     1      24.661  -1.353  52.029  1.00  0.00     0.166 HD
BRANCH  21  23
HETATM   23  C12 UNL     1      25.800   0.123  53.111  1.00  0.00     0.033 A 
HETATM   24  C13 UNL     1      25.695   1.475  53.362  1.00  0.00     0.029 A 
HETATM   25  C14 UNL     1      26.870   2.148  53.697  1.00  0.00     0.004 A 
HETATM   26  C15 UNL     1      28.078   1.481  53.772  1.00  0.00     0.019 A 
HETATM   27  C16 UNL     1      28.175   0.118  53.518  1.00  0.00     0.013 A 
HETATM   28 BR1  UNL     1      29.808  -0.856  53.606  1.00  0.00    -0.051 Br
HETATM   29  C17 UNL     1      27.009  -0.535  53.188  1.00  0.00     0.048 A 
ENDBRANCH  21  23
ENDBRANCH  16  21
ENDBRANCH   6   8
ENDBRANCH   3   4
TORSDOF 5
ENDMDL
MODEL 5
REMARK VINA RESULT:      -7.4      2.579      6.095
REMARK  5 active torsions:
REMARK  status: ('A' for Active; 'I' for Inactive)
REMARK    1  A    between atoms: C3_3  and  C4_4 
REMARK       I    between atoms: C4_4  and  N1_6 
REMARK    2  A    between atoms: N1_6  and  C5_7 
REMARK    3  A    between atoms: C10_13  and  N3_14 
REMARK    4  A    between atoms: C11_15  and  N4_16 
REMARK    5  A    between atoms: N4_16  and  C12_17 
ROOT
HETATM    1  C1  UNL     1      16.013  -0.753  49.022  1.00  0.00     0.112 C 
HETATM    2  C2  UNL     1      17.054  -0.120  49.847  1.00  0.00    -0.101 C 
HETATM    3  C3  UNL     1      17.936   0.398  50.525  1.00  0.00    -0.006 C 
ENDROOT
BRANCH   3   4
HETATM    4  C4  UNL     1      18.971   1.000  51.318  1.00  0.00     0.300 C 
HETATM    5  O1  UNL     1      18.837   2.113  51.879  1.00  0.00    -0.258 OA
HETATM    6  N1  UNL     1      20.170   0.244  51.430  1.00  0.00    -0.316 N 
HETATM    7  H4  UNL     1      20.281  -0.701  50.954  1.00  0.00     0.170 HD
BRANCH   6   8
HETATM    8  C5  UNL     1      21.462   0.281  52.024  1.00  0.00     0.036 A 
HETATM    9  C6  UNL     1      21.646  -0.519  53.139  1.00  0.00     0.032 A 
HETATM   10  C7  UNL     1      22.879  -0.555  53.796  1.00  0.00     0.035 A 
HETATM   11  C8  UNL     1      23.872   0.244  53.266  1.00  0.00     0.069 A 
HETATM   12  N2  UNL     1      25.052   0.210  53.895  1.00  0.00    -0.258 NA
HETATM   13  C18 UNL     1      23.692   1.048  52.148  1.00  0.00     0.024 A 
HETATM   14  C9  UNL     1      26.093   0.955  53.458  1.00  0.00     0.148 A 
HETATM   15  C10 UNL     1      25.919   1.758  52.343  1.00  0.00     0.071 A 
HETATM   16  C11 UNL     1      24.721   1.824  51.666  1.00  0.00     0.073 A 
HETATM   17  C19 UNL     1      22.462   1.066  51.515  1.00  0.00     0.045 A 
BRANCH  15  18
HETATM   18  N3  UNL     1      27.032   2.534  51.904  1.00  0.00    -0.396 N 
HETATM   19  H8  UNL     1      27.490   2.730  52.830  1.00  0.00     0.156 HD
HETATM   20  H9  UNL     1      27.260   2.791  50.917  1.00  0.00     0.156 HD
ENDBRANCH  15  18
BRANCH  16  21
HETATM   21  N4  UNL     1      24.538   2.647  50.521  1.00  0.00    -0.354 N 
HETATM   22  H10 UNL     1      24.401   2.180  49.598  1.00  0.00     0.166 HD
BRANCH  21  23
HETATM   23  C12 UNL     1      24.542   4.066  50.632  1.00  0.00     0.033 A 
HETATM   24  C13 UNL     1      23.758   4.669  51.593  1.00  0.00     0.029 A 
HETATM   25  C14 UNL     1      23.798   6.062  51.659  1.00  0.00     0.004 A 
HETATM   26  C15 UNL     1      24.591   6.794  50.795  1.00  0.00     0.019 A 
HETATM   27  C16 UNL     1      25.379   6.179  49.829  1.00  0.00     0.013 A 
HETATM   28 BR1  UNL     1      26.490   7.131  48.613  1.00  0.00    -0.051 Br
HETATM   29  C17 UNL     1      25.330   4.804  49.775  1.00  0.00     0.048 A 
ENDBRANCH  21  23
ENDBRANCH  16  21
ENDBRANCH   6   8
ENDBRANCH   3   4
TORSDOF 5
ENDMDL
MODEL 6
REMARK VINA RESULT:      -7.3      2.535      6.070
REMARK  5 active torsions:
REMARK  status: ('A' for Active; 'I' for Inactive)
REMARK    1  A    between atoms: C3_3  and  C4_4 
REMARK       I    between atoms: C4_4  and  N1_6 
REMARK    2  A    between atoms: N1_6  and  C5_7 
REMARK    3  A    between atoms: C10_13  and  N3_14 
REMARK    4  A    between atoms: C11_15  and  N4_16 
REMARK    5  A    between atoms: N4_16  and  C12_17 
ROOT
HETATM    1  C1  UNL     1      15.640   1.304  50.310  1.00  0.00     0.112 C 
HETATM    2  C2  UNL     1      16.642   0.618  51.140  1.00  0.00    -0.101 C 
HETATM    3  C3  UNL     1      17.476   0.030  51.821  1.00  0.00    -0.006 C 
ENDROOT
BRANCH   3   4
HETATM    4  C4  UNL     1      18.450  -0.664  52.617  1.00  0.00     0.300 C 
HETATM    5  O1  UNL     1      18.184  -1.708  53.259  1.00  0.00    -0.258 OA
HETATM    6  N1  UNL     1      19.749  -0.087  52.630  1.00  0.00    -0.316 N 
HETATM    7  H4  UNL     1      19.973   0.798  52.085  1.00  0.00     0.170 HD
BRANCH   6   8
HETATM    8  C5  UNL     1      21.049  -0.275  53.178  1.00  0.00     0.036 A 
HETATM    9  C6  UNL     1      21.126  -1.060  54.315  1.00  0.00     0.032 A 
HETATM   10  C7  UNL     1      22.357  -1.307  54.930  1.00  0.00     0.035 A 
HETATM   11  C8  UNL     1      23.458  -0.726  54.336  1.00  0.00     0.069 A 
HETATM   12  N2  UNL     1      24.636  -0.961  54.925  1.00  0.00    -0.258 NA
HETATM   13  C18 UNL     1      23.386   0.063  53.195  1.00  0.00     0.024 A 
HETATM   14  C9  UNL     1      25.780  -0.440  54.424  1.00  0.00     0.148 A 
HETATM   15  C10 UNL     1      25.712   0.347  53.285  1.00  0.00     0.071 A 
HETATM   16  C11 UNL     1      24.521   0.615  52.648  1.00  0.00     0.073 A 
HETATM   17  C19 UNL     1      22.156   0.292  52.604  1.00  0.00     0.045 A 
BRANCH  15  18
HETATM   18  N3  UNL     1      26.932   0.885  52.778  1.00  0.00    -0.396 N 
HETATM   19  H8  UNL     1      27.622   0.311  53.327  1.00  0.00     0.156 HD
HETATM   20  H9  UNL     1      27.029   1.639  52.062  1.00  0.00     0.156 HD
ENDBRANCH  15  18
BRANCH  16  21
HETATM   21  N4  UNL     1      24.449   1.422  51.479  1.00  0.00    -0.354 N 
HETATM   22  H10 UNL     1      24.653   0.973  50.560  1.00  0.00     0.166 HD
BRANCH  21  23
HETATM   23  C12 UNL     1      24.106   2.800  51.561  1.00  0.00     0.033 A 
HETATM   24  C13 UNL     1      23.947   3.383  52.802  1.00  0.00     0.029 A 
HETATM   25  C14 UNL     1      23.612   4.737  52.826  1.00  0.00     0.004 A 
HETATM   26  C15 UNL     1      23.449   5.453  51.654  1.00  0.00     0.019 A 
HETATM   27  C16 UNL     1      23.612   4.858  50.408  1.00  0.00     0.013 A 
HETATM   28 BR1  UNL     1      23.402   5.789  48.761  1.00  0.00    -0.051 Br
HETATM   29  C17 UNL     1      23.942   3.522  50.398  1.00  0.00     0.048 A 
ENDBRANCH  21  23
ENDBRANCH  16  21
ENDBRANCH   6   8
ENDBRANCH   3   4
TORSDOF 5
ENDMDL
MODEL 7
REMARK VINA RESULT:      -7.2      2.728      6.323
REMARK  5 active torsions:
REMARK  status: ('A' for Active; 'I' for Inactive)
REMARK    1  A    between atoms: C3_3  and  C4_4 
REMARK       I    between atoms: C4_4  and  N1_6 
REMARK    2  A    between atoms: N1_6  and  C5_7 
REMARK    3  A    between atoms: C10_13  and  N3_14 
REMARK    4  A    between atoms: C11_15  and  N4_16 
REMARK    5  A    between atoms: N4_16  and  C12_17 
ROOT
HETATM    1  C1  UNL     1      15.439   2.805  51.666  1.00  0.00     0.112 C 
HETATM    2  C2  UNL     1      16.793   2.290  51.414  1.00  0.00    -0.101 C 
HETATM    3  C3  UNL     1      17.928   1.861  51.223  1.00  0.00    -0.006 C 
ENDROOT
BRANCH   3   4
HETATM    4  C4  UNL     1      19.257   1.363  51.005  1.00  0.00     0.300 C 
HETATM    5  O1  UNL     1      19.680   1.031  49.873  1.00  0.00    -0.258 OA
HETATM    6  N1  UNL     1      20.072   1.272  52.166  1.00  0.00    -0.316 N 
HETATM    7  H4  UNL     1      19.712   1.555  53.126  1.00  0.00     0.170 HD
BRANCH   6   8
HETATM    8  C5  UNL     1      21.376   0.889  52.588  1.00  0.00     0.036 A 
HETATM    9  C6  UNL     1      21.555  -0.454  52.876  1.00  0.00     0.032 A 
HETATM   10  C7  UNL     1      22.799  -0.933  53.297  1.00  0.00     0.035 A 
HETATM   11  C8  UNL     1      23.806   0.005  53.402  1.00  0.00     0.069 A 
HETATM   12  N2  UNL     1      24.996  -0.453  53.807  1.00  0.00    -0.258 NA
HETATM   13  C18 UNL     1      23.631   1.352  53.114  1.00  0.00     0.024 A 
HETATM   14  C9  UNL     1      26.052   0.381  53.943  1.00  0.00     0.148 A 
HETATM   15  C10 UNL     1      25.881   1.726  53.656  1.00  0.00     0.071 A 
HETATM   16  C11 UNL     1      24.674   2.240  53.238  1.00  0.00     0.073 A 
HETATM   17  C19 UNL     1      22.390   1.802  52.699  1.00  0.00     0.045 A 
BRANCH  15  18
HETATM   18  N3  UNL     1      27.010   2.584  53.809  1.00  0.00    -0.396 N 
HETATM   19  H8  UNL     1      27.461   2.456  52.867  1.00  0.00     0.156 HD
HETATM   20  H9  UNL     1      27.252   3.148  54.654  1.00  0.00     0.156 HD
ENDBRANCH  15  18
BRANCH  16  21
HETATM   21  N4  UNL     1      24.496   3.620  52.943  1.00  0.00    -0.354 N 
HETATM   22  H10 UNL     1      24.363   4.279  53.741  1.00  0.00     0.166 HD
BRANCH  21  23
HETATM   23  C12 UNL     1      24.501   4.087  51.600  1.00  0.00     0.033 A 
HETATM   24  C13 UNL     1      25.365   3.513  50.689  1.00  0.00     0.029 A 
HETATM   25  C14 UNL     1      25.329   4.009  49.386  1.00  0.00     0.004 A 
HETATM   26  C15 UNL     1      24.465   5.029  49.033  1.00  0.00     0.019 A 
HETATM   27  C16 UNL     1      23.598   5.601  49.957  1.00  0.00     0.013 A 
HETATM   28 BR1  UNL     1      22.385   7.006  49.532  1.00  0.00    -0.051 Br
HETATM   29  C17 UNL     1      23.642   5.103  51.240  1.00  0.00     0.048 A 
ENDBRANCH  21  23
ENDBRANCH  16  21
ENDBRANCH   6   8
ENDBRANCH   3   4
TORSDOF 5
ENDMDL
MODEL 8
REMARK VINA RESULT:      -6.9      3.580      6.238
REMARK  5 active torsions:
REMARK  status: ('A' for Active; 'I' for Inactive)
REMARK    1  A    between atoms: C3_3  and  C4_4 
REMARK       I    between atoms: C4_4  and  N1_6 
REMARK    2  A    between atoms: N1_6  and  C5_7 
REMARK    3  A    between atoms: C10_13  and  N3_14 
REMARK    4  A    between atoms: C11_15  and  N4_16 
REMARK    5  A    between atoms: N4_16  and  C12_17 
ROOT
HETATM    1  C1  UNL     1      30.592   6.511  47.785  1.00  0.00     0.112 C 
HETATM    2  C2  UNL     1      29.350   5.847  48.205  1.00  0.00    -0.101 C 
HETATM    3  C3  UNL     1      28.312   5.304  48.572  1.00  0.00    -0.006 C 
ENDROOT
BRANCH   3   4
HETATM    4  C4  UNL     1      27.099   4.669  49.007  1.00  0.00     0.300 C 
HETATM    5  O1  UNL     1      27.044   3.461  49.337  1.00  0.00    -0.258 OA
HETATM    6  N1  UNL     1      25.952   5.508  49.043  1.00  0.00    -0.316 N 
HETATM    7  H4  UNL     1      26.000   6.533  48.764  1.00  0.00     0.170 HD
BRANCH   6   8
HETATM    8  C5  UNL     1      24.563   5.489  49.356  1.00  0.00     0.036 A 
HETATM    9  C6  UNL     1      23.933   6.720  49.411  1.00  0.00     0.032 A 
HETATM   10  C7  UNL     1      22.570   6.810  49.710  1.00  0.00     0.035 A 
HETATM   11  C8  UNL     1      21.919   5.615  49.939  1.00  0.00     0.069 A 
HETATM   12  N2  UNL     1      20.616   5.701  50.226  1.00  0.00    -0.258 NA
HETATM   13  C18 UNL     1      22.548   4.378  49.885  1.00  0.00     0.024 A 
HETATM   14  C9  UNL     1      19.882   4.590  50.467  1.00  0.00     0.148 A 
HETATM   15  C10 UNL     1      20.506   3.354  50.413  1.00  0.00     0.071 A 
HETATM   16  C11 UNL     1      21.846   3.219  50.123  1.00  0.00     0.073 A 
HETATM   17  C19 UNL     1      23.898   4.315  49.587  1.00  0.00     0.045 A 
BRANCH  15  18
HETATM   18  N3  UNL     1      19.710   2.199  50.673  1.00  0.00    -0.396 N 
HETATM   19  H8  UNL     1      19.353   2.007  49.702  1.00  0.00     0.156 HD
HETATM   20  H9  UNL     1      19.572   1.734  51.598  1.00  0.00     0.156 HD
ENDBRANCH  15  18
BRANCH  16  21
HETATM   21  N4  UNL     1      22.488   1.952  50.067  1.00  0.00    -0.354 N 
HETATM   22  H10 UNL     1      22.542   1.471  49.143  1.00  0.00     0.166 HD
BRANCH  21  23
HETATM   23  C12 UNL     1      23.042   1.360  51.236  1.00  0.00     0.033 A 
HETATM   24  C13 UNL     1      24.350   1.635  51.576  1.00  0.00     0.029 A 
HETATM   25  C14 UNL     1      24.843   1.029  52.732  1.00  0.00     0.004 A 
HETATM   26  C15 UNL     1      24.049   0.192  53.493  1.00  0.00     0.019 A 
HETATM   27  C16 UNL     1      22.731  -0.080  53.144  1.00  0.00     0.013 A 
HETATM   28 BR1  UNL     1      21.588  -1.221  54.151  1.00  0.00    -0.051 Br
HETATM   29  C17 UNL     1      22.256   0.525  52.001  1.00  0.00     0.048 A 
ENDBRANCH  21  23
ENDBRANCH  16  21
ENDBRANCH   6   8
ENDBRANCH   3   4
TORSDOF 5
ENDMDL
MODEL 9
REMARK VINA RESULT:      -6.9      2.655      5.939
REMARK  5 active torsions:
REMARK  status: ('A' for Active; 'I' for Inactive)
REMARK    1  A    between atoms: C3_3  and  C4_4 
REMARK       I    between atoms: C4_4  and  N1_6 
REMARK    2  A    between atoms: N1_6  and  C5_7 
REMARK    3  A    between atoms: C10_13  and  N3_14 
REMARK    4  A    between atoms: C11_15  and  N4_16 
REMARK    5  A    between atoms: N4_16  and  C12_17 
ROOT
HETATM    1  C1  UNL     1      16.302  -0.499  51.764  1.00  0.00     0.112 C 
HETATM    2  C2  UNL     1      17.687  -0.527  52.259  1.00  0.00    -0.101 C 
HETATM    3  C3  UNL     1      18.835  -0.553  52.690  1.00  0.00    -0.006 C 
ENDROOT
BRANCH   3   4
HETATM    4  C4  UNL     1      20.177  -0.581  53.200  1.00  0.00     0.300 C 
HETATM    5  O1  UNL     1      20.508  -1.249  54.208  1.00  0.00    -0.258 OA
HETATM    6  N1  UNL     1      21.119   0.204  52.480  1.00  0.00    -0.316 N 
HETATM    7  H4  UNL     1      20.838   0.769  51.624  1.00  0.00     0.170 HD
BRANCH   6   8
HETATM    8  C5  UNL     1      22.494   0.570  52.473  1.00  0.00     0.036 A 
HETATM    9  C6  UNL     1      23.294  -0.038  53.425  1.00  0.00     0.032 A 
HETATM   10  C7  UNL     1      24.659   0.254  53.501  1.00  0.00     0.035 A 
HETATM   11  C8  UNL     1      25.136   1.166  52.583  1.00  0.00     0.069 A 
HETATM   12  N2  UNL     1      26.443   1.445  52.657  1.00  0.00    -0.258 NA
HETATM   13  C18 UNL     1      24.338   1.778  51.625  1.00  0.00     0.024 A 
HETATM   14  C9  UNL     1      27.014   2.326  51.803  1.00  0.00     0.148 A 
HETATM   15  C10 UNL     1      26.221   2.939  50.846  1.00  0.00     0.071 A 
HETATM   16  C11 UNL     1      24.872   2.681  50.736  1.00  0.00     0.073 A 
HETATM   17  C19 UNL     1      22.990   1.473  51.570  1.00  0.00     0.045 A 
BRANCH  15  18
HETATM   18  N3  UNL     1      26.848   3.863  49.959  1.00  0.00    -0.396 N 
HETATM   19  H8  UNL     1      26.093   3.955  49.233  1.00  0.00     0.156 HD
HETATM   20  H9  UNL     1      27.797   4.286  50.071  1.00  0.00     0.156 HD
ENDBRANCH  15  18
BRANCH  16  21
HETATM   21  N4  UNL     1      24.056   3.308  49.755  1.00  0.00    -0.354 N 
HETATM   22  H10 UNL     1      23.665   2.715  48.991  1.00  0.00     0.166 HD
BRANCH  21  23
HETATM   23  C12 UNL     1      23.781   4.702  49.814  1.00  0.00     0.033 A 
HETATM   24  C13 UNL     1      23.133   5.215  50.919  1.00  0.00     0.029 A 
HETATM   25  C14 UNL     1      22.887   6.588  50.927  1.00  0.00     0.004 A 
HETATM   26  C15 UNL     1      23.279   7.389  49.871  1.00  0.00     0.019 A 
HETATM   27  C16 UNL     1      23.932   6.865  48.761  1.00  0.00     0.013 A 
HETATM   28 BR1  UNL     1      24.497   7.915  47.278  1.00  0.00    -0.051 Br
HETATM   29  C17 UNL     1      24.169   5.508  48.766  1.00  0.00     0.048 A 
ENDBRANCH  21  23
ENDBRANCH  16  21
ENDBRANCH   6   8
ENDBRANCH   3   4
TORSDOF 5
ENDMDL
