MODEL 1
REMARK VINA RESULT:      -7.9      0.000      0.000
REMARK  9 active torsions:
REMARK  status: ('A' for Active; 'I' for Inactive)
REMARK    1  A    between atoms: C2_2  and  C3_4 
REMARK    2  A    between atoms: C3_4  and  C4_5 
REMARK    3  A    between atoms: C4_5  and  C5_6 
REMARK    4  A    between atoms: C5_6  and  C6_7 
REMARK    5  A    between atoms: C6_7  and  N1_8 
REMARK    6  A    between atoms: N1_8  and  C7_9 
REMARK    7  A    between atoms: C11_14  and  N3_15 
REMARK    8  A    between atoms: C12_16  and  O1_17 
REMARK    9  A    between atoms: O1_17  and  C13_18 
ROOT
HETATM    1  C7  UNL     1      19.003  -0.067  52.287  1.00  0.00     0.149 C 
HETATM    2  N2  UNL     1      19.402  -0.670  53.295  1.00  0.00    -0.238 NA
HETATM    3  C8  UNL     1      20.402  -1.085  54.057  1.00  0.00     0.120 C 
HETATM    4  C9  UNL     1      21.638  -1.138  54.463  1.00  0.00     0.034 C 
HETATM    5  C10 UNL     1      22.968  -0.658  54.286  1.00  0.00     0.011 C 
HETATM    6  C11 UNL     1      23.495  -1.390  55.287  1.00  0.00     0.068 C 
HETATM    7  C12 UNL     1      23.907   0.234  53.626  1.00  0.00     0.116 C 
HETATM    8  C17 UNL     1      23.682   1.033  52.568  1.00  0.00     0.133 C 
HETATM    9  O3  UNL     1      24.830   1.742  52.256  1.00  0.00    -0.344 OA
HETATM   10  C18 UNL     1      24.968   2.999  51.635  1.00  0.00     0.202 C 
HETATM   11  C19 UNL     1      24.376   2.808  50.239  1.00  0.00     0.202 C 
HETATM   12  O4  UNL     1      22.994   2.482  50.525  1.00  0.00    -0.349 OA
HETATM   13  C20 UNL     1      22.794   1.560  51.517  1.00  0.00     0.098 C 
HETATM   14  C21 UNL     1      21.553   1.054  51.473  1.00  0.00     0.240 C 
HETATM   15  S1  UNL     1      19.843   0.753  50.957  1.00  0.00    -0.164 SA
ENDROOT
BRANCH   1  16
HETATM   16  N1  UNL     1      17.600  -0.156  52.279  1.00  0.00    -0.346 N 
HETATM   17  H9  UNL     1      17.173  -0.769  53.051  1.00  0.00     0.167 HD
BRANCH  16  18
HETATM   18  C6  UNL     1      16.525   0.347  51.536  1.00  0.00     0.090 C 
BRANCH  18  19
HETATM   19  C5  UNL     1      15.687   1.071  52.171  1.00  0.00     0.013 C 
BRANCH  19  20
HETATM   20  C4  UNL     1      14.857   2.169  52.498  1.00  0.00    -0.017 C 
BRANCH  20  21
HETATM   21  C3  UNL     1      13.932   2.876  53.043  1.00  0.00     0.052 C 
BRANCH  21  22
HETATM   22  C2  UNL     1      13.382   4.124  53.587  1.00  0.00     0.174 C 
HETATM   23  C1  UNL     1      12.184   3.949  54.514  1.00  0.00     0.045 C 
HETATM   24  F1  UNL     1      14.349   4.922  54.164  1.00  0.00    -0.249 F 
ENDBRANCH  21  22
ENDBRANCH  20  21
ENDBRANCH  19  20
ENDBRANCH  18  19
ENDBRANCH  16  18
ENDBRANCH   1  16
BRANCH   6  25
HETATM   25  N3  UNL     1      24.766  -1.577  55.850  1.00  0.00    -0.311 NA
HETATM   26  H13 UNL     1      25.646  -1.214  56.256  1.00  0.00     0.123 HD
HETATM   27  H14 UNL     1      25.523  -0.931  56.178  1.00  0.00     0.123 HD
ENDBRANCH   6  25
BRANCH   7  28
HETATM   28  O1  UNL     1      25.189   0.199  54.237  1.00  0.00    -0.340 OA
BRANCH  28  29
HETATM   29  C13 UNL     1      26.400   0.186  53.592  1.00  0.00     0.154 C 
HETATM   30  C14 UNL     1      26.815  -1.134  52.975  1.00  0.00     0.061 C 
HETATM   31  C15 UNL     1      28.305  -1.111  53.115  1.00  0.00     0.170 C 
HETATM   32  O2  UNL     1      28.639   0.133  53.676  1.00  0.00    -0.389 OA
HETATM   33  C16 UNL     1      27.560   0.307  54.610  1.00  0.00     0.200 C 
ENDBRANCH  28  29
ENDBRANCH   7  28
TORSDOF 9
ENDMDL
MODEL 2
REMARK VINA RESULT:      -7.8      2.836      3.544
REMARK  9 active torsions:
REMARK  status: ('A' for Active; 'I' for Inactive)
REMARK    1  A    between atoms: C2_2  and  C3_4 
REMARK    2  A    between atoms: C3_4  and  C4_5 
REMARK    3  A    between atoms: C4_5  and  C5_6 
REMARK    4  A    between atoms: C5_6  and  C6_7 
REMARK    5  A    between atoms: C6_7  and  N1_8 
REMARK    6  A    between atoms: N1_8  and  C7_9 
REMARK    7  A    between atoms: C11_14  and  N3_15 
REMARK    8  A    between atoms: C12_16  and  O1_17 
REMARK    9  A    between atoms: O1_17  and  C13_18 
ROOT
HETATM    1  C7  UNL     1      19.156   0.279  51.839  1.00  0.00     0.149 C 
HETATM    2  N2  UNL     1      19.463  -0.327  52.877  1.00  0.00    -0.238 NA
HETATM    3  C8  UNL     1      20.393  -0.785  53.700  1.00  0.00     0.120 C 
HETATM    4  C9  UNL     1      21.600  -0.901  54.176  1.00  0.00     0.034 C 
HETATM    5  C10 UNL     1      22.963  -0.502  54.068  1.00  0.00     0.011 C 
HETATM    6  C11 UNL     1      23.390  -1.245  55.108  1.00  0.00     0.068 C 
HETATM    7  C12 UNL     1      23.987   0.323  53.449  1.00  0.00     0.116 C 
HETATM    8  C17 UNL     1      23.868   1.115  52.368  1.00  0.00     0.133 C 
HETATM    9  O3  UNL     1      25.071   1.751  52.111  1.00  0.00    -0.344 OA
HETATM   10  C18 UNL     1      25.316   2.987  51.481  1.00  0.00     0.202 C 
HETATM   11  C19 UNL     1      24.793   2.806  50.056  1.00  0.00     0.202 C 
HETATM   12  O4  UNL     1      23.381   2.564  50.269  1.00  0.00    -0.349 OA
HETATM   13  C20 UNL     1      23.072   1.673  51.261  1.00  0.00     0.098 C 
HETATM   14  C21 UNL     1      21.808   1.239  51.154  1.00  0.00     0.240 C 
HETATM   15  S1  UNL     1      20.115   1.027  50.547  1.00  0.00    -0.164 SA
ENDROOT
BRANCH   1  16
HETATM   16  N1  UNL     1      17.753   0.271  51.753  1.00  0.00    -0.346 N 
HETATM   17  H9  UNL     1      17.246   0.920  52.443  1.00  0.00     0.167 HD
BRANCH  16  18
HETATM   18  C6  UNL     1      16.756  -0.352  50.993  1.00  0.00     0.090 C 
BRANCH  18  19
HETATM   19  C5  UNL     1      16.053  -1.232  51.592  1.00  0.00     0.013 C 
BRANCH  19  20
HETATM   20  C4  UNL     1      15.721  -2.380  52.349  1.00  0.00    -0.017 C 
BRANCH  20  21
HETATM   21  C3  UNL     1      15.830  -3.493  52.984  1.00  0.00     0.052 C 
BRANCH  21  22
HETATM   22  C2  UNL     1      16.588  -4.525  53.704  1.00  0.00     0.174 C 
HETATM   23  C1  UNL     1      15.772  -5.738  54.137  1.00  0.00     0.045 C 
HETATM   24  F1  UNL     1      17.732  -4.906  53.033  1.00  0.00    -0.249 F 
ENDBRANCH  21  22
ENDBRANCH  20  21
ENDBRANCH  19  20
ENDBRANCH  18  19
ENDBRANCH  16  18
ENDBRANCH   1  16
BRANCH   6  25
HETATM   25  N3  UNL     1      24.614  -1.494  55.744  1.00  0.00    -0.311 NA
HETATM   26  H13 UNL     1      25.649  -1.501  55.760  1.00  0.00     0.123 HD
HETATM   27  H14 UNL     1      25.619  -1.415  55.455  1.00  0.00     0.123 HD
ENDBRANCH   6  25
BRANCH   7  28
HETATM   28  O1  UNL     1      25.229   0.226  54.132  1.00  0.00    -0.340 OA
BRANCH  28  29
HETATM   29  C13 UNL     1      26.473   0.162  53.557  1.00  0.00     0.154 C 
HETATM   30  C14 UNL     1      26.864  -1.172  52.954  1.00  0.00     0.061 C 
HETATM   31  C15 UNL     1      28.343  -1.216  53.179  1.00  0.00     0.170 C 
HETATM   32  O2  UNL     1      28.700   0.008  53.768  1.00  0.00    -0.389 OA
HETATM   33  C16 UNL     1      27.578   0.225  54.641  1.00  0.00     0.200 C 
ENDBRANCH  28  29
ENDBRANCH   7  28
TORSDOF 9
ENDMDL
MODEL 3
REMARK VINA RESULT:      -7.5      5.885     10.171
REMARK  9 active torsions:
REMARK  status: ('A' for Active; 'I' for Inactive)
REMARK    1  A    between atoms: C2_2  and  C3_4 
REMARK    2  A    between atoms: C3_4  and  C4_5 
REMARK    3  A    between atoms: C4_5  and  C5_6 
REMARK    4  A    between atoms: C5_6  and  C6_7 
REMARK    5  A    between atoms: C6_7  and  N1_8 
REMARK    6  A    between atoms: N1_8  and  C7_9 
REMARK    7  A    between atoms: C11_14  and  N3_15 
REMARK    8  A    between atoms: C12_16  and  O1_17 
REMARK    9  A    between atoms: O1_17  and  C13_18 
ROOT
HETATM    1  C7  UNL     1      25.937   5.143  49.895  1.00  0.00     0.149 C 
HETATM    2  N2  UNL     1      24.793   5.526  50.187  1.00  0.00    -0.238 NA
HETATM    3  C8  UNL     1      23.590   5.263  50.669  1.00  0.00     0.120 C 
HETATM    4  C9  UNL     1      22.690   4.549  51.284  1.00  0.00     0.034 C 
HETATM    5  C10 UNL     1      22.403   3.334  51.971  1.00  0.00     0.011 C 
HETATM    6  C11 UNL     1      21.111   3.631  52.207  1.00  0.00     0.068 C 
HETATM    7  C12 UNL     1      22.853   2.076  52.543  1.00  0.00     0.116 C 
HETATM    8  C17 UNL     1      24.062   1.499  52.422  1.00  0.00     0.133 C 
HETATM    9  O3  UNL     1      24.096   0.313  53.137  1.00  0.00    -0.344 OA
HETATM   10  C18 UNL     1      25.190  -0.345  53.732  1.00  0.00     0.202 C 
HETATM   11  C19 UNL     1      26.109  -0.703  52.565  1.00  0.00     0.202 C 
HETATM   12  O4  UNL     1      26.467   0.598  52.037  1.00  0.00    -0.349 OA
HETATM   13  C20 UNL     1      25.435   1.484  51.887  1.00  0.00     0.098 C 
HETATM   14  C21 UNL     1      25.773   2.498  51.078  1.00  0.00     0.240 C 
HETATM   15  S1  UNL     1      26.743   3.566  49.982  1.00  0.00    -0.164 SA
ENDROOT
BRANCH   1  16
HETATM   16  N1  UNL     1      26.620   6.248  49.359  1.00  0.00    -0.346 N 
HETATM   17  H9  UNL     1      26.660   7.116  49.991  1.00  0.00     0.167 HD
BRANCH  16  18
HETATM   18  C6  UNL     1      27.315   6.582  48.190  1.00  0.00     0.090 C 
BRANCH  18  19
HETATM   19  C5  UNL     1      28.557   6.290  48.166  1.00  0.00     0.013 C 
BRANCH  19  20
HETATM   20  C4  UNL     1      29.746   5.550  47.962  1.00  0.00    -0.017 C 
BRANCH  20  21
HETATM   21  C3  UNL     1      30.989   5.264  47.802  1.00  0.00     0.052 C 
BRANCH  21  22
HETATM   22  C2  UNL     1      32.123   4.333  47.725  1.00  0.00     0.174 C 
HETATM   23  C1  UNL     1      32.021   3.286  46.621  1.00  0.00     0.045 C 
HETATM   24  F1  UNL     1      33.340   4.984  47.688  1.00  0.00    -0.249 F 
ENDBRANCH  21  22
ENDBRANCH  20  21
ENDBRANCH  19  20
ENDBRANCH  18  19
ENDBRANCH  16  18
ENDBRANCH   1  16
BRANCH   6  25
HETATM   25  N3  UNL     1      20.021   3.003  52.828  1.00  0.00    -0.311 NA
HETATM   26  H13 UNL     1      19.010   2.919  53.028  1.00  0.00     0.123 HD
HETATM   27  H14 UNL     1      18.991   3.190  52.863  1.00  0.00     0.123 HD
ENDBRANCH   6  25
BRANCH   7  28
HETATM   28  O1  UNL     1      21.834   1.448  53.307  1.00  0.00    -0.340 OA
BRANCH  28  29
HETATM   29  C13 UNL     1      21.603   0.099  53.408  1.00  0.00     0.154 C 
HETATM   30  C14 UNL     1      20.248  -0.385  52.935  1.00  0.00     0.061 C 
HETATM   31  C15 UNL     1      19.973  -1.541  53.846  1.00  0.00     0.170 C 
HETATM   32  O2  UNL     1      21.108  -1.694  54.659  1.00  0.00    -0.389 OA
HETATM   33  C16 UNL     1      21.461  -0.320  54.892  1.00  0.00     0.200 C 
ENDBRANCH  28  29
ENDBRANCH   7  28
TORSDOF 9
ENDMDL
MODEL 4
REMARK VINA RESULT:      -7.3      6.117      9.642
REMARK  9 active torsions:
REMARK  status: ('A' for Active; 'I' for Inactive)
REMARK    1  A    between atoms: C2_2  and  C3_4 
REMARK    2  A    between atoms: C3_4  and  C4_5 
REMARK    3  A    between atoms: C4_5  and  C5_6 
REMARK    4  A    between atoms: C5_6  and  C6_7 
REMARK    5  A    between atoms: C6_7  and  N1_8 
REMARK    6  A    between atoms: N1_8  and  C7_9 
REMARK    7  A    between atoms: C11_14  and  N3_15 
REMARK    8  A    between atoms: C12_16  and  O1_17 
REMARK    9  A    between atoms: O1_17  and  C13_18 
ROOT
HETATM    1  C7  UNL     1      23.683   2.119  52.176  1.00  0.00     0.149 C 
HETATM    2  N2  UNL     1      24.860   2.173  51.789  1.00  0.00    -0.238 NA
HETATM    3  C8  UNL     1      25.787   2.725  51.022  1.00  0.00     0.120 C 
HETATM    4  C9  UNL     1      26.275   3.624  50.217  1.00  0.00     0.034 C 
HETATM    5  C10 UNL     1      26.045   4.845  49.520  1.00  0.00     0.011 C 
HETATM    6  C11 UNL     1      27.269   4.896  48.957  1.00  0.00     0.068 C 
HETATM    7  C12 UNL     1      25.195   5.988  49.230  1.00  0.00     0.116 C 
HETATM    8  C17 UNL     1      23.917   6.182  49.602  1.00  0.00     0.133 C 
HETATM    9  O3  UNL     1      23.470   7.410  49.144  1.00  0.00    -0.344 OA
HETATM   10  C18 UNL     1      22.476   8.258  49.672  1.00  0.00     0.202 C 
HETATM   11  C19 UNL     1      21.185   7.445  49.581  1.00  0.00     0.202 C 
HETATM   12  O4  UNL     1      21.464   6.315  50.444  1.00  0.00    -0.349 OA
HETATM   13  C20 UNL     1      22.689   5.729  50.280  1.00  0.00     0.098 C 
HETATM   14  C21 UNL     1      22.727   4.508  50.834  1.00  0.00     0.240 C 
HETATM   15  S1  UNL     1      22.219   3.014  51.723  1.00  0.00    -0.164 SA
ENDROOT
BRANCH   1  16
HETATM   16  N1  UNL     1      23.603   1.083  53.123  1.00  0.00    -0.346 N 
HETATM   17  H9  UNL     1      23.323   1.386  54.114  1.00  0.00     0.167 HD
BRANCH  16  18
HETATM   18  C6  UNL     1      23.777  -0.305  53.170  1.00  0.00     0.090 C 
BRANCH  18  19
HETATM   19  C5  UNL     1      24.976  -0.722  53.299  1.00  0.00     0.013 C 
BRANCH  19  20
HETATM   20  C4  UNL     1      26.345  -0.944  53.017  1.00  0.00    -0.017 C 
BRANCH  20  21
HETATM   21  C3  UNL     1      27.487  -1.524  52.907  1.00  0.00     0.052 C 
BRANCH  21  22
HETATM   22  C2  UNL     1      28.942  -1.605  53.091  1.00  0.00     0.174 C 
HETATM   23  C1  UNL     1      29.541  -0.509  53.966  1.00  0.00     0.045 C 
HETATM   24  F1  UNL     1      29.355  -2.855  53.503  1.00  0.00    -0.249 F 
ENDBRANCH  21  22
ENDBRANCH  20  21
ENDBRANCH  19  20
ENDBRANCH  18  19
ENDBRANCH  16  18
ENDBRANCH   1  16
BRANCH   6  25
HETATM   25  N3  UNL     1      27.951   5.756  48.086  1.00  0.00    -0.311 NA
HETATM   26  H13 UNL     1      28.798   6.272  47.791  1.00  0.00     0.123 HD
HETATM   27  H14 UNL     1      28.917   6.161  48.064  1.00  0.00     0.123 HD
ENDBRANCH   6  25
BRANCH   7  28
HETATM   28  O1  UNL     1      25.873   6.970  48.461  1.00  0.00    -0.340 OA
BRANCH  28  29
HETATM   29  C13 UNL     1      25.975   8.307  48.751  1.00  0.00     0.154 C 
HETATM   30  C14 UNL     1      26.857   9.126  47.831  1.00  0.00     0.061 C 
HETATM   31  C15 UNL     1      27.418  10.166  48.750  1.00  0.00     0.170 C 
HETATM   32  O2  UNL     1      26.824   9.959  50.006  1.00  0.00    -0.389 OA
HETATM   33  C16 UNL     1      26.785   8.522  50.053  1.00  0.00     0.200 C 
ENDBRANCH  28  29
ENDBRANCH   7  28
TORSDOF 9
ENDMDL
MODEL 5
REMARK VINA RESULT:      -7.3      4.356      5.345
REMARK  9 active torsions:
REMARK  status: ('A' for Active; 'I' for Inactive)
REMARK    1  A    between atoms: C2_2  and  C3_4 
REMARK    2  A    between atoms: C3_4  and  C4_5 
REMARK    3  A    between atoms: C4_5  and  C5_6 
REMARK    4  A    between atoms: C5_6  and  C6_7 
REMARK    5  A    between atoms: C6_7  and  N1_8 
REMARK    6  A    between atoms: N1_8  and  C7_9 
REMARK    7  A    between atoms: C11_14  and  N3_15 
REMARK    8  A    between atoms: C12_16  and  O1_17 
REMARK    9  A    between atoms: O1_17  and  C13_18 
ROOT
HETATM    1  C7  UNL     1      21.035   2.124  49.068  1.00  0.00     0.149 C 
HETATM    2  N2  UNL     1      22.177   2.554  48.841  1.00  0.00    -0.238 NA
HETATM    3  C8  UNL     1      23.408   2.801  49.258  1.00  0.00     0.120 C 
HETATM    4  C9  UNL     1      24.418   2.728  50.078  1.00  0.00     0.034 C 
HETATM    5  C10 UNL     1      24.914   2.209  51.308  1.00  0.00     0.011 C 
HETATM    6  C11 UNL     1      26.137   2.760  51.187  1.00  0.00     0.068 C 
HETATM    7  C12 UNL     1      24.737   1.372  52.483  1.00  0.00     0.116 C 
HETATM    8  C17 UNL     1      23.618   0.748  52.891  1.00  0.00     0.133 C 
HETATM    9  O3  UNL     1      23.870   0.031  54.049  1.00  0.00    -0.344 OA
HETATM   10  C18 UNL     1      23.239  -1.130  54.542  1.00  0.00     0.202 C 
HETATM   11  C19 UNL     1      21.792  -0.708  54.790  1.00  0.00     0.202 C 
HETATM   12  O4  UNL     1      21.335  -0.353  53.462  1.00  0.00    -0.349 OA
HETATM   13  C20 UNL     1      22.189   0.425  52.728  1.00  0.00     0.098 C 
HETATM   14  C21 UNL     1      21.561   0.997  51.690  1.00  0.00     0.240 C 
HETATM   15  S1  UNL     1      20.260   1.460  50.519  1.00  0.00    -0.164 SA
ENDROOT
BRANCH   1  16
HETATM   16  N1  UNL     1      20.288   2.288  47.889  1.00  0.00    -0.346 N 
HETATM   17  H9  UNL     1      20.347   1.475  47.190  1.00  0.00     0.167 HD
BRANCH  16  18
HETATM   18  C6  UNL     1      19.430   3.236  47.318  1.00  0.00     0.090 C 
BRANCH  18  19
HETATM   19  C5  UNL     1      19.485   4.415  47.803  1.00  0.00     0.013 C 
BRANCH  19  20
HETATM   20  C4  UNL     1      19.781   5.475  48.691  1.00  0.00    -0.017 C 
BRANCH  20  21
HETATM   21  C3  UNL     1      20.319   6.152  49.644  1.00  0.00     0.052 C 
BRANCH  21  22
HETATM   22  C2  UNL     1      21.305   6.360  50.712  1.00  0.00     0.174 C 
HETATM   23  C1  UNL     1      21.687   5.104  51.488  1.00  0.00     0.045 C 
HETATM   24  F1  UNL     1      22.425   7.036  50.273  1.00  0.00    -0.249 F 
ENDBRANCH  21  22
ENDBRANCH  20  21
ENDBRANCH  19  20
ENDBRANCH  18  19
ENDBRANCH  16  18
ENDBRANCH   1  16
BRANCH   6  25
HETATM   25  N3  UNL     1      27.315   2.795  51.947  1.00  0.00    -0.311 NA
HETATM   26  H13 UNL     1      27.825   2.960  52.833  1.00  0.00     0.123 HD
HETATM   27  H14 UNL     1      27.541   3.059  52.936  1.00  0.00     0.123 HD
ENDBRANCH   6  25
BRANCH   7  28
HETATM   28  O1  UNL     1      25.938   1.251  53.232  1.00  0.00    -0.340 OA
BRANCH  28  29
HETATM   29  C13 UNL     1      26.568   0.083  53.580  1.00  0.00     0.154 C 
HETATM   30  C14 UNL     1      27.997   0.213  54.065  1.00  0.00     0.061 C 
HETATM   31  C15 UNL     1      28.626  -1.059  53.587  1.00  0.00     0.170 C 
HETATM   32  O2  UNL     1      27.606  -1.812  52.983  1.00  0.00    -0.389 OA
HETATM   33  C16 UNL     1      26.857  -0.776  52.324  1.00  0.00     0.200 C 
ENDBRANCH  28  29
ENDBRANCH   7  28
TORSDOF 9
ENDMDL
MODEL 6
REMARK VINA RESULT:      -7.1      6.321     11.012
REMARK  9 active torsions:
REMARK  status: ('A' for Active; 'I' for Inactive)
REMARK    1  A    between atoms: C2_2  and  C3_4 
REMARK    2  A    between atoms: C3_4  and  C4_5 
REMARK    3  A    between atoms: C4_5  and  C5_6 
REMARK    4  A    between atoms: C5_6  and  C6_7 
REMARK    5  A    between atoms: C6_7  and  N1_8 
REMARK    6  A    between atoms: N1_8  and  C7_9 
REMARK    7  A    between atoms: C11_14  and  N3_15 
REMARK    8  A    between atoms: C12_16  and  O1_17 
REMARK    9  A    between atoms: O1_17  and  C13_18 
ROOT
HETATM    1  C7  UNL     1      27.125   5.039  49.065  1.00  0.00     0.149 C 
HETATM    2  N2  UNL     1      27.153   3.907  49.573  1.00  0.00    -0.238 NA
HETATM    3  C8  UNL     1      26.587   2.980  50.328  1.00  0.00     0.120 C 
HETATM    4  C9  UNL     1      25.617   2.433  51.005  1.00  0.00     0.034 C 
HETATM    5  C10 UNL     1      24.261   2.534  51.430  1.00  0.00     0.011 C 
HETATM    6  C11 UNL     1      24.263   1.374  52.115  1.00  0.00     0.068 C 
HETATM    7  C12 UNL     1      22.980   3.220  51.398  1.00  0.00     0.116 C 
HETATM    8  C17 UNL     1      22.695   4.413  50.846  1.00  0.00     0.133 C 
HETATM    9  O3  UNL     1      21.352   4.704  51.011  1.00  0.00    -0.344 OA
HETATM   10  C18 UNL     1      20.502   5.502  50.219  1.00  0.00     0.202 C 
HETATM   11  C19 UNL     1      21.099   6.906  50.305  1.00  0.00     0.202 C 
HETATM   12  O4  UNL     1      22.406   6.729  49.707  1.00  0.00    -0.349 OA
HETATM   13  C20 UNL     1      23.107   5.629  50.123  1.00  0.00     0.098 C 
HETATM   14  C21 UNL     1      24.407   5.731  49.814  1.00  0.00     0.240 C 
HETATM   15  S1  UNL     1      25.969   6.381  49.165  1.00  0.00    -0.164 SA
ENDROOT
BRANCH   1  16
HETATM   16  N1  UNL     1      28.310   5.192  48.325  1.00  0.00    -0.346 N 
HETATM   17  H9  UNL     1      28.472   4.456  47.559  1.00  0.00     0.167 HD
BRANCH  16  18
HETATM   18  C6  UNL     1      29.403   6.065  48.269  1.00  0.00     0.090 C 
BRANCH  18  19
HETATM   19  C5  UNL     1      30.489   5.585  47.804  1.00  0.00     0.013 C 
BRANCH  19  20
HETATM   20  C4  UNL     1      31.453   4.638  47.386  1.00  0.00    -0.017 C 
BRANCH  20  21
HETATM   21  C3  UNL     1      32.024   3.515  47.125  1.00  0.00     0.052 C 
BRANCH  21  22
HETATM   22  C2  UNL     1      33.147   2.569  47.177  1.00  0.00     0.174 C 
HETATM   23  C1  UNL     1      34.425   3.122  47.797  1.00  0.00     0.045 C 
HETATM   24  F1  UNL     1      32.795   1.362  47.746  1.00  0.00    -0.249 F 
ENDBRANCH  21  22
ENDBRANCH  20  21
ENDBRANCH  19  20
ENDBRANCH  18  19
ENDBRANCH  16  18
ENDBRANCH   1  16
BRANCH   6  25
HETATM   25  N3  UNL     1      23.343   0.649  52.886  1.00  0.00    -0.311 NA
HETATM   26  H13 UNL     1      22.590  -0.054  52.986  1.00  0.00     0.123 HD
HETATM   27  H14 UNL     1      22.604  -0.062  52.669  1.00  0.00     0.123 HD
ENDBRANCH   6  25
BRANCH   7  28
HETATM   28  O1  UNL     1      21.963   2.470  52.046  1.00  0.00    -0.340 OA
BRANCH  28  29
HETATM   29  C13 UNL     1      20.756   2.098  51.510  1.00  0.00     0.154 C 
HETATM   30  C14 UNL     1      19.912   1.160  52.349  1.00  0.00     0.061 C 
HETATM   31  C15 UNL     1      19.203   0.339  51.316  1.00  0.00     0.170 C 
HETATM   32  O2  UNL     1      19.579   0.853  50.064  1.00  0.00    -0.389 OA
HETATM   33  C16 UNL     1      20.965   1.155  50.300  1.00  0.00     0.200 C 
ENDBRANCH  28  29
ENDBRANCH   7  28
TORSDOF 9
ENDMDL
MODEL 7
REMARK VINA RESULT:      -6.8      8.647     11.691
REMARK  9 active torsions:
REMARK  status: ('A' for Active; 'I' for Inactive)
REMARK    1  A    between atoms: C2_2  and  C3_4 
REMARK    2  A    between atoms: C3_4  and  C4_5 
REMARK    3  A    between atoms: C4_5  and  C5_6 
REMARK    4  A    between atoms: C5_6  and  C6_7 
REMARK    5  A    between atoms: C6_7  and  N1_8 
REMARK    6  A    between atoms: N1_8  and  C7_9 
REMARK    7  A    between atoms: C11_14  and  N3_15 
REMARK    8  A    between atoms: C12_16  and  O1_17 
REMARK    9  A    between atoms: O1_17  and  C13_18 
ROOT
HETATM    1  C7  UNL     1      25.861   5.704  49.090  1.00  0.00     0.149 C 
HETATM    2  N2  UNL     1      25.840   6.933  49.260  1.00  0.00    -0.238 NA
HETATM    3  C8  UNL     1      26.487   8.080  49.385  1.00  0.00     0.120 C 
HETATM    4  C9  UNL     1      27.524   8.867  49.331  1.00  0.00     0.034 C 
HETATM    5  C10 UNL     1      28.911   8.985  49.027  1.00  0.00     0.011 C 
HETATM    6  C11 UNL     1      28.989  10.297  49.324  1.00  0.00     0.068 C 
HETATM    7  C12 UNL     1      30.142   8.403  48.518  1.00  0.00     0.116 C 
HETATM    8  C17 UNL     1      30.377   7.118  48.198  1.00  0.00     0.133 C 
HETATM    9  O3  UNL     1      31.672   6.975  47.729  1.00  0.00    -0.344 OA
HETATM   10  C18 UNL     1      32.202   6.026  46.831  1.00  0.00     0.202 C 
HETATM   11  C19 UNL     1      32.015   4.682  47.534  1.00  0.00     0.202 C 
HETATM   12  O4  UNL     1      30.574   4.586  47.651  1.00  0.00    -0.349 OA
HETATM   13  C20 UNL     1      29.937   5.716  48.090  1.00  0.00     0.098 C 
HETATM   14  C21 UNL     1      28.693   5.444  48.511  1.00  0.00     0.240 C 
HETATM   15  S1  UNL     1      27.179   4.532  48.909  1.00  0.00    -0.164 SA
ENDROOT
BRANCH   1  16
HETATM   16  N1  UNL     1      24.528   5.260  49.106  1.00  0.00    -0.346 N 
HETATM   17  H9  UNL     1      24.022   5.286  48.158  1.00  0.00     0.167 HD
BRANCH  16  18
HETATM   18  C6  UNL     1      23.606   4.753  50.030  1.00  0.00     0.090 C 
BRANCH  18  19
HETATM   19  C5  UNL     1      23.837   3.581  50.477  1.00  0.00     0.013 C 
BRANCH  19  20
HETATM   20  C4  UNL     1      24.511   2.504  51.100  1.00  0.00    -0.017 C 
BRANCH  20  21
HETATM   21  C3  UNL     1      25.434   1.807  51.662  1.00  0.00     0.052 C 
BRANCH  21  22
HETATM   22  C2  UNL     1      26.768   1.194  51.714  1.00  0.00     0.174 C 
HETATM   23  C1  UNL     1      27.640   1.651  52.878  1.00  0.00     0.045 C 
HETATM   24  F1  UNL     1      26.721  -0.183  51.634  1.00  0.00    -0.249 F 
ENDBRANCH  21  22
ENDBRANCH  20  21
ENDBRANCH  19  20
ENDBRANCH  18  19
ENDBRANCH  16  18
ENDBRANCH   1  16
BRANCH   6  25
HETATM   25  N3  UNL     1      29.989  11.279  49.333  1.00  0.00    -0.311 NA
HETATM   26  H13 UNL     1      30.345  12.221  49.093  1.00  0.00     0.123 HD
HETATM   27  H14 UNL     1      30.070  12.245  48.935  1.00  0.00     0.123 HD
ENDBRANCH   6  25
BRANCH   7  28
HETATM   28  O1  UNL     1      31.165   9.376  48.370  1.00  0.00    -0.340 OA
BRANCH  28  29
HETATM   29  C13 UNL     1      31.866   9.656  47.224  1.00  0.00     0.154 C 
HETATM   30  C14 UNL     1      32.766  10.873  47.270  1.00  0.00     0.061 C 
HETATM   31  C15 UNL     1      32.708  11.381  45.862  1.00  0.00     0.170 C 
HETATM   32  O2  UNL     1      31.921  10.472  45.137  1.00  0.00    -0.389 OA
HETATM   33  C16 UNL     1      30.912  10.151  46.109  1.00  0.00     0.200 C 
ENDBRANCH  28  29
ENDBRANCH   7  28
TORSDOF 9
ENDMDL
MODEL 8
REMARK VINA RESULT:      -6.8      2.722      4.001
REMARK  9 active torsions:
REMARK  status: ('A' for Active; 'I' for Inactive)
REMARK    1  A    between atoms: C2_2  and  C3_4 
REMARK    2  A    between atoms: C3_4  and  C4_5 
REMARK    3  A    between atoms: C4_5  and  C5_6 
REMARK    4  A    between atoms: C5_6  and  C6_7 
REMARK    5  A    between atoms: C6_7  and  N1_8 
REMARK    6  A    between atoms: N1_8  and  C7_9 
REMARK    7  A    between atoms: C11_14  and  N3_15 
REMARK    8  A    between atoms: C12_16  and  O1_17 
REMARK    9  A    between atoms: O1_17  and  C13_18 
ROOT
HETATM    1  C7  UNL     1      20.107   3.971  50.909  1.00  0.00     0.149 C 
HETATM    2  N2  UNL     1      21.139   4.396  50.366  1.00  0.00    -0.238 NA
HETATM    3  C8  UNL     1      22.459   4.408  50.274  1.00  0.00     0.120 C 
HETATM    4  C9  UNL     1      23.667   3.985  50.517  1.00  0.00     0.034 C 
HETATM    5  C10 UNL     1      24.477   3.022  51.186  1.00  0.00     0.011 C 
HETATM    6  C11 UNL     1      25.648   3.516  50.737  1.00  0.00     0.068 C 
HETATM    7  C12 UNL     1      24.594   1.820  51.993  1.00  0.00     0.116 C 
HETATM    8  C17 UNL     1      23.612   1.146  52.618  1.00  0.00     0.133 C 
HETATM    9  O3  UNL     1      24.134   0.039  53.266  1.00  0.00    -0.344 OA
HETATM   10  C18 UNL     1      23.518  -1.188  53.586  1.00  0.00     0.202 C 
HETATM   11  C19 UNL     1      22.388  -0.816  54.545  1.00  0.00     0.202 C 
HETATM   12  O4  UNL     1      21.545   0.029  53.725  1.00  0.00    -0.349 OA
HETATM   13  C20 UNL     1      22.195   0.980  52.985  1.00  0.00     0.098 C 
HETATM   14  C21 UNL     1      21.349   1.927  52.553  1.00  0.00     0.240 C 
HETATM   15  S1  UNL     1      19.823   2.857  52.260  1.00  0.00    -0.164 SA
ENDROOT
BRANCH   1  16
HETATM   16  N1  UNL     1      19.019   4.598  50.279  1.00  0.00    -0.346 N 
HETATM   17  H9  UNL     1      19.232   5.551  49.831  1.00  0.00     0.167 HD
BRANCH  16  18
HETATM   18  C6  UNL     1      17.665   4.342  50.032  1.00  0.00     0.090 C 
BRANCH  18  19
HETATM   19  C5  UNL     1      16.943   4.073  51.050  1.00  0.00     0.013 C 
BRANCH  19  20
HETATM   20  C4  UNL     1      15.926   4.185  52.025  1.00  0.00    -0.017 C 
BRANCH  20  21
HETATM   21  C3  UNL     1      14.809   4.028  52.644  1.00  0.00     0.052 C 
BRANCH  21  22
HETATM   22  C2  UNL     1      13.343   4.016  52.724  1.00  0.00     0.174 C 
HETATM   23  C1  UNL     1      12.771   4.298  54.109  1.00  0.00     0.045 C 
HETATM   24  F1  UNL     1      12.754   4.817  51.767  1.00  0.00    -0.249 F 
ENDBRANCH  21  22
ENDBRANCH  20  21
ENDBRANCH  19  20
ENDBRANCH  18  19
ENDBRANCH  16  18
ENDBRANCH   1  16
BRANCH   6  25
HETATM   25  N3  UNL     1      27.006   3.207  50.892  1.00  0.00    -0.311 NA
HETATM   26  H13 UNL     1      28.008   3.465  50.871  1.00  0.00     0.123 HD
HETATM   27  H14 UNL     1      27.899   3.741  50.758  1.00  0.00     0.123 HD
ENDBRANCH   6  25
BRANCH   7  28
HETATM   28  O1  UNL     1      25.938   1.369  52.079  1.00  0.00    -0.340 OA
BRANCH  28  29
HETATM   29  C13 UNL     1      26.549   0.828  53.182  1.00  0.00     0.154 C 
HETATM   30  C14 UNL     1      27.666   1.646  53.796  1.00  0.00     0.061 C 
HETATM   31  C15 UNL     1      28.595   0.596  54.321  1.00  0.00     0.170 C 
HETATM   32  O2  UNL     1      27.983  -0.644  54.076  1.00  0.00    -0.389 OA
HETATM   33  C16 UNL     1      27.396  -0.407  52.786  1.00  0.00     0.200 C 
ENDBRANCH  28  29
ENDBRANCH   7  28
TORSDOF 9
ENDMDL
MODEL 9
REMARK VINA RESULT:      -6.8      5.712     10.709
REMARK  9 active torsions:
REMARK  status: ('A' for Active; 'I' for Inactive)
REMARK    1  A    between atoms: C2_2  and  C3_4 
REMARK    2  A    between atoms: C3_4  and  C4_5 
REMARK    3  A    between atoms: C4_5  and  C5_6 
REMARK    4  A    between atoms: C5_6  and  C6_7 
REMARK    5  A    between atoms: C6_7  and  N1_8 
REMARK    6  A    between atoms: N1_8  and  C7_9 
REMARK    7  A    between atoms: C11_14  and  N3_15 
REMARK    8  A    between atoms: C12_16  and  O1_17 
REMARK    9  A    between atoms: O1_17  and  C13_18 
ROOT
HETATM    1  C7  UNL     1      25.432   4.462  49.968  1.00  0.00     0.149 C 
HETATM    2  N2  UNL     1      24.547   4.767  49.154  1.00  0.00    -0.238 NA
HETATM    3  C8  UNL     1      23.400   4.487  48.555  1.00  0.00     0.120 C 
HETATM    4  C9  UNL     1      22.284   3.839  48.377  1.00  0.00     0.034 C 
HETATM    5  C10 UNL     1      21.429   2.798  48.837  1.00  0.00     0.011 C 
HETATM    6  C11 UNL     1      20.486   2.989  47.894  1.00  0.00     0.068 C 
HETATM    7  C12 UNL     1      21.110   1.771  49.817  1.00  0.00     0.116 C 
HETATM    8  C17 UNL     1      21.879   1.327  50.827  1.00  0.00     0.133 C 
HETATM    9  O3  UNL     1      21.203   0.357  51.547  1.00  0.00    -0.344 OA
HETATM   10  C18 UNL     1      21.332  -0.010  52.901  1.00  0.00     0.202 C 
HETATM   11  C19 UNL     1      22.765  -0.524  53.028  1.00  0.00     0.202 C 
HETATM   12  O4  UNL     1      23.550   0.647  52.695  1.00  0.00    -0.349 OA
HETATM   13  C20 UNL     1      23.138   1.346  51.593  1.00  0.00     0.098 C 
HETATM   14  C21 UNL     1      24.097   2.172  51.150  1.00  0.00     0.240 C 
HETATM   15  S1  UNL     1      25.673   3.055  51.021  1.00  0.00    -0.164 SA
ENDROOT
BRANCH   1  16
HETATM   16  N1  UNL     1      26.399   5.480  49.930  1.00  0.00    -0.346 N 
HETATM   17  H9  UNL     1      27.051   5.529  50.783  1.00  0.00     0.167 HD
BRANCH  16  18
HETATM   18  C6  UNL     1      26.806   6.505  49.066  1.00  0.00     0.090 C 
BRANCH  18  19
HETATM   19  C5  UNL     1      27.819   6.257  48.330  1.00  0.00     0.013 C 
BRANCH  19  20
HETATM   20  C4  UNL     1      29.151   5.963  47.956  1.00  0.00    -0.017 C 
BRANCH  20  21
HETATM   21  C3  UNL     1      30.347   5.492  47.983  1.00  0.00     0.052 C 
BRANCH  21  22
HETATM   22  C2  UNL     1      31.517   4.842  47.377  1.00  0.00     0.174 C 
HETATM   23  C1  UNL     1      32.778   4.858  48.234  1.00  0.00     0.045 C 
HETATM   24  F1  UNL     1      31.237   3.570  46.920  1.00  0.00    -0.249 F 
ENDBRANCH  21  22
ENDBRANCH  20  21
ENDBRANCH  19  20
ENDBRANCH  18  19
ENDBRANCH  16  18
ENDBRANCH   1  16
BRANCH   6  25
HETATM   25  N3  UNL     1      19.259   2.404  47.552  1.00  0.00    -0.311 NA
HETATM   26  H13 UNL     1      18.224   2.397  47.535  1.00  0.00     0.123 HD
HETATM   27  H14 UNL     1      18.255   2.657  47.715  1.00  0.00     0.123 HD
ENDBRANCH   6  25
BRANCH   7  28
HETATM   28  O1  UNL     1      19.815   1.228  49.611  1.00  0.00    -0.340 OA
BRANCH  28  29
HETATM   29  C13 UNL     1      18.827   1.094  50.554  1.00  0.00     0.154 C 
HETATM   30  C14 UNL     1      17.622   0.271  50.147  1.00  0.00     0.061 C 
HETATM   31  C15 UNL     1      16.503   0.934  50.888  1.00  0.00     0.170 C 
HETATM   32  O2  UNL     1      17.080   1.951  51.666  1.00  0.00    -0.389 OA
HETATM   33  C16 UNL     1      18.090   2.439  50.767  1.00  0.00     0.200 C 
ENDBRANCH  28  29
ENDBRANCH   7  28
TORSDOF 9
ENDMDL
