MODEL 1
REMARK VINA RESULT:      -7.4      0.000      0.000
REMARK  8 active torsions:
REMARK  status: ('A' for Active; 'I' for Inactive)
REMARK    1  A    between atoms: N1_2  and  C2_3 
REMARK    2  A    between atoms: C7_8  and  N2_9 
REMARK    3  A    between atoms: N2_9  and  C8_10 
REMARK    4  A    between atoms: C11_14  and  C12_15 
REMARK    5  A    between atoms: C12_15  and  C13_16 
REMARK    6  A    between atoms: N4_17  and  C14_18 
REMARK    7  A    between atoms: C15_19  and  C16_20 
REMARK    8  A    between atoms: C17_21  and  N5_22 
ROOT
HETATM    1  C8  UNL     1      27.044   1.788  53.854  1.00  0.00     0.112 A 
HETATM    2  N3  UNL     1      28.171   2.413  53.923  1.00  0.00    -0.247 NA
HETATM    3  C9  UNL     1      29.218   1.561  54.375  1.00  0.00     0.115 A 
HETATM    4  C10 UNL     1      28.679   0.359  54.585  1.00  0.00     0.005 A 
HETATM    5  C11 UNL     1      27.207   0.390  54.266  1.00  0.00     0.084 A 
ENDROOT
BRANCH   1   6
HETATM    6  N2  UNL     1      25.849   2.435  53.426  1.00  0.00    -0.343 N 
HETATM    7  H10 UNL     1      25.133   2.687  54.175  1.00  0.00     0.167 HD
BRANCH   6   8
HETATM    8  C7  UNL     1      25.553   2.758  52.100  1.00  0.00     0.041 A 
HETATM    9  C5  UNL     1      24.240   2.676  51.612  1.00  0.00    -0.035 A 
HETATM   10  C4  UNL     1      23.884   2.974  50.326  1.00  0.00     0.011 A 
HETATM   11  C6  UNL     1      23.182   2.230  52.583  1.00  0.00     0.050 C 
HETATM   12  C3  UNL     1      24.840   3.384  49.425  1.00  0.00     0.030 A 
HETATM   13  C2  UNL     1      26.151   3.486  49.841  1.00  0.00     0.029 A 
HETATM   14  C18 UNL     1      26.450   3.165  51.169  1.00  0.00     0.059 A 
BRANCH  13  15
HETATM   15  N1  UNL     1      27.166   3.909  48.922  1.00  0.00    -0.394 N 
HETATM   16  C1  UNL     1      27.228   5.333  48.661  1.00  0.00     0.146 C 
HETATM   17  H4  UNL     1      27.775   3.192  48.515  1.00  0.00     0.159 HD
ENDBRANCH  13  15
ENDBRANCH   6   8
ENDBRANCH   1   6
BRANCH   5  18
HETATM   18  C12 UNL     1      27.047  -0.536  53.070  1.00  0.00     0.063 C 
BRANCH  18  19
HETATM   19  C13 UNL     1      25.610  -0.896  52.921  1.00  0.00     0.090 C 
HETATM   20  N4  UNL     1      24.924  -0.640  53.996  1.00  0.00    -0.277 NA
BRANCH  20  21
HETATM   21  C14 UNL     1      23.540  -0.939  53.977  1.00  0.00     0.116 C 
HETATM   22  C15 UNL     1      22.704  -1.194  54.944  1.00  0.00     0.021 C 
BRANCH  22  23
HETATM   23  C16 UNL     1      21.308  -1.473  54.644  1.00  0.00     0.018 C 
HETATM   24  C17 UNL     1      20.605  -0.589  53.956  1.00  0.00     0.080 C 
BRANCH  24  25
HETATM   25  N5  UNL     1      19.232  -0.843  53.649  1.00  0.00    -0.408 N 
HETATM   26  H21 UNL     1      18.670  -1.368  52.933  1.00  0.00     0.155 HD
HETATM   27  H22 UNL     1      18.295  -0.580  54.050  1.00  0.00     0.155 HD
ENDBRANCH  24  25
ENDBRANCH  22  23
ENDBRANCH  20  21
ENDBRANCH  18  19
ENDBRANCH   5  18
TORSDOF 8
ENDMDL
MODEL 2
REMARK VINA RESULT:      -7.4      2.195      6.419
REMARK  8 active torsions:
REMARK  status: ('A' for Active; 'I' for Inactive)
REMARK    1  A    between atoms: N1_2  and  C2_3 
REMARK    2  A    between atoms: C7_8  and  N2_9 
REMARK    3  A    between atoms: N2_9  and  C8_10 
REMARK    4  A    between atoms: C11_14  and  C12_15 
REMARK    5  A    between atoms: C12_15  and  C13_16 
REMARK    6  A    between atoms: N4_17  and  C14_18 
REMARK    7  A    between atoms: C15_19  and  C16_20 
REMARK    8  A    between atoms: C17_21  and  N5_22 
ROOT
HETATM    1  C8  UNL     1      22.654   2.653  51.907  1.00  0.00     0.112 A 
HETATM    2  N3  UNL     1      21.699   3.498  51.706  1.00  0.00    -0.247 NA
HETATM    3  C9  UNL     1      22.113   4.834  51.970  1.00  0.00     0.115 A 
HETATM    4  C10 UNL     1      23.390   4.778  52.350  1.00  0.00     0.005 A 
HETATM    5  C11 UNL     1      23.868   3.349  52.346  1.00  0.00     0.084 A 
ENDROOT
BRANCH   1   6
HETATM    6  N2  UNL     1      22.477   1.254  51.708  1.00  0.00    -0.343 N 
HETATM    7  H10 UNL     1      22.655   0.872  50.729  1.00  0.00     0.167 HD
BRANCH   6   8
HETATM    8  C7  UNL     1      22.086   0.355  52.702  1.00  0.00     0.041 A 
HETATM    9  C5  UNL     1      20.769  -0.123  52.768  1.00  0.00    -0.035 A 
HETATM   10  C4  UNL     1      20.322  -1.001  53.716  1.00  0.00     0.011 A 
HETATM   11  C6  UNL     1      19.813   0.377  51.721  1.00  0.00     0.050 C 
HETATM   12  C3  UNL     1      21.184  -1.469  54.681  1.00  0.00     0.030 A 
HETATM   13  C2  UNL     1      22.494  -1.039  54.673  1.00  0.00     0.029 A 
HETATM   14  C18 UNL     1      22.889  -0.139  53.678  1.00  0.00     0.059 A 
BRANCH  13  15
HETATM   15  N1  UNL     1      23.412  -1.510  55.667  1.00  0.00    -0.394 N 
HETATM   16  C1  UNL     1      24.801  -1.149  55.468  1.00  0.00     0.146 C 
HETATM   17  H4  UNL     1      23.036  -2.063  56.445  1.00  0.00     0.159 HD
ENDBRANCH  13  15
ENDBRANCH   6   8
ENDBRANCH   1   6
BRANCH   5  18
HETATM   18  C12 UNL     1      24.931   3.296  51.259  1.00  0.00     0.063 C 
BRANCH  18  19
HETATM   19  C13 UNL     1      25.997   2.339  51.666  1.00  0.00     0.090 C 
HETATM   20  N4  UNL     1      25.522   1.161  51.943  1.00  0.00    -0.277 NA
BRANCH  20  21
HETATM   21  C14 UNL     1      26.442   0.162  52.343  1.00  0.00     0.116 C 
HETATM   22  C15 UNL     1      27.595   0.248  52.945  1.00  0.00     0.021 C 
BRANCH  22  23
HETATM   23  C16 UNL     1      28.351  -0.959  53.246  1.00  0.00     0.018 C 
HETATM   24  C17 UNL     1      27.876  -2.131  52.862  1.00  0.00     0.080 C 
BRANCH  24  25
HETATM   25  N5  UNL     1      28.602  -3.329  53.147  1.00  0.00    -0.408 N 
HETATM   26  H21 UNL     1      29.528  -3.609  53.558  1.00  0.00     0.155 HD
HETATM   27  H22 UNL     1      28.448  -4.365  53.036  1.00  0.00     0.155 HD
ENDBRANCH  24  25
ENDBRANCH  22  23
ENDBRANCH  20  21
ENDBRANCH  18  19
ENDBRANCH   5  18
TORSDOF 8
ENDMDL
MODEL 3
REMARK VINA RESULT:      -7.1      2.137      6.972
REMARK  8 active torsions:
REMARK  status: ('A' for Active; 'I' for Inactive)
REMARK    1  A    between atoms: N1_2  and  C2_3 
REMARK    2  A    between atoms: C7_8  and  N2_9 
REMARK    3  A    between atoms: N2_9  and  C8_10 
REMARK    4  A    between atoms: C11_14  and  C12_15 
REMARK    5  A    between atoms: C12_15  and  C13_16 
REMARK    6  A    between atoms: N4_17  and  C14_18 
REMARK    7  A    between atoms: C15_19  and  C16_20 
REMARK    8  A    between atoms: C17_21  and  N5_22 
ROOT
HETATM    1  C8  UNL     1      22.736   2.519  52.083  1.00  0.00     0.112 A 
HETATM    2  N3  UNL     1      21.790   3.383  51.925  1.00  0.00    -0.247 NA
HETATM    3  C9  UNL     1      22.212   4.696  52.276  1.00  0.00     0.115 A 
HETATM    4  C10 UNL     1      23.484   4.606  52.665  1.00  0.00     0.005 A 
HETATM    5  C11 UNL     1      23.951   3.176  52.578  1.00  0.00     0.084 A 
ENDROOT
BRANCH   1   6
HETATM    6  N2  UNL     1      22.550   1.136  51.796  1.00  0.00    -0.343 N 
HETATM    7  H10 UNL     1      22.963   0.766  50.886  1.00  0.00     0.167 HD
BRANCH   6   8
HETATM    8  C7  UNL     1      21.865   0.241  52.620  1.00  0.00     0.041 A 
HETATM    9  C5  UNL     1      22.556  -0.595  53.510  1.00  0.00    -0.035 A 
HETATM   10  C4  UNL     1      21.948  -1.494  54.341  1.00  0.00     0.011 A 
HETATM   11  C6  UNL     1      24.055  -0.473  53.531  1.00  0.00     0.050 C 
HETATM   12  C3  UNL     1      20.577  -1.618  54.335  1.00  0.00     0.030 A 
HETATM   13  C2  UNL     1      19.838  -0.826  53.482  1.00  0.00     0.029 A 
HETATM   14  C18 UNL     1      20.520   0.074  52.657  1.00  0.00     0.059 A 
BRANCH  13  15
HETATM   15  N1  UNL     1      18.409  -0.936  53.455  1.00  0.00    -0.394 N 
HETATM   16  C1  UNL     1      17.876  -2.277  53.581  1.00  0.00     0.146 C 
HETATM   17  H4  UNL     1      17.862  -0.074  53.351  1.00  0.00     0.159 HD
ENDBRANCH  13  15
ENDBRANCH   6   8
ENDBRANCH   1   6
BRANCH   5  18
HETATM   18  C12 UNL     1      25.025   3.181  51.500  1.00  0.00     0.063 C 
BRANCH  18  19
HETATM   19  C13 UNL     1      25.876   1.968  51.655  1.00  0.00     0.090 C 
HETATM   20  N4  UNL     1      26.545   1.976  52.769  1.00  0.00    -0.277 NA
BRANCH  20  21
HETATM   21  C14 UNL     1      27.393   0.873  53.032  1.00  0.00     0.116 C 
HETATM   22  C15 UNL     1      28.648   0.818  53.381  1.00  0.00     0.021 C 
BRANCH  22  23
HETATM   23  C16 UNL     1      29.289  -0.471  53.592  1.00  0.00     0.018 C 
HETATM   24  C17 UNL     1      28.660  -1.574  53.223  1.00  0.00     0.080 C 
BRANCH  24  25
HETATM   25  N5  UNL     1      29.272  -2.851  53.420  1.00  0.00    -0.408 N 
HETATM   26  H21 UNL     1      29.947  -3.306  54.085  1.00  0.00     0.155 HD
HETATM   27  H22 UNL     1      29.251  -3.793  52.950  1.00  0.00     0.155 HD
ENDBRANCH  24  25
ENDBRANCH  22  23
ENDBRANCH  20  21
ENDBRANCH  18  19
ENDBRANCH   5  18
TORSDOF 8
ENDMDL
MODEL 4
REMARK VINA RESULT:      -7.0      1.553      2.698
REMARK  8 active torsions:
REMARK  status: ('A' for Active; 'I' for Inactive)
REMARK    1  A    between atoms: N1_2  and  C2_3 
REMARK    2  A    between atoms: C7_8  and  N2_9 
REMARK    3  A    between atoms: N2_9  and  C8_10 
REMARK    4  A    between atoms: C11_14  and  C12_15 
REMARK    5  A    between atoms: C12_15  and  C13_16 
REMARK    6  A    between atoms: N4_17  and  C14_18 
REMARK    7  A    between atoms: C15_19  and  C16_20 
REMARK    8  A    between atoms: C17_21  and  N5_22 
ROOT
HETATM    1  C8  UNL     1      27.180   1.931  52.342  1.00  0.00     0.112 A 
HETATM    2  N3  UNL     1      28.340   2.446  52.577  1.00  0.00    -0.247 NA
HETATM    3  C9  UNL     1      28.858   2.025  53.835  1.00  0.00     0.115 A 
HETATM    4  C10 UNL     1      27.951   1.210  54.376  1.00  0.00     0.005 A 
HETATM    5  C11 UNL     1      26.768   1.069  53.456  1.00  0.00     0.084 A 
ENDROOT
BRANCH   1   6
HETATM    6  N2  UNL     1      26.462   2.207  51.143  1.00  0.00    -0.343 N 
HETATM    7  H10 UNL     1      26.623   1.555  50.315  1.00  0.00     0.167 HD
BRANCH   6   8
HETATM    8  C7  UNL     1      25.569   3.268  50.981  1.00  0.00     0.041 A 
HETATM    9  C5  UNL     1      25.801   4.267  50.024  1.00  0.00    -0.035 A 
HETATM   10  C4  UNL     1      24.969   5.332  49.816  1.00  0.00     0.011 A 
HETATM   11  C6  UNL     1      27.046   4.134  49.192  1.00  0.00     0.050 C 
HETATM   12  C3  UNL     1      23.825   5.469  50.569  1.00  0.00     0.030 A 
HETATM   13  C2  UNL     1      23.538   4.520  51.527  1.00  0.00     0.029 A 
HETATM   14  C18 UNL     1      24.429   3.455  51.692  1.00  0.00     0.059 A 
BRANCH  13  15
HETATM   15  N1  UNL     1      22.354   4.639  52.325  1.00  0.00    -0.394 N 
HETATM   16  C1  UNL     1      21.379   3.576  52.174  1.00  0.00     0.146 C 
HETATM   17  H4  UNL     1      22.270   5.453  52.943  1.00  0.00     0.159 HD
ENDBRANCH  13  15
ENDBRANCH   6   8
ENDBRANCH   1   6
BRANCH   5  18
HETATM   18  C12 UNL     1      26.778  -0.390  53.027  1.00  0.00     0.063 C 
BRANCH  18  19
HETATM   19  C13 UNL     1      25.393  -0.932  53.111  1.00  0.00     0.090 C 
HETATM   20  N4  UNL     1      24.556  -0.069  53.605  1.00  0.00    -0.277 NA
BRANCH  20  21
HETATM   21  C14 UNL     1      23.203  -0.468  53.734  1.00  0.00     0.116 C 
HETATM   22  C15 UNL     1      22.620  -1.259  54.590  1.00  0.00     0.021 C 
BRANCH  22  23
HETATM   23  C16 UNL     1      21.188  -1.504  54.498  1.00  0.00     0.018 C 
HETATM   24  C17 UNL     1      20.440  -0.693  53.768  1.00  0.00     0.080 C 
BRANCH  24  25
HETATM   25  N5  UNL     1      19.032  -0.914  53.663  1.00  0.00    -0.408 N 
HETATM   26  H21 UNL     1      18.193  -0.453  53.230  1.00  0.00     0.155 HD
HETATM   27  H22 UNL     1      18.342  -1.636  53.996  1.00  0.00     0.155 HD
ENDBRANCH  24  25
ENDBRANCH  22  23
ENDBRANCH  20  21
ENDBRANCH  18  19
ENDBRANCH   5  18
TORSDOF 8
ENDMDL
MODEL 5
REMARK VINA RESULT:      -6.9      1.805      6.797
REMARK  8 active torsions:
REMARK  status: ('A' for Active; 'I' for Inactive)
REMARK    1  A    between atoms: N1_2  and  C2_3 
REMARK    2  A    between atoms: C7_8  and  N2_9 
REMARK    3  A    between atoms: N2_9  and  C8_10 
REMARK    4  A    between atoms: C11_14  and  C12_15 
REMARK    5  A    between atoms: C12_15  and  C13_16 
REMARK    6  A    between atoms: N4_17  and  C14_18 
REMARK    7  A    between atoms: C15_19  and  C16_20 
REMARK    8  A    between atoms: C17_21  and  N5_22 
ROOT
HETATM    1  C8  UNL     1      25.770  -0.081  53.330  1.00  0.00     0.112 A 
HETATM    2  N3  UNL     1      26.384   0.207  54.428  1.00  0.00    -0.247 NA
HETATM    3  C9  UNL     1      27.560   0.972  54.188  1.00  0.00     0.115 A 
HETATM    4  C10 UNL     1      27.648   1.149  52.869  1.00  0.00     0.005 A 
HETATM    5  C11 UNL     1      26.488   0.478  52.180  1.00  0.00     0.084 A 
ENDROOT
BRANCH   1   6
HETATM    6  N2  UNL     1      24.565  -0.841  53.318  1.00  0.00    -0.343 N 
HETATM    7  H10 UNL     1      24.654  -1.899  53.224  1.00  0.00     0.167 HD
BRANCH   6   8
HETATM    8  C7  UNL     1      23.283  -0.296  53.418  1.00  0.00     0.041 A 
HETATM    9  C5  UNL     1      22.449  -0.607  54.502  1.00  0.00    -0.035 A 
HETATM   10  C4  UNL     1      21.184  -0.111  54.659  1.00  0.00     0.011 A 
HETATM   11  C6  UNL     1      23.003  -1.545  55.538  1.00  0.00     0.050 C 
HETATM   12  C3  UNL     1      20.661   0.749  53.719  1.00  0.00     0.030 A 
HETATM   13  C2  UNL     1      21.431   1.095  52.628  1.00  0.00     0.029 A 
HETATM   14  C18 UNL     1      22.715   0.552  52.526  1.00  0.00     0.059 A 
BRANCH  13  15
HETATM   15  N1  UNL     1      20.910   1.987  51.635  1.00  0.00    -0.394 N 
HETATM   16  C1  UNL     1      19.883   2.905  52.086  1.00  0.00     0.146 C 
HETATM   17  H4  UNL     1      21.289   1.923  50.684  1.00  0.00     0.159 HD
ENDBRANCH  13  15
ENDBRANCH   6   8
ENDBRANCH   1   6
BRANCH   5  18
HETATM   18  C12 UNL     1      25.691   1.617  51.561  1.00  0.00     0.063 C 
BRANCH  18  19
HETATM   19  C13 UNL     1      26.634   2.614  50.984  1.00  0.00     0.090 C 
HETATM   20  N4  UNL     1      26.149   3.195  49.926  1.00  0.00    -0.277 NA
BRANCH  20  21
HETATM   21  C14 UNL     1      26.955   4.167  49.286  1.00  0.00     0.116 C 
HETATM   22  C15 UNL     1      26.682   5.376  48.882  1.00  0.00     0.021 C 
BRANCH  22  23
HETATM   23  C16 UNL     1      27.713   6.179  48.241  1.00  0.00     0.018 C 
HETATM   24  C17 UNL     1      28.965   5.755  48.256  1.00  0.00     0.080 C 
BRANCH  24  25
HETATM   25  N5  UNL     1      29.994   6.527  47.632  1.00  0.00    -0.408 N 
HETATM   26  H21 UNL     1      30.854   7.063  47.910  1.00  0.00     0.155 HD
HETATM   27  H22 UNL     1      30.241   6.828  46.654  1.00  0.00     0.155 HD
ENDBRANCH  24  25
ENDBRANCH  22  23
ENDBRANCH  20  21
ENDBRANCH  18  19
ENDBRANCH   5  18
TORSDOF 8
ENDMDL
MODEL 6
REMARK VINA RESULT:      -6.8      2.782      5.550
REMARK  8 active torsions:
REMARK  status: ('A' for Active; 'I' for Inactive)
REMARK    1  A    between atoms: N1_2  and  C2_3 
REMARK    2  A    between atoms: C7_8  and  N2_9 
REMARK    3  A    between atoms: N2_9  and  C8_10 
REMARK    4  A    between atoms: C11_14  and  C12_15 
REMARK    5  A    between atoms: C12_15  and  C13_16 
REMARK    6  A    between atoms: N4_17  and  C14_18 
REMARK    7  A    between atoms: C15_19  and  C16_20 
REMARK    8  A    between atoms: C17_21  and  N5_22 
ROOT
HETATM    1  C8  UNL     1      23.251   4.413  50.669  1.00  0.00     0.112 A 
HETATM    2  N3  UNL     1      22.406   5.375  50.504  1.00  0.00    -0.247 NA
HETATM    3  C9  UNL     1      21.118   4.888  50.144  1.00  0.00     0.115 A 
HETATM    4  C10 UNL     1      21.205   3.558  50.093  1.00  0.00     0.005 A 
HETATM    5  C11 UNL     1      22.605   3.118  50.431  1.00  0.00     0.084 A 
ENDROOT
BRANCH   1   6
HETATM    6  N2  UNL     1      24.607   4.655  51.033  1.00  0.00    -0.343 N 
HETATM    7  H10 UNL     1      24.894   4.425  52.033  1.00  0.00     0.167 HD
BRANCH   6   8
HETATM    8  C7  UNL     1      25.578   5.172  50.174  1.00  0.00     0.041 A 
HETATM    9  C5  UNL     1      26.500   4.330  49.534  1.00  0.00    -0.035 A 
HETATM   10  C4  UNL     1      27.476   4.771  48.684  1.00  0.00     0.011 A 
HETATM   11  C6  UNL     1      26.385   2.858  49.819  1.00  0.00     0.050 C 
HETATM   12  C3  UNL     1      27.595   6.115  48.413  1.00  0.00     0.030 A 
HETATM   13  C2  UNL     1      26.719   6.998  49.009  1.00  0.00     0.029 A 
HETATM   14  C18 UNL     1      25.744   6.483  49.869  1.00  0.00     0.059 A 
BRANCH  13  15
HETATM   15  N1  UNL     1      26.822   8.403  48.744  1.00  0.00    -0.394 N 
HETATM   16  C1  UNL     1      26.499   9.281  49.850  1.00  0.00     0.146 C 
HETATM   17  H4  UNL     1      27.112   8.695  47.804  1.00  0.00     0.159 HD
ENDBRANCH  13  15
ENDBRANCH   6   8
ENDBRANCH   1   6
BRANCH   5  18
HETATM   18  C12 UNL     1      22.469   2.347  51.735  1.00  0.00     0.063 C 
BRANCH  18  19
HETATM   19  C13 UNL     1      23.554   1.330  51.815  1.00  0.00     0.090 C 
HETATM   20  N4  UNL     1      24.383   1.571  52.786  1.00  0.00    -0.277 NA
BRANCH  20  21
HETATM   21  C14 UNL     1      25.461   0.670  52.966  1.00  0.00     0.116 C 
HETATM   22  C15 UNL     1      26.271   0.119  52.106  1.00  0.00     0.021 C 
BRANCH  22  23
HETATM   23  C16 UNL     1      27.314  -0.787  52.565  1.00  0.00     0.018 C 
HETATM   24  C17 UNL     1      27.064  -2.085  52.619  1.00  0.00     0.080 C 
BRANCH  24  25
HETATM   25  N5  UNL     1      28.073  -2.993  53.066  1.00  0.00    -0.408 N 
HETATM   26  H21 UNL     1      28.465  -3.930  52.795  1.00  0.00     0.155 HD
HETATM   27  H22 UNL     1      28.784  -3.029  53.843  1.00  0.00     0.155 HD
ENDBRANCH  24  25
ENDBRANCH  22  23
ENDBRANCH  20  21
ENDBRANCH  18  19
ENDBRANCH   5  18
TORSDOF 8
ENDMDL
MODEL 7
REMARK VINA RESULT:      -6.7      2.207      7.791
REMARK  8 active torsions:
REMARK  status: ('A' for Active; 'I' for Inactive)
REMARK    1  A    between atoms: N1_2  and  C2_3 
REMARK    2  A    between atoms: C7_8  and  N2_9 
REMARK    3  A    between atoms: N2_9  and  C8_10 
REMARK    4  A    between atoms: C11_14  and  C12_15 
REMARK    5  A    between atoms: C12_15  and  C13_16 
REMARK    6  A    between atoms: N4_17  and  C14_18 
REMARK    7  A    between atoms: C15_19  and  C16_20 
REMARK    8  A    between atoms: C17_21  and  N5_22 
ROOT
HETATM    1  C8  UNL     1      23.530   2.790  51.816  1.00  0.00     0.112 A 
HETATM    2  N3  UNL     1      22.351   3.160  52.189  1.00  0.00    -0.247 NA
HETATM    3  C9  UNL     1      22.185   4.571  52.089  1.00  0.00     0.115 A 
HETATM    4  C10 UNL     1      23.336   5.065  51.628  1.00  0.00     0.005 A 
HETATM    5  C11 UNL     1      24.325   3.952  51.406  1.00  0.00     0.084 A 
ENDROOT
BRANCH   1   6
HETATM    6  N2  UNL     1      23.929   1.422  51.829  1.00  0.00    -0.343 N 
HETATM    7  H10 UNL     1      23.721   0.843  50.959  1.00  0.00     0.167 HD
BRANCH   6   8
HETATM    8  C7  UNL     1      24.569   0.794  52.899  1.00  0.00     0.041 A 
HETATM    9  C5  UNL     1      23.941  -0.238  53.612  1.00  0.00    -0.035 A 
HETATM   10  C4  UNL     1      24.510  -0.893  54.669  1.00  0.00     0.011 A 
HETATM   11  C6  UNL     1      22.558  -0.627  53.166  1.00  0.00     0.050 C 
HETATM   12  C3  UNL     1      25.775  -0.549  55.090  1.00  0.00     0.030 A 
HETATM   13  C2  UNL     1      26.448   0.458  54.431  1.00  0.00     0.029 A 
HETATM   14  C18 UNL     1      25.810   1.089  53.359  1.00  0.00     0.059 A 
BRANCH  13  15
HETATM   15  N1  UNL     1      27.766   0.835  54.850  1.00  0.00    -0.394 N 
HETATM   16  C1  UNL     1      28.837  -0.054  54.447  1.00  0.00     0.146 C 
HETATM   17  H4  UNL     1      27.868   1.696  55.399  1.00  0.00     0.159 HD
ENDBRANCH  13  15
ENDBRANCH   6   8
ENDBRANCH   1   6
BRANCH   5  18
HETATM   18  C12 UNL     1      24.557   3.930  49.903  1.00  0.00     0.063 C 
BRANCH  18  19
HETATM   19  C13 UNL     1      26.020   3.849  49.636  1.00  0.00     0.090 C 
HETATM   20  N4  UNL     1      26.445   4.848  48.921  1.00  0.00    -0.277 NA
BRANCH  20  21
HETATM   21  C14 UNL     1      27.824   4.884  48.601  1.00  0.00     0.116 C 
HETATM   22  C15 UNL     1      28.603   5.877  48.274  1.00  0.00     0.021 C 
BRANCH  22  23
HETATM   23  C16 UNL     1      30.011   5.635  47.990  1.00  0.00     0.018 C 
HETATM   24  C17 UNL     1      30.916   5.935  48.906  1.00  0.00     0.080 C 
BRANCH  24  25
HETATM   25  N5  UNL     1      32.303   5.705  48.648  1.00  0.00    -0.408 N 
HETATM   26  H21 UNL     1      33.098   5.152  49.057  1.00  0.00     0.155 HD
HETATM   27  H22 UNL     1      33.015   6.023  47.942  1.00  0.00     0.155 HD
ENDBRANCH  24  25
ENDBRANCH  22  23
ENDBRANCH  20  21
ENDBRANCH  18  19
ENDBRANCH   5  18
TORSDOF 8
ENDMDL
MODEL 8
REMARK VINA RESULT:      -6.7      2.206      7.728
REMARK  8 active torsions:
REMARK  status: ('A' for Active; 'I' for Inactive)
REMARK    1  A    between atoms: N1_2  and  C2_3 
REMARK    2  A    between atoms: C7_8  and  N2_9 
REMARK    3  A    between atoms: N2_9  and  C8_10 
REMARK    4  A    between atoms: C11_14  and  C12_15 
REMARK    5  A    between atoms: C12_15  and  C13_16 
REMARK    6  A    between atoms: N4_17  and  C14_18 
REMARK    7  A    between atoms: C15_19  and  C16_20 
REMARK    8  A    between atoms: C17_21  and  N5_22 
ROOT
HETATM    1  C8  UNL     1      23.032   2.377  50.795  1.00  0.00     0.112 A 
HETATM    2  N3  UNL     1      22.339   1.711  49.933  1.00  0.00    -0.247 NA
HETATM    3  C9  UNL     1      22.509   2.222  48.614  1.00  0.00     0.115 A 
HETATM    4  C10 UNL     1      23.353   3.251  48.701  1.00  0.00     0.005 A 
HETATM    5  C11 UNL     1      23.776   3.453  50.133  1.00  0.00     0.084 A 
ENDROOT
BRANCH   1   6
HETATM    6  N2  UNL     1      23.023   2.051  52.182  1.00  0.00    -0.343 N 
HETATM    7  H10 UNL     1      22.108   2.189  52.711  1.00  0.00     0.167 HD
BRANCH   6   8
HETATM    8  C7  UNL     1      24.126   1.568  52.889  1.00  0.00     0.041 A 
HETATM    9  C5  UNL     1      24.146   0.257  53.389  1.00  0.00    -0.035 A 
HETATM   10  C4  UNL     1      25.191  -0.276  54.090  1.00  0.00     0.011 A 
HETATM   11  C6  UNL     1      22.932  -0.590  53.122  1.00  0.00     0.050 C 
HETATM   12  C3  UNL     1      26.310   0.485  54.343  1.00  0.00     0.030 A 
HETATM   13  C2  UNL     1      26.354   1.783  53.879  1.00  0.00     0.029 A 
HETATM   14  C18 UNL     1      25.252   2.269  53.169  1.00  0.00     0.059 A 
BRANCH  13  15
HETATM   15  N1  UNL     1      27.506   2.597  54.130  1.00  0.00    -0.394 N 
HETATM   16  C1  UNL     1      28.701   2.248  53.387  1.00  0.00     0.146 C 
HETATM   17  H4  UNL     1      27.416   3.363  54.806  1.00  0.00     0.159 HD
ENDBRANCH  13  15
ENDBRANCH   6   8
ENDBRANCH   1   6
BRANCH   5  18
HETATM   18  C12 UNL     1      25.267   3.151  50.145  1.00  0.00     0.063 C 
BRANCH  18  19
HETATM   19  C13 UNL     1      26.009   4.334  49.628  1.00  0.00     0.090 C 
HETATM   20  N4  UNL     1      27.146   4.005  49.091  1.00  0.00    -0.277 NA
BRANCH  20  21
HETATM   21  C14 UNL     1      27.945   5.047  48.560  1.00  0.00     0.116 C 
HETATM   22  C15 UNL     1      27.652   6.277  48.242  1.00  0.00     0.021 C 
BRANCH  22  23
HETATM   23  C16 UNL     1      28.681   7.156  47.707  1.00  0.00     0.018 C 
HETATM   24  C17 UNL     1      29.424   7.864  48.541  1.00  0.00     0.080 C 
BRANCH  24  25
HETATM   25  N5  UNL     1      30.441   8.733  48.038  1.00  0.00    -0.408 N 
HETATM   26  H21 UNL     1      31.227   9.322  48.410  1.00  0.00     0.155 HD
HETATM   27  H22 UNL     1      30.751   9.086  47.096  1.00  0.00     0.155 HD
ENDBRANCH  24  25
ENDBRANCH  22  23
ENDBRANCH  20  21
ENDBRANCH  18  19
ENDBRANCH   5  18
TORSDOF 8
ENDMDL
MODEL 9
REMARK VINA RESULT:      -6.6      3.185      6.149
REMARK  8 active torsions:
REMARK  status: ('A' for Active; 'I' for Inactive)
REMARK    1  A    between atoms: N1_2  and  C2_3 
REMARK    2  A    between atoms: C7_8  and  N2_9 
REMARK    3  A    between atoms: N2_9  and  C8_10 
REMARK    4  A    between atoms: C11_14  and  C12_15 
REMARK    5  A    between atoms: C12_15  and  C13_16 
REMARK    6  A    between atoms: N4_17  and  C14_18 
REMARK    7  A    between atoms: C15_19  and  C16_20 
REMARK    8  A    between atoms: C17_21  and  N5_22 
ROOT
HETATM    1  C8  UNL     1      23.602   4.649  48.821  1.00  0.00     0.112 A 
HETATM    2  N3  UNL     1      22.567   4.574  48.053  1.00  0.00    -0.247 NA
HETATM    3  C9  UNL     1      22.145   3.226  47.870  1.00  0.00     0.115 A 
HETATM    4  C10 UNL     1      22.980   2.458  48.572  1.00  0.00     0.005 A 
HETATM    5  C11 UNL     1      24.012   3.312  49.261  1.00  0.00     0.084 A 
ENDROOT
BRANCH   1   6
HETATM    6  N2  UNL     1      24.206   5.897  49.151  1.00  0.00    -0.343 N 
HETATM    7  H10 UNL     1      23.692   6.521  49.845  1.00  0.00     0.167 HD
BRANCH   6   8
HETATM    8  C7  UNL     1      25.417   6.355  48.627  1.00  0.00     0.041 A 
HETATM    9  C5  UNL     1      25.452   7.410  47.703  1.00  0.00    -0.035 A 
HETATM   10  C4  UNL     1      26.601   7.903  47.151  1.00  0.00     0.011 A 
HETATM   11  C6  UNL     1      24.131   8.015  47.314  1.00  0.00     0.050 C 
HETATM   12  C3  UNL     1      27.818   7.361  47.497  1.00  0.00     0.030 A 
HETATM   13  C2  UNL     1      27.854   6.320  48.401  1.00  0.00     0.029 A 
HETATM   14  C18 UNL     1      26.643   5.860  48.928  1.00  0.00     0.059 A 
BRANCH  13  15
HETATM   15  N1  UNL     1      29.107   5.736  48.777  1.00  0.00    -0.394 N 
HETATM   16  C1  UNL     1      30.290   6.495  48.421  1.00  0.00     0.146 C 
HETATM   17  H4  UNL     1      29.091   4.835  49.266  1.00  0.00     0.159 HD
ENDBRANCH  13  15
ENDBRANCH   6   8
ENDBRANCH   1   6
BRANCH   5  18
HETATM   18  C12 UNL     1      23.736   3.136  50.746  1.00  0.00     0.063 C 
BRANCH  18  19
HETATM   19  C13 UNL     1      24.488   1.951  51.245  1.00  0.00     0.090 C 
HETATM   20  N4  UNL     1      25.748   2.210  51.430  1.00  0.00    -0.277 NA
BRANCH  20  21
HETATM   21  C14 UNL     1      26.570   1.159  51.904  1.00  0.00     0.116 C 
HETATM   22  C15 UNL     1      26.269   0.008  52.439  1.00  0.00     0.021 C 
BRANCH  22  23
HETATM   23  C16 UNL     1      27.327  -0.904  52.846  1.00  0.00     0.018 C 
HETATM   24  C17 UNL     1      27.180  -2.201  52.632  1.00  0.00     0.080 C 
BRANCH  24  25
HETATM   25  N5  UNL     1      28.207  -3.115  53.023  1.00  0.00    -0.408 N 
HETATM   26  H21 UNL     1      28.576  -3.555  53.903  1.00  0.00     0.155 HD
HETATM   27  H22 UNL     1      28.963  -3.670  52.545  1.00  0.00     0.155 HD
ENDBRANCH  24  25
ENDBRANCH  22  23
ENDBRANCH  20  21
ENDBRANCH  18  19
ENDBRANCH   5  18
TORSDOF 8
ENDMDL
