MODEL 1
REMARK VINA RESULT:      -7.8      0.000      0.000
REMARK  2 active torsions:
REMARK  status: ('A' for Active; 'I' for Inactive)
REMARK    1  A    between atoms: O1_2  and  C2_3 
REMARK    2  A    between atoms: C6_7  and  O2_8 
ROOT
HETATM    1  C2  UNL     1      26.146   3.057  50.516  1.00  0.00     0.051 C 
HETATM    2  C3  UNL     1      26.808   2.544  51.583  1.00  0.00     0.010 C 
HETATM    3  C4  UNL     1      26.598   2.098  52.989  1.00  0.00     0.059 C 
HETATM    4  C5  UNL     1      27.045   0.675  53.061  1.00  0.00     0.011 C 
HETATM    5  C6  UNL     1      27.326  -0.596  53.152  1.00  0.00     0.066 C 
HETATM    6  C8  UNL     1      26.016  -1.147  53.507  1.00  0.00     0.238 C 
HETATM    7  O3  UNL     1      24.999  -0.138  53.611  1.00  0.00    -0.357 OA
HETATM    8  C9  UNL     1      23.669  -0.534  53.736  1.00  0.00     0.131 C 
HETATM    9  C10 UNL     1      22.519   0.041  53.421  1.00  0.00    -0.002 C 
HETATM   10  C11 UNL     1      21.828   1.228  52.844  1.00  0.00     0.007 C 
HETATM   11  C12 UNL     1      22.800   2.143  52.471  1.00  0.00     0.084 C 
HETATM   12  C13 UNL     1      22.630   3.498  51.843  1.00  0.00     0.046 C 
HETATM   13  N1  UNL     1      22.302   4.724  51.990  1.00  0.00    -0.246 NA
HETATM   14  C14 UNL     1      22.254   5.737  51.031  1.00  0.00     0.227 C 
HETATM   15  N2  UNL     1      22.527   5.564  49.753  1.00  0.00    -0.279 NA
HETATM   16  C15 UNL     1      22.884   4.183  49.339  1.00  0.00     0.187 C 
HETATM   17  C16 UNL     1      23.486   3.607  50.600  1.00  0.00    -0.024 C 
HETATM   18  C17 UNL     1      24.733   3.196  50.993  1.00  0.00     0.089 C 
ENDROOT
BRANCH   1  19
HETATM   19  O1  UNL     1      27.065   3.236  49.433  1.00  0.00    -0.360 OA
HETATM   20  C1  UNL     1      27.109   4.582  48.934  1.00  0.00     0.209 C 
ENDBRANCH   1  19
BRANCH   5  21
HETATM   21  O2  UNL     1      28.148  -1.709  53.101  1.00  0.00    -0.358 OA
HETATM   22  C7  UNL     1      29.507  -1.553  53.454  1.00  0.00     0.209 C 
ENDBRANCH   5  21
TORSDOF 2
ENDMDL
MODEL 2
REMARK VINA RESULT:      -7.7      1.860      2.165
REMARK  2 active torsions:
REMARK  status: ('A' for Active; 'I' for Inactive)
REMARK    1  A    between atoms: O1_2  and  C2_3 
REMARK    2  A    between atoms: C6_7  and  O2_8 
ROOT
HETATM    1  C2  UNL     1      24.037   2.720  50.939  1.00  0.00     0.051 C 
HETATM    2  C3  UNL     1      24.859   2.607  52.012  1.00  0.00     0.010 C 
HETATM    3  C4  UNL     1      24.849   2.302  53.471  1.00  0.00     0.059 C 
HETATM    4  C5  UNL     1      25.765   1.140  53.673  1.00  0.00     0.011 C 
HETATM    5  C6  UNL     1      26.474   0.066  53.889  1.00  0.00     0.066 C 
HETATM    6  C8  UNL     1      25.447  -0.850  54.389  1.00  0.00     0.238 C 
HETATM    7  O3  UNL     1      24.144  -0.248  54.445  1.00  0.00    -0.357 OA
HETATM    8  C9  UNL     1      23.039  -1.056  54.701  1.00  0.00     0.131 C 
HETATM    9  C10 UNL     1      21.754  -0.956  54.398  1.00  0.00    -0.002 C 
HETATM   10  C11 UNL     1      20.680  -0.163  53.737  1.00  0.00     0.007 C 
HETATM   11  C12 UNL     1      21.263   0.973  53.200  1.00  0.00     0.084 C 
HETATM   12  C13 UNL     1      20.618   2.094  52.435  1.00  0.00     0.046 C 
HETATM   13  N1  UNL     1      19.886   3.141  52.463  1.00  0.00    -0.246 NA
HETATM   14  C14 UNL     1      19.467   3.944  51.400  1.00  0.00     0.227 C 
HETATM   15  N2  UNL     1      19.755   3.711  50.136  1.00  0.00    -0.279 NA
HETATM   16  C15 UNL     1      20.562   2.496  49.858  1.00  0.00     0.187 C 
HETATM   17  C16 UNL     1      21.355   2.329  51.134  1.00  0.00    -0.024 C 
HETATM   18  C17 UNL     1      22.675   2.426  51.489  1.00  0.00     0.089 C 
ENDROOT
BRANCH   1  19
HETATM   19  O1  UNL     1      24.812   3.062  49.786  1.00  0.00    -0.360 OA
HETATM   20  C1  UNL     1      26.208   3.249  50.066  1.00  0.00     0.209 C 
ENDBRANCH   1  19
BRANCH   5  21
HETATM   21  O2  UNL     1      27.631  -0.694  53.912  1.00  0.00    -0.358 OA
HETATM   22  C7  UNL     1      28.794  -0.126  54.477  1.00  0.00     0.209 C 
ENDBRANCH   5  21
TORSDOF 2
ENDMDL
MODEL 3
REMARK VINA RESULT:      -7.7      3.489      6.232
REMARK  2 active torsions:
REMARK  status: ('A' for Active; 'I' for Inactive)
REMARK    1  A    between atoms: O1_2  and  C2_3 
REMARK    2  A    between atoms: C6_7  and  O2_8 
ROOT
HETATM    1  C2  UNL     1      23.638   2.483  51.044  1.00  0.00     0.051 C 
HETATM    2  C3  UNL     1      22.581   1.926  50.403  1.00  0.00     0.010 C 
HETATM    3  C4  UNL     1      21.772   0.675  50.342  1.00  0.00     0.059 C 
HETATM    4  C5  UNL     1      20.358   1.064  50.618  1.00  0.00     0.011 C 
HETATM    5  C6  UNL     1      19.126   1.335  50.954  1.00  0.00     0.066 C 
HETATM    6  C8  UNL     1      18.991   0.548  52.181  1.00  0.00     0.238 C 
HETATM    7  O3  UNL     1      20.188  -0.171  52.514  1.00  0.00    -0.357 OA
HETATM    8  C9  UNL     1      20.275  -0.793  53.758  1.00  0.00     0.131 C 
HETATM    9  C10 UNL     1      21.294  -1.122  54.537  1.00  0.00    -0.002 C 
HETATM   10  C11 UNL     1      22.771  -1.130  54.732  1.00  0.00     0.007 C 
HETATM   11  C12 UNL     1      23.348  -0.540  53.619  1.00  0.00     0.084 C 
HETATM   12  C13 UNL     1      24.802  -0.306  53.322  1.00  0.00     0.046 C 
HETATM   13  N1  UNL     1      25.927  -0.798  52.972  1.00  0.00    -0.246 NA
HETATM   14  C14 UNL     1      27.160  -0.157  52.838  1.00  0.00     0.227 C 
HETATM   15  N2  UNL     1      27.365   1.119  53.096  1.00  0.00    -0.279 NA
HETATM   16  C15 UNL     1      26.190   1.888  53.579  1.00  0.00     0.187 C 
HETATM   17  C16 UNL     1      25.032   1.145  52.955  1.00  0.00    -0.024 C 
HETATM   18  C17 UNL     1      24.093   1.419  51.995  1.00  0.00     0.089 C 
ENDROOT
BRANCH   1  19
HETATM   19  O1  UNL     1      23.848   3.807  50.543  1.00  0.00    -0.360 OA
HETATM   20  C1  UNL     1      23.647   4.833  51.528  1.00  0.00     0.209 C 
ENDBRANCH   1  19
BRANCH   5  21
HETATM   21  O2  UNL     1      17.888   1.940  50.813  1.00  0.00    -0.358 OA
HETATM   22  C7  UNL     1      17.638   3.127  51.535  1.00  0.00     0.209 C 
ENDBRANCH   5  21
TORSDOF 2
ENDMDL
MODEL 4
REMARK VINA RESULT:      -7.7      3.117      6.922
REMARK  2 active torsions:
REMARK  status: ('A' for Active; 'I' for Inactive)
REMARK    1  A    between atoms: O1_2  and  C2_3 
REMARK    2  A    between atoms: C6_7  and  O2_8 
ROOT
HETATM    1  C2  UNL     1      23.282  -0.082  53.052  1.00  0.00     0.051 C 
HETATM    2  C3  UNL     1      22.410   0.942  52.879  1.00  0.00     0.010 C 
HETATM    3  C4  UNL     1      22.360   2.404  52.590  1.00  0.00     0.059 C 
HETATM    4  C5  UNL     1      21.535   2.569  51.356  1.00  0.00     0.011 C 
HETATM    5  C6  UNL     1      20.909   2.759  50.227  1.00  0.00     0.066 C 
HETATM    6  C8  UNL     1      21.979   3.331  49.407  1.00  0.00     0.238 C 
HETATM    7  O3  UNL     1      23.220   3.454  50.120  1.00  0.00    -0.357 OA
HETATM    8  C9  UNL     1      24.373   3.786  49.411  1.00  0.00     0.131 C 
HETATM    9  C10 UNL     1      25.661   3.557  49.618  1.00  0.00    -0.002 C 
HETATM   10  C11 UNL     1      26.701   2.948  50.494  1.00  0.00     0.007 C 
HETATM   11  C12 UNL     1      26.056   2.361  51.571  1.00  0.00     0.084 C 
HETATM   12  C13 UNL     1      26.648   1.620  52.736  1.00  0.00     0.046 C 
HETATM   13  N1  UNL     1      27.284   1.675  53.842  1.00  0.00    -0.246 NA
HETATM   14  C14 UNL     1      27.696   0.627  54.668  1.00  0.00     0.227 C 
HETATM   15  N2  UNL     1      27.504  -0.649  54.400  1.00  0.00    -0.279 NA
HETATM   16  C15 UNL     1      26.821  -0.955  53.117  1.00  0.00     0.187 C 
HETATM   17  C16 UNL     1      25.972   0.275  52.895  1.00  0.00    -0.024 C 
HETATM   18  C17 UNL     1      24.629   0.551  52.881  1.00  0.00     0.089 C 
ENDROOT
BRANCH   1  19
HETATM   19  O1  UNL     1      22.551  -1.283  53.316  1.00  0.00    -0.360 OA
HETATM   20  C1  UNL     1      21.701  -1.197  54.470  1.00  0.00     0.209 C 
ENDBRANCH   1  19
BRANCH   5  21
HETATM   21  O2  UNL     1      19.821   2.725  49.370  1.00  0.00    -0.358 OA
HETATM   22  C7  UNL     1      20.066   2.682  47.980  1.00  0.00     0.209 C 
ENDBRANCH   5  21
TORSDOF 2
ENDMDL
MODEL 5
REMARK VINA RESULT:      -7.4      2.211      4.316
REMARK  2 active torsions:
REMARK  status: ('A' for Active; 'I' for Inactive)
REMARK    1  A    between atoms: O1_2  and  C2_3 
REMARK    2  A    between atoms: C6_7  and  O2_8 
ROOT
HETATM    1  C2  UNL     1      26.537   2.643  51.885  1.00  0.00     0.051 C 
HETATM    2  C3  UNL     1      25.532   2.346  52.745  1.00  0.00     0.010 C 
HETATM    3  C4  UNL     1      24.063   2.513  52.935  1.00  0.00     0.059 C 
HETATM    4  C5  UNL     1      23.489   1.141  53.073  1.00  0.00     0.011 C 
HETATM    5  C6  UNL     1      22.926  -0.037  53.096  1.00  0.00     0.066 C 
HETATM    6  C8  UNL     1      22.086   0.032  51.899  1.00  0.00     0.238 C 
HETATM    7  O3  UNL     1      22.200   1.287  51.211  1.00  0.00    -0.357 OA
HETATM    8  C9  UNL     1      21.622   1.417  49.949  1.00  0.00     0.131 C 
HETATM    9  C10 UNL     1      21.888   2.189  48.907  1.00  0.00    -0.002 C 
HETATM   10  C11 UNL     1      22.748   3.258  48.325  1.00  0.00     0.007 C 
HETATM   11  C12 UNL     1      23.685   3.614  49.282  1.00  0.00     0.084 C 
HETATM   12  C13 UNL     1      24.777   4.642  49.197  1.00  0.00     0.046 C 
HETATM   13  N1  UNL     1      25.103   5.877  49.200  1.00  0.00    -0.246 NA
HETATM   14  C14 UNL     1      26.366   6.450  49.044  1.00  0.00     0.227 C 
HETATM   15  N2  UNL     1      27.470   5.764  48.827  1.00  0.00    -0.279 NA
HETATM   16  C15 UNL     1      27.319   4.290  48.728  1.00  0.00     0.187 C 
HETATM   17  C16 UNL     1      26.104   4.026  49.586  1.00  0.00    -0.024 C 
HETATM   18  C17 UNL     1      25.863   3.393  50.778  1.00  0.00     0.089 C 
ENDROOT
BRANCH   1  19
HETATM   19  O1  UNL     1      27.767   2.123  52.401  1.00  0.00    -0.360 OA
HETATM   20  C1  UNL     1      27.601   1.318  53.578  1.00  0.00     0.209 C 
ENDBRANCH   1  19
BRANCH   5  21
HETATM   21  O2  UNL     1      22.676  -1.301  53.602  1.00  0.00    -0.358 OA
HETATM   22  C7  UNL     1      21.517  -1.491  54.386  1.00  0.00     0.209 C 
ENDBRANCH   5  21
TORSDOF 2
ENDMDL
MODEL 6
REMARK VINA RESULT:      -7.1      2.301      4.506
REMARK  2 active torsions:
REMARK  status: ('A' for Active; 'I' for Inactive)
REMARK    1  A    between atoms: O1_2  and  C2_3 
REMARK    2  A    between atoms: C6_7  and  O2_8 
ROOT
HETATM    1  C2  UNL     1      22.048   0.767  53.028  1.00  0.00     0.051 C 
HETATM    2  C3  UNL     1      23.194   0.048  53.119  1.00  0.00     0.010 C 
HETATM    3  C4  UNL     1      24.450  -0.257  52.376  1.00  0.00     0.059 C 
HETATM    4  C5  UNL     1      25.582   0.129  53.269  1.00  0.00     0.011 C 
HETATM    5  C6  UNL     1      26.603   0.544  53.969  1.00  0.00     0.066 C 
HETATM    6  C8  UNL     1      27.144   1.579  53.086  1.00  0.00     0.238 C 
HETATM    7  O3  UNL     1      26.390   1.725  51.873  1.00  0.00    -0.357 OA
HETATM    8  C9  UNL     1      26.661   2.807  51.038  1.00  0.00     0.131 C 
HETATM    9  C10 UNL     1      25.934   3.473  50.154  1.00  0.00    -0.002 C 
HETATM   10  C11 UNL     1      24.617   3.627  49.475  1.00  0.00     0.007 C 
HETATM   11  C12 UNL     1      23.769   2.650  49.971  1.00  0.00     0.084 C 
HETATM   12  C13 UNL     1      22.336   2.374  49.614  1.00  0.00     0.046 C 
HETATM   13  N1  UNL     1      21.504   1.901  48.768  1.00  0.00    -0.246 NA
HETATM   14  C14 UNL     1      20.110   1.876  48.832  1.00  0.00     0.227 C 
HETATM   15  N2  UNL     1      19.402   2.394  49.816  1.00  0.00    -0.279 NA
HETATM   16  C15 UNL     1      20.171   3.056  50.900  1.00  0.00     0.187 C 
HETATM   17  C16 UNL     1      21.489   2.318  50.867  1.00  0.00    -0.024 C 
HETATM   18  C17 UNL     1      22.154   1.460  51.704  1.00  0.00     0.089 C 
ENDROOT
BRANCH   1  19
HETATM   19  O1  UNL     1      21.262   0.552  54.204  1.00  0.00    -0.360 OA
HETATM   20  C1  UNL     1      21.551  -0.688  54.869  1.00  0.00     0.209 C 
ENDBRANCH   1  19
BRANCH   5  21
HETATM   21  O2  UNL     1      27.455   0.564  55.060  1.00  0.00    -0.358 OA
HETATM   22  C7  UNL     1      28.847   0.536  54.823  1.00  0.00     0.209 C 
ENDBRANCH   5  21
TORSDOF 2
ENDMDL
MODEL 7
REMARK VINA RESULT:      -6.9      3.334      5.678
REMARK  2 active torsions:
REMARK  status: ('A' for Active; 'I' for Inactive)
REMARK    1  A    between atoms: O1_2  and  C2_3 
REMARK    2  A    between atoms: C6_7  and  O2_8 
ROOT
HETATM    1  C2  UNL     1      22.909   4.751  48.227  1.00  0.00     0.051 C 
HETATM    2  C3  UNL     1      22.300   3.555  48.035  1.00  0.00     0.010 C 
HETATM    3  C4  UNL     1      22.469   2.097  48.296  1.00  0.00     0.059 C 
HETATM    4  C5  UNL     1      21.274   1.659  49.076  1.00  0.00     0.011 C 
HETATM    5  C6  UNL     1      20.302   1.247  49.844  1.00  0.00     0.066 C 
HETATM    6  C8  UNL     1      21.044   0.849  51.042  1.00  0.00     0.238 C 
HETATM    7  O3  UNL     1      22.460   1.051  50.913  1.00  0.00    -0.357 OA
HETATM    8  C9  UNL     1      23.265   0.913  52.041  1.00  0.00     0.131 C 
HETATM    9  C10 UNL     1      24.437   1.425  52.386  1.00  0.00    -0.002 C 
HETATM   10  C11 UNL     1      25.575   2.311  52.015  1.00  0.00     0.007 C 
HETATM   11  C12 UNL     1      25.312   2.836  50.760  1.00  0.00     0.084 C 
HETATM   12  C13 UNL     1      26.142   3.780  49.938  1.00  0.00     0.046 C 
HETATM   13  N1  UNL     1      27.169   3.953  49.198  1.00  0.00    -0.246 NA
HETATM   14  C14 UNL     1      27.633   5.129  48.605  1.00  0.00     0.227 C 
HETATM   15  N2  UNL     1      27.064   6.308  48.753  1.00  0.00    -0.279 NA
HETATM   16  C15 UNL     1      25.867   6.356  49.631  1.00  0.00     0.187 C 
HETATM   17  C16 UNL     1      25.304   4.960  49.495  1.00  0.00    -0.024 C 
HETATM   18  C17 UNL     1      24.174   4.406  48.952  1.00  0.00     0.089 C 
ENDROOT
BRANCH   1  19
HETATM   19  O1  UNL     1      22.098   5.788  47.668  1.00  0.00    -0.360 OA
HETATM   20  C1  UNL     1      22.831   6.712  46.848  1.00  0.00     0.209 C 
ENDBRANCH   1  19
BRANCH   5  21
HETATM   21  O2  UNL     1      18.983   0.979  50.169  1.00  0.00    -0.358 OA
HETATM   22  C7  UNL     1      18.725   0.070  51.219  1.00  0.00     0.209 C 
ENDBRANCH   5  21
TORSDOF 2
ENDMDL
MODEL 8
REMARK VINA RESULT:      -6.8      2.735      5.444
REMARK  2 active torsions:
REMARK  status: ('A' for Active; 'I' for Inactive)
REMARK    1  A    between atoms: O1_2  and  C2_3 
REMARK    2  A    between atoms: C6_7  and  O2_8 
ROOT
HETATM    1  C2  UNL     1      21.597   3.138  50.936  1.00  0.00     0.051 C 
HETATM    2  C3  UNL     1      22.571   4.073  51.061  1.00  0.00     0.010 C 
HETATM    3  C4  UNL     1      23.866   4.334  51.751  1.00  0.00     0.059 C 
HETATM    4  C5  UNL     1      24.875   4.603  50.684  1.00  0.00     0.011 C 
HETATM    5  C6  UNL     1      25.815   4.744  49.789  1.00  0.00     0.066 C 
HETATM    6  C8  UNL     1      26.669   3.595  50.097  1.00  0.00     0.238 C 
HETATM    7  O3  UNL     1      26.172   2.812  51.194  1.00  0.00    -0.357 OA
HETATM    8  C9  UNL     1      26.765   1.580  51.464  1.00  0.00     0.131 C 
HETATM    9  C10 UNL     1      26.326   0.471  52.039  1.00  0.00    -0.002 C 
HETATM   10  C11 UNL     1      25.192  -0.235  52.700  1.00  0.00     0.007 C 
HETATM   11  C12 UNL     1      24.117   0.639  52.741  1.00  0.00     0.084 C 
HETATM   12  C13 UNL     1      22.742   0.417  53.304  1.00  0.00     0.046 C 
HETATM   13  N1  UNL     1      22.001   0.312  54.339  1.00  0.00    -0.246 NA
HETATM   14  C14 UNL     1      20.633   0.043  54.413  1.00  0.00     0.227 C 
HETATM   15  N2  UNL     1      19.864  -0.186  53.368  1.00  0.00    -0.279 NA
HETATM   16  C15 UNL     1      20.535  -0.170  52.043  1.00  0.00     0.187 C 
HETATM   17  C16 UNL     1      21.693   0.773  52.272  1.00  0.00    -0.024 C 
HETATM   18  C17 UNL     1      22.048   2.019  51.825  1.00  0.00     0.089 C 
ENDROOT
BRANCH   1  19
HETATM   19  O1  UNL     1      20.595   3.618  50.035  1.00  0.00    -0.360 OA
HETATM   20  C1  UNL     1      20.332   5.024  50.165  1.00  0.00     0.209 C 
ENDBRANCH   1  19
BRANCH   5  21
HETATM   21  O2  UNL     1      26.456   5.353  48.723  1.00  0.00    -0.358 OA
HETATM   22  C7  UNL     1      27.841   5.133  48.562  1.00  0.00     0.209 C 
ENDBRANCH   5  21
TORSDOF 2
ENDMDL
MODEL 9
REMARK VINA RESULT:      -6.8      3.275      5.735
REMARK  2 active torsions:
REMARK  status: ('A' for Active; 'I' for Inactive)
REMARK    1  A    between atoms: O1_2  and  C2_3 
REMARK    2  A    between atoms: C6_7  and  O2_8 
ROOT
HETATM    1  C2  UNL     1      20.863   3.466  50.927  1.00  0.00     0.051 C 
HETATM    2  C3  UNL     1      20.278   2.252  50.777  1.00  0.00     0.010 C 
HETATM    3  C4  UNL     1      20.592   0.795  50.745  1.00  0.00     0.059 C 
HETATM    4  C5  UNL     1      19.767   0.154  51.812  1.00  0.00     0.011 C 
HETATM    5  C6  UNL     1      19.147  -0.438  52.795  1.00  0.00     0.066 C 
HETATM    6  C8  UNL     1      20.278  -0.912  53.595  1.00  0.00     0.238 C 
HETATM    7  O3  UNL     1      21.548  -0.564  53.021  1.00  0.00    -0.357 OA
HETATM    8  C9  UNL     1      22.704  -0.766  53.773  1.00  0.00     0.131 C 
HETATM    9  C10 UNL     1      23.898  -0.193  53.770  1.00  0.00    -0.002 C 
HETATM   10  C11 UNL     1      24.794   0.834  53.169  1.00  0.00     0.007 C 
HETATM   11  C12 UNL     1      24.083   1.484  52.172  1.00  0.00     0.084 C 
HETATM   12  C13 UNL     1      24.530   2.596  51.266  1.00  0.00     0.046 C 
HETATM   13  N1  UNL     1      25.223   2.954  50.255  1.00  0.00    -0.246 NA
HETATM   14  C14 UNL     1      25.397   4.233  49.721  1.00  0.00     0.227 C 
HETATM   15  N2  UNL     1      24.864   5.327  50.228  1.00  0.00    -0.279 NA
HETATM   16  C15 UNL     1      24.051   5.153  51.459  1.00  0.00     0.187 C 
HETATM   17  C16 UNL     1      23.539   3.739  51.316  1.00  0.00    -0.024 C 
HETATM   18  C17 UNL     1      22.315   3.153  51.116  1.00  0.00     0.089 C 
ENDROOT
BRANCH   1  19
HETATM   19  O1  UNL     1      19.861   4.485  50.839  1.00  0.00    -0.360 OA
HETATM   20  C1  UNL     1      18.551   4.036  51.217  1.00  0.00     0.209 C 
ENDBRANCH   1  19
BRANCH   5  21
HETATM   21  O2  UNL     1      18.039  -0.867  53.507  1.00  0.00    -0.358 OA
HETATM   22  C7  UNL     1      17.777  -2.253  53.566  1.00  0.00     0.209 C 
ENDBRANCH   5  21
TORSDOF 2
ENDMDL
