MODEL 1
REMARK VINA RESULT:      -7.7      0.000      0.000
REMARK  5 active torsions:
REMARK  status: ('A' for Active; 'I' for Inactive)
REMARK    1  A    between atoms: C2_2  and  N1_3 
REMARK    2  A    between atoms: N1_3  and  C3_4 
REMARK    3  A    between atoms: N1_3  and  C5_6 
REMARK    4  A    between atoms: C8_9  and  C9_10 
REMARK    5  A    between atoms: C17_23  and  O2_24 
ROOT
HETATM    1  C5  UNL     1      26.453   1.017  53.124  1.00  0.00     0.303 C 
HETATM    2  C6  UNL     1      25.090   0.494  53.267  1.00  0.00     0.014 C 
HETATM    3  C7  UNL     1      23.993  -0.192  53.071  1.00  0.00     0.003 C 
HETATM    4  C8  UNL     1      22.629  -0.573  53.381  1.00  0.00     0.165 C 
HETATM    5  N2  UNL     1      21.559   0.328  53.172  1.00  0.00    -0.384 N 
HETATM    6  C10 UNL     1      21.014   0.936  52.011  1.00  0.00     0.093 C 
HETATM    7  C11 UNL     1      21.480   2.125  51.648  1.00  0.00    -0.013 C 
HETATM    8  C12 UNL     1      22.560   2.857  52.421  1.00  0.00     0.120 C 
HETATM    9  C13 UNL     1      23.665   2.688  51.390  1.00  0.00     0.107 C 
HETATM   10  N3  UNL     1      23.386   3.462  50.395  1.00  0.00    -0.245 NA
HETATM   11  C14 UNL     1      22.020   3.561  49.862  1.00  0.00     0.143 C 
HETATM   12  C15 UNL     1      21.036   2.817  50.431  1.00  0.00     0.059 C 
HETATM   13 CL1  UNL     1      19.400   2.547  49.937  1.00  0.00    -0.082 Cl
HETATM   14  N4  UNL     1      24.878   2.043  51.020  1.00  0.00    -0.352 N 
HETATM   15  C16 UNL     1      26.092   2.726  51.188  1.00  0.00     0.124 C 
HETATM   16  C17 UNL     1      26.663   2.109  52.193  1.00  0.00     0.095 C 
HETATM   17  H16 UNL     1      20.872   0.797  53.815  1.00  0.00     0.160 HD
HETATM   18  H21 UNL     1      24.883   1.091  50.620  1.00  0.00     0.166 HD
ENDROOT
BRANCH   1  19
HETATM   19  N1  UNL     1      27.430  -0.018  52.859  1.00  0.00     0.102 N 
BRANCH  19  20
HETATM   20  C2  UNL     1      28.261  -0.328  53.982  1.00  0.00     0.269 C 
HETATM   21  C1  UNL     1      29.694   0.100  53.726  1.00  0.00     0.037 C 
ENDBRANCH  19  20
BRANCH  19  22
HETATM   22  C3  UNL     1      26.885  -1.107  52.147  1.00  0.00     0.269 C 
HETATM   23  C4  UNL     1      27.363  -2.460  52.617  1.00  0.00     0.037 C 
ENDBRANCH  19  22
ENDBRANCH   1  19
BRANCH  16  24
HETATM   24  O2  UNL     1      27.831   2.833  52.284  1.00  0.00    -0.361 OA
HETATM   25  H23 UNL     1      27.914   3.551  52.995  1.00  0.00     0.217 HD
ENDBRANCH  16  24
BRANCH   4  26
HETATM   26  C9  UNL     1      22.565  -0.956  54.847  1.00  0.00     0.260 C 
HETATM   27  O1  UNL     1      22.763  -1.767  55.728  1.00  0.00    -0.304 OA
ENDBRANCH   4  26
TORSDOF 5
ENDMDL
MODEL 2
REMARK VINA RESULT:      -7.5      2.990      5.912
REMARK  5 active torsions:
REMARK  status: ('A' for Active; 'I' for Inactive)
REMARK    1  A    between atoms: C2_2  and  N1_3 
REMARK    2  A    between atoms: N1_3  and  C3_4 
REMARK    3  A    between atoms: N1_3  and  C5_6 
REMARK    4  A    between atoms: C8_9  and  C9_10 
REMARK    5  A    between atoms: C17_23  and  O2_24 
ROOT
HETATM    1  C5  UNL     1      22.837   2.529  50.512  1.00  0.00     0.303 C 
HETATM    2  C6  UNL     1      23.014   1.580  51.618  1.00  0.00     0.014 C 
HETATM    3  C7  UNL     1      23.105   1.073  52.820  1.00  0.00     0.003 C 
HETATM    4  C8  UNL     1      23.309  -0.013  53.758  1.00  0.00     0.165 C 
HETATM    5  N2  UNL     1      24.580  -0.615  53.904  1.00  0.00    -0.384 N 
HETATM    6  C10 UNL     1      25.838  -0.132  54.352  1.00  0.00     0.093 C 
HETATM    7  C11 UNL     1      26.681   0.353  53.449  1.00  0.00    -0.013 C 
HETATM    8  C12 UNL     1      26.360   0.407  51.967  1.00  0.00     0.120 C 
HETATM    9  C13 UNL     1      26.206   1.917  51.872  1.00  0.00     0.107 C 
HETATM   10  N3  UNL     1      27.385   2.433  51.976  1.00  0.00    -0.245 NA
HETATM   11  C14 UNL     1      28.347   1.947  52.975  1.00  0.00     0.143 C 
HETATM   12  C15 UNL     1      27.981   0.937  53.806  1.00  0.00     0.059 C 
HETATM   13 CL1  UNL     1      28.775   0.277  55.194  1.00  0.00    -0.082 Cl
HETATM   14  N4  UNL     1      25.332   3.031  51.729  1.00  0.00    -0.352 N 
HETATM   15  C16 UNL     1      25.198   3.635  50.470  1.00  0.00     0.124 C 
HETATM   16  C17 UNL     1      23.996   3.288  50.082  1.00  0.00     0.095 C 
HETATM   17  H16 UNL     1      24.947  -1.583  53.723  1.00  0.00     0.160 HD
HETATM   18  H21 UNL     1      24.807   3.412  52.533  1.00  0.00     0.166 HD
ENDROOT
BRANCH   1  19
HETATM   19  N1  UNL     1      21.733   3.442  50.722  1.00  0.00     0.102 N 
BRANCH  19  20
HETATM   20  C2  UNL     1      20.447   2.821  50.630  1.00  0.00     0.269 C 
HETATM   21  C1  UNL     1      19.704   2.926  51.949  1.00  0.00     0.037 C 
ENDBRANCH  19  20
BRANCH  19  22
HETATM   22  C3  UNL     1      21.947   4.308  51.814  1.00  0.00     0.269 C 
HETATM   23  C4  UNL     1      21.900   5.776  51.464  1.00  0.00     0.037 C 
ENDBRANCH  19  22
ENDBRANCH   1  19
BRANCH  16  24
HETATM   24  O2  UNL     1      23.950   3.917  48.858  1.00  0.00    -0.361 OA
HETATM   25  H23 UNL     1      24.590   4.682  48.671  1.00  0.00     0.217 HD
ENDBRANCH  16  24
BRANCH   4  26
HETATM   26  C9  UNL     1      22.359  -1.138  53.393  1.00  0.00     0.260 C 
HETATM   27  O1  UNL     1      21.537  -1.966  53.727  1.00  0.00    -0.304 OA
ENDBRANCH   4  26
TORSDOF 5
ENDMDL
MODEL 3
REMARK VINA RESULT:      -7.1      1.361      1.599
REMARK  5 active torsions:
REMARK  status: ('A' for Active; 'I' for Inactive)
REMARK    1  A    between atoms: C2_2  and  N1_3 
REMARK    2  A    between atoms: N1_3  and  C3_4 
REMARK    3  A    between atoms: N1_3  and  C5_6 
REMARK    4  A    between atoms: C8_9  and  C9_10 
REMARK    5  A    between atoms: C17_23  and  O2_24 
ROOT
HETATM    1  C5  UNL     1      25.400   1.695  52.651  1.00  0.00     0.303 C 
HETATM    2  C6  UNL     1      24.286   0.811  53.012  1.00  0.00     0.014 C 
HETATM    3  C7  UNL     1      23.455  -0.199  53.033  1.00  0.00     0.003 C 
HETATM    4  C8  UNL     1      22.305  -0.922  53.539  1.00  0.00     0.165 C 
HETATM    5  N2  UNL     1      20.993  -0.438  53.325  1.00  0.00    -0.384 N 
HETATM    6  C10 UNL     1      20.215  -0.226  52.157  1.00  0.00     0.093 C 
HETATM    7  C11 UNL     1      20.255   0.971  51.585  1.00  0.00    -0.013 C 
HETATM    8  C12 UNL     1      21.090   2.115  52.127  1.00  0.00     0.120 C 
HETATM    9  C13 UNL     1      22.127   2.123  51.016  1.00  0.00     0.107 C 
HETATM   10  N3  UNL     1      21.557   2.600  49.960  1.00  0.00    -0.245 NA
HETATM   11  C14 UNL     1      20.202   2.187  49.570  1.00  0.00     0.143 C 
HETATM   12  C15 UNL     1      19.541   1.282  50.339  1.00  0.00     0.059 C 
HETATM   13 CL1  UNL     1      18.050   0.448  50.068  1.00  0.00    -0.082 Cl
HETATM   14  N4  UNL     1      23.458   1.828  50.609  1.00  0.00    -0.352 N 
HETATM   15  C16 UNL     1      24.399   2.867  50.548  1.00  0.00     0.124 C 
HETATM   16  C17 UNL     1      25.196   2.629  51.561  1.00  0.00     0.095 C 
HETATM   17  H16 UNL     1      20.232  -0.102  53.968  1.00  0.00     0.160 HD
HETATM   18  H21 UNL     1      23.742   0.870  50.346  1.00  0.00     0.166 HD
ENDROOT
BRANCH   1  19
HETATM   19  N1  UNL     1      26.639   0.979  52.427  1.00  0.00     0.102 N 
BRANCH  19  20
HETATM   20  C2  UNL     1      27.540   1.025  53.537  1.00  0.00     0.269 C 
HETATM   21  C1  UNL     1      28.368   2.296  53.505  1.00  0.00     0.037 C 
ENDBRANCH  19  20
BRANCH  19  22
HETATM   22  C3  UNL     1      26.435  -0.278  51.821  1.00  0.00     0.269 C 
HETATM   23  C4  UNL     1      27.012  -1.442  52.591  1.00  0.00     0.037 C 
ENDBRANCH  19  22
ENDBRANCH   1  19
BRANCH  16  24
HETATM   24  O2  UNL     1      26.075   3.680  51.423  1.00  0.00    -0.361 OA
HETATM   25  H23 UNL     1      26.146   4.366  52.167  1.00  0.00     0.217 HD
ENDBRANCH  16  24
BRANCH   4  26
HETATM   26  C9  UNL     1      22.454  -1.058  55.042  1.00  0.00     0.260 C 
HETATM   27  O1  UNL     1      23.114  -1.393  56.004  1.00  0.00    -0.304 OA
ENDBRANCH   4  26
TORSDOF 5
ENDMDL
MODEL 4
REMARK VINA RESULT:      -7.1      1.781      4.192
REMARK  5 active torsions:
REMARK  status: ('A' for Active; 'I' for Inactive)
REMARK    1  A    between atoms: C2_2  and  N1_3 
REMARK    2  A    between atoms: N1_3  and  C3_4 
REMARK    3  A    between atoms: N1_3  and  C5_6 
REMARK    4  A    between atoms: C8_9  and  C9_10 
REMARK    5  A    between atoms: C17_23  and  O2_24 
ROOT
HETATM    1  C5  UNL     1      26.793   0.135  52.539  1.00  0.00     0.303 C 
HETATM    2  C6  UNL     1      26.394   1.351  51.822  1.00  0.00     0.014 C 
HETATM    3  C7  UNL     1      26.094   2.595  51.552  1.00  0.00     0.003 C 
HETATM    4  C8  UNL     1      25.684   3.669  50.669  1.00  0.00     0.165 C 
HETATM    5  N2  UNL     1      24.367   3.720  50.154  1.00  0.00    -0.384 N 
HETATM    6  C10 UNL     1      23.093   3.873  50.762  1.00  0.00     0.093 C 
HETATM    7  C11 UNL     1      22.425   2.777  51.101  1.00  0.00    -0.013 C 
HETATM    8  C12 UNL     1      22.961   1.378  50.865  1.00  0.00     0.120 C 
HETATM    9  C13 UNL     1      23.229   1.040  52.323  1.00  0.00     0.107 C 
HETATM   10  N3  UNL     1      22.084   0.864  52.894  1.00  0.00    -0.245 NA
HETATM   11  C14 UNL     1      20.956   1.771  52.642  1.00  0.00     0.143 C 
HETATM   12  C15 UNL     1      21.129   2.817  51.792  1.00  0.00     0.059 C 
HETATM   13 CL1  UNL     1      20.098   4.159  51.433  1.00  0.00    -0.082 Cl
HETATM   14  N4  UNL     1      24.186   0.838  53.356  1.00  0.00    -0.352 N 
HETATM   15  C16 UNL     1      24.544  -0.472  53.708  1.00  0.00     0.124 C 
HETATM   16  C17 UNL     1      25.764  -0.600  53.248  1.00  0.00     0.095 C 
HETATM   17  H16 UNL     1      23.966   3.660  49.185  1.00  0.00     0.160 HD
HETATM   18  H21 UNL     1      24.613   1.632  53.859  1.00  0.00     0.166 HD
ENDROOT
BRANCH   1  19
HETATM   19  N1  UNL     1      27.914   0.348  53.431  1.00  0.00     0.102 N 
BRANCH  19  20
HETATM   20  C2  UNL     1      29.174  -0.045  52.878  1.00  0.00     0.269 C 
HETATM   21  C1  UNL     1      29.751  -1.224  53.639  1.00  0.00     0.037 C 
ENDBRANCH  19  20
BRANCH  19  22
HETATM   22  C3  UNL     1      27.862   1.601  54.075  1.00  0.00     0.269 C 
HETATM   23  C4  UNL     1      29.067   2.478  53.833  1.00  0.00     0.037 C 
ENDBRANCH  19  22
ENDBRANCH   1  19
BRANCH  16  24
HETATM   24  O2  UNL     1      26.030  -1.894  53.635  1.00  0.00    -0.361 OA
HETATM   25  H23 UNL     1      25.845  -2.652  52.987  1.00  0.00     0.217 HD
ENDBRANCH  16  24
BRANCH   4  26
HETATM   26  C9  UNL     1      26.599   3.664  49.460  1.00  0.00     0.260 C 
HETATM   27  O1  UNL     1      27.551   4.123  48.864  1.00  0.00    -0.304 OA
ENDBRANCH   4  26
TORSDOF 5
ENDMDL
MODEL 5
REMARK VINA RESULT:      -7.0      2.966      6.803
REMARK  5 active torsions:
REMARK  status: ('A' for Active; 'I' for Inactive)
REMARK    1  A    between atoms: C2_2  and  N1_3 
REMARK    2  A    between atoms: N1_3  and  C3_4 
REMARK    3  A    between atoms: N1_3  and  C5_6 
REMARK    4  A    between atoms: C8_9  and  C9_10 
REMARK    5  A    between atoms: C17_23  and  O2_24 
ROOT
HETATM    1  C5  UNL     1      21.849   1.068  52.657  1.00  0.00     0.303 C 
HETATM    2  C6  UNL     1      23.001   1.769  52.081  1.00  0.00     0.014 C 
HETATM    3  C7  UNL     1      24.018   2.073  51.315  1.00  0.00     0.003 C 
HETATM    4  C8  UNL     1      25.123   2.915  50.901  1.00  0.00     0.165 C 
HETATM    5  N2  UNL     1      26.279   3.041  51.706  1.00  0.00    -0.384 N 
HETATM    6  C10 UNL     1      27.274   2.120  52.127  1.00  0.00     0.093 C 
HETATM    7  C11 UNL     1      27.099   1.492  53.283  1.00  0.00    -0.013 C 
HETATM    8  C12 UNL     1      25.889   1.720  54.169  1.00  0.00     0.120 C 
HETATM    9  C13 UNL     1      25.234   0.368  53.930  1.00  0.00     0.107 C 
HETATM   10  N3  UNL     1      25.939  -0.517  54.552  1.00  0.00    -0.245 NA
HETATM   11  C14 UNL     1      27.408  -0.496  54.504  1.00  0.00     0.143 C 
HETATM   12  C15 UNL     1      28.031   0.474  53.786  1.00  0.00     0.059 C 
HETATM   13 CL1  UNL     1      29.697   0.668  53.363  1.00  0.00    -0.082 Cl
HETATM   14  N4  UNL     1      24.186  -0.370  53.312  1.00  0.00    -0.352 N 
HETATM   15  C16 UNL     1      23.072  -0.744  54.078  1.00  0.00     0.124 C 
HETATM   16  C17 UNL     1      22.110   0.024  53.630  1.00  0.00     0.095 C 
HETATM   17  H16 UNL     1      26.722   3.847  52.214  1.00  0.00     0.160 HD
HETATM   18  H21 UNL     1      24.235  -0.646  52.318  1.00  0.00     0.166 HD
ENDROOT
BRANCH   1  19
HETATM   19  N1  UNL     1      20.941   0.553  51.653  1.00  0.00     0.102 N 
BRANCH  19  20
HETATM   20  C2  UNL     1      19.624   1.110  51.728  1.00  0.00     0.269 C 
HETATM   21  C1  UNL     1      18.591   0.020  51.942  1.00  0.00     0.037 C 
ENDBRANCH  19  20
BRANCH  19  22
HETATM   22  C3  UNL     1      21.532   0.481  50.375  1.00  0.00     0.269 C 
HETATM   23  C4  UNL     1      20.758   1.189  49.289  1.00  0.00     0.037 C 
ENDBRANCH  19  22
ENDBRANCH   1  19
BRANCH  16  24
HETATM   24  O2  UNL     1      21.072  -0.408  54.424  1.00  0.00    -0.361 OA
HETATM   25  H23 UNL     1      20.471   0.277  54.869  1.00  0.00     0.217 HD
ENDBRANCH  16  24
BRANCH   4  26
HETATM   26  C9  UNL     1      24.599   4.324  50.707  1.00  0.00     0.260 C 
HETATM   27  O1  UNL     1      24.671   5.404  50.157  1.00  0.00    -0.304 OA
ENDBRANCH   4  26
TORSDOF 5
ENDMDL
MODEL 6
REMARK VINA RESULT:      -6.8      3.112      7.043
REMARK  5 active torsions:
REMARK  status: ('A' for Active; 'I' for Inactive)
REMARK    1  A    between atoms: C2_2  and  N1_3 
REMARK    2  A    between atoms: N1_3  and  C3_4 
REMARK    3  A    between atoms: N1_3  and  C5_6 
REMARK    4  A    between atoms: C8_9  and  C9_10 
REMARK    5  A    between atoms: C17_23  and  O2_24 
ROOT
HETATM    1  C5  UNL     1      21.624   3.668  51.101  1.00  0.00     0.303 C 
HETATM    2  C6  UNL     1      23.036   3.564  50.718  1.00  0.00     0.014 C 
HETATM    3  C7  UNL     1      24.140   3.196  50.119  1.00  0.00     0.003 C 
HETATM    4  C8  UNL     1      25.571   3.245  49.892  1.00  0.00     0.165 C 
HETATM    5  N2  UNL     1      26.476   2.759  50.864  1.00  0.00    -0.384 N 
HETATM    6  C10 UNL     1      26.713   1.471  51.412  1.00  0.00     0.093 C 
HETATM    7  C11 UNL     1      26.061   1.130  52.517  1.00  0.00    -0.013 C 
HETATM    8  C12 UNL     1      25.082   2.055  53.215  1.00  0.00     0.120 C 
HETATM    9  C13 UNL     1      23.821   1.286  52.854  1.00  0.00     0.107 C 
HETATM   10  N3  UNL     1      23.814   0.204  53.558  1.00  0.00    -0.245 NA
HETATM   11  C14 UNL     1      25.029  -0.603  53.732  1.00  0.00     0.143 C 
HETATM   12  C15 UNL     1      26.180  -0.198  53.134  1.00  0.00     0.059 C 
HETATM   13 CL1  UNL     1      27.706  -0.997  52.970  1.00  0.00    -0.082 Cl
HETATM   14  N4  UNL     1      22.634   1.219  52.071  1.00  0.00    -0.352 N 
HETATM   15  C16 UNL     1      21.411   1.585  52.654  1.00  0.00     0.124 C 
HETATM   16  C17 UNL     1      21.119   2.726  52.081  1.00  0.00     0.095 C 
HETATM   17  H16 UNL     1      27.222   3.213  51.449  1.00  0.00     0.160 HD
HETATM   18  H21 UNL     1      22.652   0.896  51.091  1.00  0.00     0.166 HD
ENDROOT
BRANCH   1  19
HETATM   19  N1  UNL     1      20.730   3.681  49.962  1.00  0.00     0.102 N 
BRANCH  19  20
HETATM   20  C2  UNL     1      20.806   4.880  49.183  1.00  0.00     0.269 C 
HETATM   21  C1  UNL     1      19.726   5.861  49.600  1.00  0.00     0.037 C 
ENDBRANCH  19  20
BRANCH  19  22
HETATM   22  C3  UNL     1      20.734   2.460  49.256  1.00  0.00     0.269 C 
HETATM   23  C4  UNL     1      20.922   2.602  47.765  1.00  0.00     0.037 C 
ENDBRANCH  19  22
ENDBRANCH   1  19
BRANCH  16  24
HETATM   24  O2  UNL     1      19.922   3.004  52.701  1.00  0.00    -0.361 OA
HETATM   25  H23 UNL     1      19.615   3.968  52.776  1.00  0.00     0.217 HD
ENDBRANCH  16  24
BRANCH   4  26
HETATM   26  C9  UNL     1      25.963   4.689  49.649  1.00  0.00     0.260 C 
HETATM   27  O1  UNL     1      26.432   5.541  48.923  1.00  0.00    -0.304 OA
ENDBRANCH   4  26
TORSDOF 5
ENDMDL
MODEL 7
REMARK VINA RESULT:      -6.7      3.381      5.626
REMARK  5 active torsions:
REMARK  status: ('A' for Active; 'I' for Inactive)
REMARK    1  A    between atoms: C2_2  and  N1_3 
REMARK    2  A    between atoms: N1_3  and  C3_4 
REMARK    3  A    between atoms: N1_3  and  C5_6 
REMARK    4  A    between atoms: C8_9  and  C9_10 
REMARK    5  A    between atoms: C17_23  and  O2_24 
ROOT
HETATM    1  C5  UNL     1      24.618   3.504  50.486  1.00  0.00     0.303 C 
HETATM    2  C6  UNL     1      23.384   3.280  49.726  1.00  0.00     0.014 C 
HETATM    3  C7  UNL     1      22.168   3.407  49.261  1.00  0.00     0.003 C 
HETATM    4  C8  UNL     1      21.052   3.016  48.421  1.00  0.00     0.165 C 
HETATM    5  N2  UNL     1      20.340   1.820  48.674  1.00  0.00    -0.384 N 
HETATM    6  C10 UNL     1      19.542   1.377  49.761  1.00  0.00     0.093 C 
HETATM    7  C11 UNL     1      20.131   0.688  50.731  1.00  0.00    -0.013 C 
HETATM    8  C12 UNL     1      21.610   0.354  50.724  1.00  0.00     0.120 C 
HETATM    9  C13 UNL     1      22.011   1.290  51.853  1.00  0.00     0.107 C 
HETATM   10  N3  UNL     1      21.562   0.783  52.952  1.00  0.00    -0.245 NA
HETATM   11  C14 UNL     1      20.208   0.217  53.036  1.00  0.00     0.143 C 
HETATM   12  C15 UNL     1      19.416   0.236  51.932  1.00  0.00     0.059 C 
HETATM   13 CL1  UNL     1      17.742  -0.154  51.741  1.00  0.00    -0.082 Cl
HETATM   14  N4  UNL     1      22.658   2.495  52.246  1.00  0.00    -0.352 N 
HETATM   15  C16 UNL     1      23.959   2.431  52.769  1.00  0.00     0.124 C 
HETATM   16  C17 UNL     1      24.705   2.937  51.818  1.00  0.00     0.095 C 
HETATM   17  H16 UNL     1      20.203   0.932  48.130  1.00  0.00     0.160 HD
HETATM   18  H21 UNL     1      22.188   3.411  52.167  1.00  0.00     0.166 HD
ENDROOT
BRANCH   1  19
HETATM   19  N1  UNL     1      24.997   4.901  50.549  1.00  0.00     0.102 N 
BRANCH  19  20
HETATM   20  C2  UNL     1      25.567   5.398  49.334  1.00  0.00     0.269 C 
HETATM   21  C1  UNL     1      26.873   4.690  49.024  1.00  0.00     0.037 C 
ENDBRANCH  19  20
BRANCH  19  22
HETATM   22  C3  UNL     1      24.013   5.701  51.166  1.00  0.00     0.269 C 
HETATM   23  C4  UNL     1      24.094   7.168  50.820  1.00  0.00     0.037 C 
ENDBRANCH  19  22
ENDBRANCH   1  19
BRANCH  16  24
HETATM   24  O2  UNL     1      25.944   2.838  52.410  1.00  0.00    -0.361 OA
HETATM   25  H23 UNL     1      26.384   3.675  52.779  1.00  0.00     0.217 HD
ENDBRANCH  16  24
BRANCH   4  26
HETATM   26  C9  UNL     1      21.550   2.906  46.993  1.00  0.00     0.260 C 
HETATM   27  O1  UNL     1      22.051   3.420  46.015  1.00  0.00    -0.304 OA
ENDBRANCH   4  26
TORSDOF 5
ENDMDL
MODEL 8
REMARK VINA RESULT:      -6.6      2.494      3.876
REMARK  5 active torsions:
REMARK  status: ('A' for Active; 'I' for Inactive)
REMARK    1  A    between atoms: C2_2  and  N1_3 
REMARK    2  A    between atoms: N1_3  and  C3_4 
REMARK    3  A    between atoms: N1_3  and  C5_6 
REMARK    4  A    between atoms: C8_9  and  C9_10 
REMARK    5  A    between atoms: C17_23  and  O2_24 
ROOT
HETATM    1  C5  UNL     1      24.407   2.436  52.170  1.00  0.00     0.303 C 
HETATM    2  C6  UNL     1      24.182   1.230  52.974  1.00  0.00     0.014 C 
HETATM    3  C7  UNL     1      24.051  -0.022  53.331  1.00  0.00     0.003 C 
HETATM    4  C8  UNL     1      23.798  -1.077  54.293  1.00  0.00     0.165 C 
HETATM    5  N2  UNL     1      22.509  -1.261  54.845  1.00  0.00    -0.384 N 
HETATM    6  C10 UNL     1      21.254  -1.615  54.284  1.00  0.00     0.093 C 
HETATM    7  C11 UNL     1      20.444  -0.640  53.893  1.00  0.00    -0.013 C 
HETATM    8  C12 UNL     1      20.800   0.829  54.023  1.00  0.00     0.120 C 
HETATM    9  C13 UNL     1      20.994   1.099  52.540  1.00  0.00     0.107 C 
HETATM   10  N3  UNL     1      19.826   1.089  51.990  1.00  0.00    -0.245 NA
HETATM   11  C14 UNL     1      18.830   0.064  52.331  1.00  0.00     0.143 C 
HETATM   12  C15 UNL     1      19.151  -0.891  53.242  1.00  0.00     0.059 C 
HETATM   13 CL1  UNL     1      18.310  -2.327  53.714  1.00  0.00    -0.082 Cl
HETATM   14  N4  UNL     1      21.898   1.352  51.470  1.00  0.00    -0.352 N 
HETATM   15  C16 UNL     1      22.077   2.670  51.025  1.00  0.00     0.124 C 
HETATM   16  C17 UNL     1      23.278   2.983  51.442  1.00  0.00     0.095 C 
HETATM   17  H16 UNL     1      22.122  -1.187  55.820  1.00  0.00     0.160 HD
HETATM   18  H21 UNL     1      22.414   0.586  51.008  1.00  0.00     0.166 HD
ENDROOT
BRANCH   1  19
HETATM   19  N1  UNL     1      25.529   2.308  51.262  1.00  0.00     0.102 N 
BRANCH  19  20
HETATM   20  C2  UNL     1      25.991   3.557  50.738  1.00  0.00     0.269 C 
HETATM   21  C1  UNL     1      26.544   3.379  49.336  1.00  0.00     0.037 C 
ENDBRANCH  19  20
BRANCH  19  22
HETATM   22  C3  UNL     1      26.510   1.413  51.738  1.00  0.00     0.269 C 
HETATM   23  C4  UNL     1      27.554   2.047  52.626  1.00  0.00     0.037 C 
ENDBRANCH  19  22
ENDBRANCH   1  19
BRANCH  16  24
HETATM   24  O2  UNL     1      23.368   4.272  50.965  1.00  0.00    -0.361 OA
HETATM   25  H23 UNL     1      23.570   4.423  49.983  1.00  0.00     0.217 HD
ENDBRANCH  16  24
BRANCH   4  26
HETATM   26  C9  UNL     1      24.728  -0.873  55.474  1.00  0.00     0.260 C 
HETATM   27  O1  UNL     1      25.169  -1.253  56.539  1.00  0.00    -0.304 OA
ENDBRANCH   4  26
TORSDOF 5
ENDMDL
MODEL 9
REMARK VINA RESULT:      -6.6      2.095      2.872
REMARK  5 active torsions:
REMARK  status: ('A' for Active; 'I' for Inactive)
REMARK    1  A    between atoms: C2_2  and  N1_3 
REMARK    2  A    between atoms: N1_3  and  C3_4 
REMARK    3  A    between atoms: N1_3  and  C5_6 
REMARK    4  A    between atoms: C8_9  and  C9_10 
REMARK    5  A    between atoms: C17_23  and  O2_24 
ROOT
HETATM    1  C5  UNL     1      25.366   1.024  53.777  1.00  0.00     0.303 C 
HETATM    2  C6  UNL     1      24.092   1.240  53.081  1.00  0.00     0.014 C 
HETATM    3  C7  UNL     1      23.111   1.141  52.222  1.00  0.00     0.003 C 
HETATM    4  C8  UNL     1      21.813   1.504  51.687  1.00  0.00     0.165 C 
HETATM    5  N2  UNL     1      21.606   2.766  51.083  1.00  0.00    -0.384 N 
HETATM    6  C10 UNL     1      22.142   3.387  49.924  1.00  0.00     0.093 C 
HETATM    7  C11 UNL     1      23.223   4.144  50.061  1.00  0.00    -0.013 C 
HETATM    8  C12 UNL     1      23.903   4.375  51.397  1.00  0.00     0.120 C 
HETATM    9  C13 UNL     1      25.150   3.554  51.107  1.00  0.00     0.107 C 
HETATM   10  N3  UNL     1      25.859   4.216  50.255  1.00  0.00    -0.245 NA
HETATM   11  C14 UNL     1      25.242   4.877  49.097  1.00  0.00     0.143 C 
HETATM   12  C15 UNL     1      23.898   4.782  48.922  1.00  0.00     0.059 C 
HETATM   13 CL1  UNL     1      22.898   5.257  47.593  1.00  0.00    -0.082 Cl
HETATM   14  N4  UNL     1      25.891   2.363  51.350  1.00  0.00    -0.352 N 
HETATM   15  C16 UNL     1      26.968   2.401  52.248  1.00  0.00     0.124 C 
HETATM   16  C17 UNL     1      26.531   1.738  53.290  1.00  0.00     0.095 C 
HETATM   17  H16 UNL     1      21.002   3.592  51.321  1.00  0.00     0.160 HD
HETATM   18  H21 UNL     1      25.661   1.478  50.870  1.00  0.00     0.166 HD
ENDROOT
BRANCH   1  19
HETATM   19  N1  UNL     1      25.702  -0.377  53.917  1.00  0.00     0.102 N 
BRANCH  19  20
HETATM   20  C2  UNL     1      24.800  -1.105  54.757  1.00  0.00     0.269 C 
HETATM   21  C1  UNL     1      25.120  -0.870  56.221  1.00  0.00     0.037 C 
ENDBRANCH  19  20
BRANCH  19  22
HETATM   22  C3  UNL     1      26.054  -0.975  52.689  1.00  0.00     0.269 C 
HETATM   23  C4  UNL     1      27.337  -1.770  52.727  1.00  0.00     0.037 C 
ENDBRANCH  19  22
ENDBRANCH   1  19
BRANCH  16  24
HETATM   24  O2  UNL     1      27.637   1.822  54.106  1.00  0.00    -0.361 OA
HETATM   25  H23 UNL     1      27.549   2.265  55.014  1.00  0.00     0.217 HD
ENDBRANCH  16  24
BRANCH   4  26
HETATM   26  C9  UNL     1      20.796   1.412  52.808  1.00  0.00     0.260 C 
HETATM   27  O1  UNL     1      20.409   0.888  53.832  1.00  0.00    -0.304 OA
ENDBRANCH   4  26
TORSDOF 5
ENDMDL
