MODEL 1
REMARK VINA RESULT:      -9.4      0.000      0.000
REMARK  0 active torsions:
REMARK  status: ('A' for Active; 'I' for Inactive)
ROOT
HETATM    1  O1  UNL     1      25.467   3.292  51.108  1.00  0.00    -0.130 OA
HETATM    2  C1  UNL     1      24.713   3.432  50.158  1.00  0.00     0.431 A 
HETATM    3  C2  UNL     1      23.676   2.941  49.375  1.00  0.00    -0.021 C 
HETATM    4  C3  UNL     1      22.818   2.528  48.750  1.00  0.00    -0.073 C 
HETATM    5  C4  UNL     1      21.766   2.003  48.003  1.00  0.00     0.065 C 
HETATM    6  C5  UNL     1      20.907   1.445  48.784  1.00  0.00     0.025 C 
HETATM    7  C6  UNL     1      20.482   1.096  50.061  1.00  0.00     0.005 A 
HETATM    8 BR1  UNL     1      21.222   2.662  50.791  1.00  0.00    -0.109 Br
HETATM    9  C7  UNL     1      20.225   0.852  51.298  1.00  0.00     0.087 A 
HETATM   10  C8  UNL     1      18.955   0.082  51.263  1.00  0.00    -0.000 A 
HETATM   11  C9  UNL     1      19.087   0.055  52.576  1.00  0.00    -0.002 A 
HETATM   12  C10 UNL     1      20.383   0.829  52.724  1.00  0.00     0.134 A 
HETATM   13  N1  UNL     1      21.427   0.078  53.310  1.00  0.00    -0.364 N 
HETATM   14  C11 UNL     1      22.476  -0.436  54.098  1.00  0.00     0.138 A 
HETATM   15  N2  UNL     1      22.460  -1.276  55.139  1.00  0.00    -0.224 NA
HETATM   16  C12 UNL     1      23.654  -1.648  55.713  1.00  0.00     0.235 A 
HETATM   17  N3  UNL     1      24.914  -1.253  55.340  1.00  0.00    -0.241 NA
HETATM   18  C13 UNL     1      24.984  -0.402  54.291  1.00  0.00     0.072 A 
HETATM   19  C14 UNL     1      26.172   0.082  53.794  1.00  0.00     0.035 A 
HETATM   20  C15 UNL     1      26.226   0.943  52.727  1.00  0.00     0.043 A 
HETATM   21  C16 UNL     1      25.067   1.336  52.142  1.00  0.00     0.172 A 
HETATM   22  C17 UNL     1      23.921   0.766  52.747  1.00  0.00     0.058 A 
HETATM   23  C18 UNL     1      23.758  -0.076  53.774  1.00  0.00     0.041 A 
HETATM   24  N4  UNL     1      24.755   2.274  51.058  1.00  0.00     0.132 N 
HETATM   25  H6  UNL     1      21.485  -0.775  52.674  1.00  0.00     0.162 HD
HETATM   26  H11 UNL     1      24.344   1.312  50.786  1.00  0.00     0.330 HD
ENDROOT
TORSDOF 0
ENDMDL
MODEL 2
REMARK VINA RESULT:      -9.4      2.251      4.825
REMARK  0 active torsions:
REMARK  status: ('A' for Active; 'I' for Inactive)
ROOT
HETATM    1  O1  UNL     1      22.298  -0.802  52.708  1.00  0.00    -0.130 OA
HETATM    2  C1  UNL     1      21.542   0.010  52.201  1.00  0.00     0.431 A 
HETATM    3  C2  UNL     1      21.261   1.326  51.854  1.00  0.00    -0.021 C 
HETATM    4  C3  UNL     1      21.052   2.409  51.569  1.00  0.00    -0.073 C 
HETATM    5  C4  UNL     1      20.820   3.739  51.227  1.00  0.00     0.065 C 
HETATM    6  C5  UNL     1      21.911   4.283  50.810  1.00  0.00     0.025 C 
HETATM    7  C6  UNL     1      23.266   4.198  50.510  1.00  0.00     0.005 A 
HETATM    8 BR1  UNL     1      23.083   2.411  49.955  1.00  0.00    -0.109 Br
HETATM    9  C7  UNL     1      24.509   3.958  50.275  1.00  0.00     0.087 A 
HETATM   10  C8  UNL     1      25.051   5.262  49.812  1.00  0.00    -0.000 A 
HETATM   11  C9  UNL     1      26.193   4.607  49.721  1.00  0.00    -0.002 A 
HETATM   12  C10 UNL     1      25.743   3.233  50.182  1.00  0.00     0.134 A 
HETATM   13  N1  UNL     1      26.394   2.789  51.356  1.00  0.00    -0.364 N 
HETATM   14  C11 UNL     1      27.118   2.101  52.350  1.00  0.00     0.138 A 
HETATM   15  N2  UNL     1      28.405   2.176  52.707  1.00  0.00    -0.224 NA
HETATM   16  C12 UNL     1      28.851   1.403  53.754  1.00  0.00     0.235 A 
HETATM   17  N3  UNL     1      28.116   0.527  54.513  1.00  0.00    -0.241 NA
HETATM   18  C13 UNL     1      26.808   0.414  54.190  1.00  0.00     0.072 A 
HETATM   19  C14 UNL     1      25.938  -0.417  54.858  1.00  0.00     0.035 A 
HETATM   20  C15 UNL     1      24.612  -0.517  54.520  1.00  0.00     0.043 A 
HETATM   21  C16 UNL     1      24.140   0.225  53.487  1.00  0.00     0.172 A 
HETATM   22  C17 UNL     1      25.135   1.036  52.889  1.00  0.00     0.058 A 
HETATM   23  C18 UNL     1      26.437   1.211  53.139  1.00  0.00     0.041 A 
HETATM   24  N4  UNL     1      22.833   0.314  52.826  1.00  0.00     0.132 N 
HETATM   25  H6  UNL     1      26.198   3.579  52.043  1.00  0.00     0.162 HD
HETATM   26  H11 UNL     1      23.093   1.305  53.172  1.00  0.00     0.330 HD
ENDROOT
TORSDOF 0
ENDMDL
MODEL 3
REMARK VINA RESULT:      -9.3      2.569      5.281
REMARK  0 active torsions:
REMARK  status: ('A' for Active; 'I' for Inactive)
ROOT
HETATM    1  O1  UNL     1      26.527   3.082  50.850  1.00  0.00    -0.130 OA
HETATM    2  C1  UNL     1      27.155   2.362  51.609  1.00  0.00     0.431 A 
HETATM    3  C2  UNL     1      27.215   1.641  52.794  1.00  0.00    -0.021 C 
HETATM    4  C3  UNL     1      27.242   1.047  53.766  1.00  0.00    -0.073 C 
HETATM    5  C4  UNL     1      27.251   0.325  54.957  1.00  0.00     0.065 C 
HETATM    6  C5  UNL     1      26.109  -0.245  55.135  1.00  0.00     0.025 C 
HETATM    7  C6  UNL     1      24.815  -0.518  54.706  1.00  0.00     0.005 A 
HETATM    8 BR1  UNL     1      25.355  -0.511  52.906  1.00  0.00    -0.109 Br
HETATM    9  C7  UNL     1      23.654  -0.681  54.174  1.00  0.00     0.087 A 
HETATM   10  C8  UNL     1      22.916  -1.517  55.156  1.00  0.00    -0.000 A 
HETATM   11  C9  UNL     1      21.921  -1.418  54.295  1.00  0.00    -0.002 A 
HETATM   12  C10 UNL     1      22.581  -0.563  53.229  1.00  0.00     0.134 A 
HETATM   13  N1  UNL     1      21.946   0.684  53.030  1.00  0.00    -0.364 N 
HETATM   14  C11 UNL     1      21.294   1.832  52.536  1.00  0.00     0.138 A 
HETATM   15  N2  UNL     1      19.995   2.139  52.462  1.00  0.00    -0.224 NA
HETATM   16  C12 UNL     1      19.628   3.365  51.957  1.00  0.00     0.235 A 
HETATM   17  N3  UNL     1      20.459   4.358  51.499  1.00  0.00    -0.241 NA
HETATM   18  C13 UNL     1      21.785   4.094  51.552  1.00  0.00     0.072 A 
HETATM   19  C14 UNL     1      22.745   4.987  51.136  1.00  0.00     0.035 A 
HETATM   20  C15 UNL     1      24.086   4.706  51.199  1.00  0.00     0.043 A 
HETATM   21  C16 UNL     1      24.483   3.503  51.684  1.00  0.00     0.172 A 
HETATM   22  C17 UNL     1      23.398   2.682  52.078  1.00  0.00     0.058 A 
HETATM   23  C18 UNL     1      22.072   2.857  52.064  1.00  0.00     0.041 A 
HETATM   24  N4  UNL     1      25.792   2.857  51.827  1.00  0.00     0.132 N 
HETATM   25  H6  UNL     1      21.949   1.105  54.008  1.00  0.00     0.162 HD
HETATM   26  H11 UNL     1      25.335   2.889  52.806  1.00  0.00     0.330 HD
ENDROOT
TORSDOF 0
ENDMDL
MODEL 4
REMARK VINA RESULT:      -9.2      2.441      5.669
REMARK  0 active torsions:
REMARK  status: ('A' for Active; 'I' for Inactive)
ROOT
HETATM    1  O1  UNL     1      23.590  -1.265  55.675  1.00  0.00    -0.130 OA
HETATM    2  C1  UNL     1      24.736  -1.071  55.303  1.00  0.00     0.431 A 
HETATM    3  C2  UNL     1      25.617  -0.701  54.295  1.00  0.00    -0.021 C 
HETATM    4  C3  UNL     1      26.323  -0.385  53.459  1.00  0.00    -0.073 C 
HETATM    5  C4  UNL     1      27.167   0.007  52.423  1.00  0.00     0.065 C 
HETATM    6  C5  UNL     1      26.639   0.985  51.771  1.00  0.00     0.025 C 
HETATM    7  C6  UNL     1      25.602   1.891  51.583  1.00  0.00     0.005 A 
HETATM    8 BR1  UNL     1      25.285   1.992  53.433  1.00  0.00    -0.109 Br
HETATM    9  C7  UNL     1      24.572   2.662  51.543  1.00  0.00     0.087 A 
HETATM   10  C8  UNL     1      24.812   3.532  50.363  1.00  0.00    -0.000 A 
HETATM   11  C9  UNL     1      23.647   4.064  50.682  1.00  0.00    -0.002 A 
HETATM   12  C10 UNL     1      23.304   3.229  51.902  1.00  0.00     0.134 A 
HETATM   13  N1  UNL     1      22.121   2.470  51.753  1.00  0.00    -0.364 N 
HETATM   14  C11 UNL     1      20.854   1.862  51.864  1.00  0.00     0.138 A 
HETATM   15  N2  UNL     1      19.671   2.196  51.337  1.00  0.00    -0.224 NA
HETATM   16  C12 UNL     1      18.582   1.394  51.583  1.00  0.00     0.235 A 
HETATM   17  N3  UNL     1      18.549   0.244  52.331  1.00  0.00    -0.241 NA
HETATM   18  C13 UNL     1      19.722  -0.137  52.887  1.00  0.00     0.072 A 
HETATM   19  C14 UNL     1      19.854  -1.268  53.660  1.00  0.00     0.035 A 
HETATM   20  C15 UNL     1      21.052  -1.642  54.215  1.00  0.00     0.043 A 
HETATM   21  C16 UNL     1      22.145  -0.870  53.999  1.00  0.00     0.172 A 
HETATM   22  C17 UNL     1      21.872   0.260  53.188  1.00  0.00     0.058 A 
HETATM   23  C18 UNL     1      20.759   0.710  52.601  1.00  0.00     0.041 A 
HETATM   24  N4  UNL     1      23.530  -0.927  54.481  1.00  0.00     0.132 N 
HETATM   25  H6  UNL     1      22.313   1.911  50.867  1.00  0.00     0.162 HD
HETATM   26  H11 UNL     1      23.559  -0.938  53.400  1.00  0.00     0.330 HD
ENDROOT
TORSDOF 0
ENDMDL
MODEL 5
REMARK VINA RESULT:      -9.0      2.027      3.463
REMARK  0 active torsions:
REMARK  status: ('A' for Active; 'I' for Inactive)
ROOT
HETATM    1  O1  UNL     1      26.791   1.488  54.364  1.00  0.00    -0.130 OA
HETATM    2  C1  UNL     1      27.127   2.121  53.376  1.00  0.00     0.431 A 
HETATM    3  C2  UNL     1      26.912   2.462  52.047  1.00  0.00    -0.021 C 
HETATM    4  C3  UNL     1      26.714   2.737  50.959  1.00  0.00    -0.073 C 
HETATM    5  C4  UNL     1      26.451   3.061  49.630  1.00  0.00     0.065 C 
HETATM    6  C5  UNL     1      25.181   3.181  49.449  1.00  0.00     0.025 C 
HETATM    7  C6  UNL     1      23.882   3.154  49.944  1.00  0.00     0.005 A 
HETATM    8 BR1  UNL     1      24.449   3.820  51.609  1.00  0.00    -0.109 Br
HETATM    9  C7  UNL     1      22.749   3.098  50.552  1.00  0.00     0.087 A 
HETATM   10  C8  UNL     1      21.749   3.357  49.483  1.00  0.00    -0.000 A 
HETATM   11  C9  UNL     1      20.867   3.205  50.453  1.00  0.00    -0.002 A 
HETATM   12  C10 UNL     1      21.802   2.929  51.616  1.00  0.00     0.134 A 
HETATM   13  N1  UNL     1      21.614   1.657  52.202  1.00  0.00    -0.364 N 
HETATM   14  C11 UNL     1      21.389   0.552  53.049  1.00  0.00     0.138 A 
HETATM   15  N2  UNL     1      20.264  -0.104  53.353  1.00  0.00    -0.224 NA
HETATM   16  C12 UNL     1      20.333  -1.189  54.195  1.00  0.00     0.235 A 
HETATM   17  N3  UNL     1      21.455  -1.709  54.791  1.00  0.00    -0.241 NA
HETATM   18  C13 UNL     1      22.620  -1.079  54.514  1.00  0.00     0.072 A 
HETATM   19  C14 UNL     1      23.832  -1.481  55.029  1.00  0.00     0.035 A 
HETATM   20  C15 UNL     1      25.005  -0.833  54.736  1.00  0.00     0.043 A 
HETATM   21  C16 UNL     1      24.972   0.245  53.915  1.00  0.00     0.172 A 
HETATM   22  C17 UNL     1      23.667   0.550  53.455  1.00  0.00     0.058 A 
HETATM   23  C18 UNL     1      22.472  -0.010  53.672  1.00  0.00     0.041 A 
HETATM   24  N4  UNL     1      25.994   1.193  53.456  1.00  0.00     0.132 N 
HETATM   25  H6  UNL     1      21.726   0.999  51.372  1.00  0.00     0.162 HD
HETATM   26  H11 UNL     1      25.543   0.749  52.579  1.00  0.00     0.330 HD
ENDROOT
TORSDOF 0
ENDMDL
MODEL 6
REMARK VINA RESULT:      -8.9      2.422      6.523
REMARK  0 active torsions:
REMARK  status: ('A' for Active; 'I' for Inactive)
ROOT
HETATM    1  O1  UNL     1      21.557  -0.158  53.833  1.00  0.00    -0.130 OA
HETATM    2  C1  UNL     1      22.734  -0.397  54.049  1.00  0.00     0.431 A 
HETATM    3  C2  UNL     1      24.045  -0.449  53.592  1.00  0.00    -0.021 C 
HETATM    4  C3  UNL     1      25.116  -0.475  53.202  1.00  0.00    -0.073 C 
HETATM    5  C4  UNL     1      26.416  -0.497  52.704  1.00  0.00     0.065 C 
HETATM    6  C5  UNL     1      26.616   0.529  51.951  1.00  0.00     0.025 C 
HETATM    7  C6  UNL     1      26.162   1.705  51.365  1.00  0.00     0.005 A 
HETATM    8 BR1  UNL     1      25.091   2.096  52.860  1.00  0.00    -0.109 Br
HETATM    9  C7  UNL     1      25.598   2.768  50.906  1.00  0.00     0.087 A 
HETATM   10  C8  UNL     1      26.633   3.382  50.034  1.00  0.00    -0.000 A 
HETATM   11  C9  UNL     1      25.714   4.302  49.813  1.00  0.00    -0.002 A 
HETATM   12  C10 UNL     1      24.589   3.760  50.674  1.00  0.00     0.134 A 
HETATM   13  N1  UNL     1      23.425   3.429  49.942  1.00  0.00    -0.364 N 
HETATM   14  C11 UNL     1      22.126   3.294  49.412  1.00  0.00     0.138 A 
HETATM   15  N2  UNL     1      21.511   3.949  48.421  1.00  0.00    -0.224 NA
HETATM   16  C12 UNL     1      20.229   3.586  48.079  1.00  0.00     0.235 A 
HETATM   17  N3  UNL     1      19.465   2.596  48.646  1.00  0.00    -0.241 NA
HETATM   18  C13 UNL     1      20.043   1.905  49.655  1.00  0.00     0.072 A 
HETATM   19  C14 UNL     1      19.411   0.881  50.322  1.00  0.00     0.035 A 
HETATM   20  C15 UNL     1      20.012   0.187  51.341  1.00  0.00     0.043 A 
HETATM   21  C16 UNL     1      21.274   0.523  51.710  1.00  0.00     0.172 A 
HETATM   22  C17 UNL     1      21.807   1.589  50.944  1.00  0.00     0.058 A 
HETATM   23  C18 UNL     1      21.316   2.322  49.940  1.00  0.00     0.041 A 
HETATM   24  N4  UNL     1      22.170   0.055  52.773  1.00  0.00     0.132 N 
HETATM   25  H6  UNL     1      23.796   2.750  49.210  1.00  0.00     0.162 HD
HETATM   26  H11 UNL     1      22.684  -0.076  51.831  1.00  0.00     0.330 HD
ENDROOT
TORSDOF 0
ENDMDL
MODEL 7
REMARK VINA RESULT:      -8.6      2.180      5.166
REMARK  0 active torsions:
REMARK  status: ('A' for Active; 'I' for Inactive)
ROOT
HETATM    1  O1  UNL     1      26.875  -0.043  52.263  1.00  0.00    -0.130 OA
HETATM    2  C1  UNL     1      26.315  -0.660  53.155  1.00  0.00     0.431 A 
HETATM    3  C2  UNL     1      25.230  -0.800  54.010  1.00  0.00    -0.021 C 
HETATM    4  C3  UNL     1      24.326  -0.904  54.696  1.00  0.00    -0.073 C 
HETATM    5  C4  UNL     1      23.211  -1.013  55.523  1.00  0.00     0.065 C 
HETATM    6  C5  UNL     1      22.144  -0.719  54.863  1.00  0.00     0.025 C 
HETATM    7  C6  UNL     1      21.521  -0.336  53.681  1.00  0.00     0.005 A 
HETATM    8 BR1  UNL     1      22.775  -1.288  52.653  1.00  0.00    -0.109 Br
HETATM    9  C7  UNL     1      21.097   0.013  52.517  1.00  0.00     0.087 A 
HETATM   10  C8  UNL     1      19.629   0.171  52.695  1.00  0.00    -0.000 A 
HETATM   11  C9  UNL     1      19.642   0.502  51.418  1.00  0.00    -0.002 A 
HETATM   12  C10 UNL     1      21.125   0.373  51.128  1.00  0.00     0.134 A 
HETATM   13  N1  UNL     1      21.730   1.584  50.722  1.00  0.00    -0.364 N 
HETATM   14  C11 UNL     1      22.420   2.625  50.069  1.00  0.00     0.138 A 
HETATM   15  N2  UNL     1      21.988   3.567  49.223  1.00  0.00    -0.224 NA
HETATM   16  C12 UNL     1      22.883   4.500  48.752  1.00  0.00     0.235 A 
HETATM   17  N3  UNL     1      24.220   4.594  49.051  1.00  0.00    -0.241 NA
HETATM   18  C13 UNL     1      24.705   3.662  49.903  1.00  0.00     0.072 A 
HETATM   19  C14 UNL     1      26.021   3.624  50.304  1.00  0.00     0.035 A 
HETATM   20  C15 UNL     1      26.498   2.674  51.171  1.00  0.00     0.043 A 
HETATM   21  C16 UNL     1      25.644   1.734  51.649  1.00  0.00     0.172 A 
HETATM   22  C17 UNL     1      24.323   1.888  51.160  1.00  0.00     0.058 A 
HETATM   23  C18 UNL     1      23.758   2.769  50.327  1.00  0.00     0.041 A 
HETATM   24  N4  UNL     1      25.819   0.562  52.513  1.00  0.00     0.132 N 
HETATM   25  H6  UNL     1      21.485   2.245  51.521  1.00  0.00     0.162 HD
HETATM   26  H11 UNL     1      25.075   1.198  52.972  1.00  0.00     0.330 HD
ENDROOT
TORSDOF 0
ENDMDL
MODEL 8
REMARK VINA RESULT:      -8.4      2.728      5.206
REMARK  0 active torsions:
REMARK  status: ('A' for Active; 'I' for Inactive)
ROOT
HETATM    1  O1  UNL     1      20.125   2.625  51.524  1.00  0.00    -0.130 OA
HETATM    2  C1  UNL     1      20.128   3.795  51.179  1.00  0.00     0.431 A 
HETATM    3  C2  UNL     1      20.808   5.000  51.050  1.00  0.00    -0.021 C 
HETATM    4  C3  UNL     1      21.385   5.977  50.943  1.00  0.00    -0.073 C 
HETATM    5  C4  UNL     1      22.111   7.159  50.820  1.00  0.00     0.065 C 
HETATM    6  C5  UNL     1      23.316   6.898  50.447  1.00  0.00     0.025 C 
HETATM    7  C6  UNL     1      24.297   5.983  50.082  1.00  0.00     0.005 A 
HETATM    8 BR1  UNL     1      23.023   4.865  49.268  1.00  0.00    -0.109 Br
HETATM    9  C7  UNL     1      25.087   5.018  49.762  1.00  0.00     0.087 A 
HETATM   10  C8  UNL     1      26.385   5.687  49.483  1.00  0.00    -0.000 A 
HETATM   11  C9  UNL     1      26.816   4.463  49.246  1.00  0.00    -0.002 A 
HETATM   12  C10 UNL     1      25.542   3.682  49.509  1.00  0.00     0.134 A 
HETATM   13  N1  UNL     1      25.654   2.758  50.573  1.00  0.00    -0.364 N 
HETATM   14  C11 UNL     1      25.673   1.631  51.419  1.00  0.00     0.138 A 
HETATM   15  N2  UNL     1      26.662   0.785  51.731  1.00  0.00    -0.224 NA
HETATM   16  C12 UNL     1      26.413  -0.228  52.628  1.00  0.00     0.235 A 
HETATM   17  N3  UNL     1      25.231  -0.496  53.272  1.00  0.00    -0.241 NA
HETATM   18  C13 UNL     1      24.199   0.332  52.990  1.00  0.00     0.072 A 
HETATM   19  C14 UNL     1      22.952   0.199  53.557  1.00  0.00     0.035 A 
HETATM   20  C15 UNL     1      21.917   1.049  53.262  1.00  0.00     0.043 A 
HETATM   21  C16 UNL     1      22.125   2.055  52.376  1.00  0.00     0.172 A 
HETATM   22  C17 UNL     1      23.448   2.080  51.870  1.00  0.00     0.058 A 
HETATM   23  C18 UNL     1      24.521   1.313  52.090  1.00  0.00     0.041 A 
HETATM   24  N4  UNL     1      21.251   3.077  51.791  1.00  0.00     0.132 N 
HETATM   25  H6  UNL     1      25.978   3.372  51.381  1.00  0.00     0.162 HD
HETATM   26  H11 UNL     1      22.074   3.587  52.273  1.00  0.00     0.330 HD
ENDROOT
TORSDOF 0
ENDMDL
MODEL 9
REMARK VINA RESULT:      -8.1      2.029      4.972
REMARK  0 active torsions:
REMARK  status: ('A' for Active; 'I' for Inactive)
ROOT
HETATM    1  O1  UNL     1      25.322  -1.053  53.786  1.00  0.00    -0.130 OA
HETATM    2  C1  UNL     1      24.191  -1.207  54.218  1.00  0.00     0.431 A 
HETATM    3  C2  UNL     1      22.910  -0.708  54.414  1.00  0.00    -0.021 C 
HETATM    4  C3  UNL     1      21.862  -0.285  54.558  1.00  0.00    -0.073 C 
HETATM    5  C4  UNL     1      20.587   0.251  54.720  1.00  0.00     0.065 C 
HETATM    6  C5  UNL     1      20.246   0.903  53.661  1.00  0.00     0.025 C 
HETATM    7  C6  UNL     1      20.527   1.353  52.376  1.00  0.00     0.005 A 
HETATM    8 BR1  UNL     1      21.505  -0.206  51.990  1.00  0.00    -0.109 Br
HETATM    9  C7  UNL     1      20.932   1.685  51.200  1.00  0.00     0.087 A 
HETATM   10  C8  UNL     1      19.829   2.522  50.659  1.00  0.00    -0.000 A 
HETATM   11  C9  UNL     1      20.603   2.621  49.594  1.00  0.00    -0.002 A 
HETATM   12  C10 UNL     1      21.784   1.785  50.051  1.00  0.00     0.134 A 
HETATM   13  N1  UNL     1      22.995   2.511  50.128  1.00  0.00    -0.364 N 
HETATM   14  C11 UNL     1      24.307   3.012  50.013  1.00  0.00     0.138 A 
HETATM   15  N2  UNL     1      24.831   3.913  49.176  1.00  0.00    -0.224 NA
HETATM   16  C12 UNL     1      26.158   4.252  49.307  1.00  0.00     0.235 A 
HETATM   17  N3  UNL     1      27.053   3.764  50.226  1.00  0.00    -0.241 NA
HETATM   18  C13 UNL     1      26.571   2.848  51.097  1.00  0.00     0.072 A 
HETATM   19  C14 UNL     1      27.340   2.269  52.081  1.00  0.00     0.035 A 
HETATM   20  C15 UNL     1      26.835   1.344  52.958  1.00  0.00     0.043 A 
HETATM   21  C16 UNL     1      25.532   0.981  52.853  1.00  0.00     0.172 A 
HETATM   22  C17 UNL     1      24.856   1.651  51.804  1.00  0.00     0.058 A 
HETATM   23  C18 UNL     1      25.246   2.561  50.904  1.00  0.00     0.041 A 
HETATM   24  N4  UNL     1      24.700  -0.002  53.556  1.00  0.00     0.132 N 
HETATM   25  H6  UNL     1      22.741   3.318  50.774  1.00  0.00     0.162 HD
HETATM   26  H11 UNL     1      24.226   0.964  53.662  1.00  0.00     0.330 HD
ENDROOT
TORSDOF 0
ENDMDL
