MODEL 1
REMARK VINA RESULT:      -7.7      0.000      0.000
REMARK  7 active torsions:
REMARK  status: ('A' for Active; 'I' for Inactive)
REMARK    1  A    between atoms: C7_7  and  C8_8 
REMARK    2  A    between atoms: C8_8  and  C9_9 
REMARK    3  A    between atoms: C9_9  and  N1_10 
REMARK    4  A    between atoms: C9_9  and  C10_11 
REMARK    5  A    between atoms: C10_11  and  C11_12 
REMARK    6  A    between atoms: C11_12  and  C12_13 
REMARK    7  A    between atoms: C12_13  and  S1_14 
ROOT
HETATM    1  C10 UNL     1      24.426   2.862  50.779  1.00  0.00     0.028 C 
ENDROOT
BRANCH   1   2
HETATM    2  C9  UNL     1      25.864   2.504  50.994  1.00  0.00     0.078 C 
BRANCH   2   3
HETATM    3  C8  UNL     1      25.940   2.147  52.490  1.00  0.00     0.063 C 
BRANCH   3   4
HETATM    4  C7  UNL     1      26.817   1.025  52.776  1.00  0.00    -0.050 A 
HETATM    5  C2  UNL     1      28.085   1.207  53.290  1.00  0.00    -0.056 A 
HETATM    6  C1  UNL     1      28.687   2.487  53.671  1.00  0.00     0.049 C 
HETATM    7  C3  UNL     1      28.858   0.078  53.494  1.00  0.00     0.007 A 
HETATM    8  C4  UNL     1      28.450  -1.217  53.220  1.00  0.00     0.001 A 
HETATM    9  C5  UNL     1      27.181  -1.401  52.706  1.00  0.00     0.001 A 
HETATM   10  C6  UNL     1      26.401  -0.259  52.499  1.00  0.00     0.007 A 
ENDBRANCH   3   4
ENDBRANCH   2   3
BRANCH   2  11
HETATM   11  N1  UNL     1      26.774   3.563  50.739  1.00  0.00    -0.426 N 
HETATM   12  H11 UNL     1      26.791   4.308  51.466  1.00  0.00     0.150 HD
HETATM   13  H12 UNL     1      26.843   3.906  49.779  1.00  0.00     0.150 HD
ENDBRANCH   2  11
ENDBRANCH   1   2
BRANCH   1  14
HETATM   14  C11 UNL     1      23.492   2.680  51.901  1.00  0.00     0.049 C 
BRANCH  14  15
HETATM   15  C12 UNL     1      22.349   1.754  51.719  1.00  0.00     0.106 A 
HETATM   16  N2  UNL     1      21.159   2.218  52.439  1.00  0.00    -0.367 N 
HETATM   17  C13 UNL     1      21.141   1.117  53.351  1.00  0.00     0.039 A 
HETATM   18  H18 UNL     1      20.503   3.022  52.391  1.00  0.00     0.161 HD
HETATM   19  C14 UNL     1      20.689   0.345  54.398  1.00  0.00     0.030 A 
HETATM   20  C18 UNL     1      22.263   0.641  52.705  1.00  0.00     0.006 A 
HETATM   21  C15 UNL     1      21.356  -0.826  54.737  1.00  0.00     0.002 A 
HETATM   22  C16 UNL     1      22.471  -1.255  54.058  1.00  0.00     0.001 A 
HETATM   23  C17 UNL     1      22.947  -0.516  53.015  1.00  0.00     0.013 A 
BRANCH  15  24
HETATM   24  S1  UNL     1      21.938   1.300  50.039  1.00  0.00    -0.146 SA
HETATM   25  H17 UNL     1      20.804   2.021  49.629  1.00  0.00     0.104 HD
ENDBRANCH  15  24
ENDBRANCH  14  15
ENDBRANCH   1  14
TORSDOF 7
ENDMDL
MODEL 2
REMARK VINA RESULT:      -7.3      3.016      5.973
REMARK  7 active torsions:
REMARK  status: ('A' for Active; 'I' for Inactive)
REMARK    1  A    between atoms: C7_7  and  C8_8 
REMARK    2  A    between atoms: C8_8  and  C9_9 
REMARK    3  A    between atoms: C9_9  and  N1_10 
REMARK    4  A    between atoms: C9_9  and  C10_11 
REMARK    5  A    between atoms: C10_11  and  C11_12 
REMARK    6  A    between atoms: C11_12  and  C12_13 
REMARK    7  A    between atoms: C12_13  and  S1_14 
ROOT
HETATM    1  C10 UNL     1      25.762   1.124  51.752  1.00  0.00     0.028 C 
ENDROOT
BRANCH   1   2
HETATM    2  C9  UNL     1      26.224   2.525  51.500  1.00  0.00     0.078 C 
BRANCH   2   3
HETATM    3  C8  UNL     1      26.362   2.603  49.968  1.00  0.00     0.063 C 
BRANCH   3   4
HETATM    4  C7  UNL     1      26.303   3.958  49.447  1.00  0.00    -0.050 A 
HETATM    5  C2  UNL     1      25.110   4.646  49.347  1.00  0.00    -0.056 A 
HETATM    6  C1  UNL     1      23.799   4.170  49.789  1.00  0.00     0.049 C 
HETATM    7  C3  UNL     1      25.153   5.919  48.804  1.00  0.00     0.007 A 
HETATM    8  C4  UNL     1      26.303   6.546  48.357  1.00  0.00     0.001 A 
HETATM    9  C5  UNL     1      27.498   5.859  48.457  1.00  0.00     0.001 A 
HETATM   10  C6  UNL     1      27.454   4.573  49.005  1.00  0.00     0.007 A 
ENDBRANCH   3   4
ENDBRANCH   2   3
BRANCH   2  11
HETATM   11  N1  UNL     1      27.482   2.839  52.079  1.00  0.00    -0.426 N 
HETATM   12  H11 UNL     1      27.557   3.803  52.464  1.00  0.00     0.150 HD
HETATM   13  H12 UNL     1      28.320   2.510  51.595  1.00  0.00     0.150 HD
ENDBRANCH   2  11
ENDBRANCH   1   2
BRANCH   1  14
HETATM   14  C11 UNL     1      24.984   0.861  52.973  1.00  0.00     0.049 C 
BRANCH  14  15
HETATM   15  C12 UNL     1      25.625   0.084  54.060  1.00  0.00     0.106 A 
HETATM   16  N2  UNL     1      26.430   0.942  54.935  1.00  0.00    -0.367 N 
HETATM   17  C13 UNL     1      27.675   0.341  54.572  1.00  0.00     0.039 A 
HETATM   18  H18 UNL     1      26.264   1.721  55.603  1.00  0.00     0.161 HD
HETATM   19  C14 UNL     1      29.037   0.140  54.582  1.00  0.00     0.030 A 
HETATM   20  C18 UNL     1      26.961  -0.491  53.734  1.00  0.00     0.006 A 
HETATM   21  C15 UNL     1      29.601  -0.847  53.783  1.00  0.00     0.002 A 
HETATM   22  C16 UNL     1      28.842  -1.648  52.965  1.00  0.00     0.001 A 
HETATM   23  C17 UNL     1      27.489  -1.478  52.930  1.00  0.00     0.013 A 
BRANCH  15  24
HETATM   24  S1  UNL     1      24.564  -0.986  55.021  1.00  0.00    -0.146 SA
HETATM   25  H17 UNL     1      25.147  -1.208  56.280  1.00  0.00     0.104 HD
ENDBRANCH  15  24
ENDBRANCH  14  15
ENDBRANCH   1  14
TORSDOF 7
ENDMDL
MODEL 3
REMARK VINA RESULT:      -7.3      3.031      5.935
REMARK  7 active torsions:
REMARK  status: ('A' for Active; 'I' for Inactive)
REMARK    1  A    between atoms: C7_7  and  C8_8 
REMARK    2  A    between atoms: C8_8  and  C9_9 
REMARK    3  A    between atoms: C9_9  and  N1_10 
REMARK    4  A    between atoms: C9_9  and  C10_11 
REMARK    5  A    between atoms: C10_11  and  C11_12 
REMARK    6  A    between atoms: C11_12  and  C12_13 
REMARK    7  A    between atoms: C12_13  and  S1_14 
ROOT
HETATM    1  C10 UNL     1      25.930   1.150  51.645  1.00  0.00     0.028 C 
ENDROOT
BRANCH   1   2
HETATM    2  C9  UNL     1      26.344   2.584  51.518  1.00  0.00     0.078 C 
BRANCH   2   3
HETATM    3  C8  UNL     1      26.479   2.800  50.000  1.00  0.00     0.063 C 
BRANCH   3   4
HETATM    4  C7  UNL     1      25.858   4.027  49.531  1.00  0.00    -0.050 A 
HETATM    5  C2  UNL     1      26.592   5.027  48.925  1.00  0.00    -0.056 A 
HETATM    6  C1  UNL     1      28.022   4.981  48.616  1.00  0.00     0.049 C 
HETATM    7  C3  UNL     1      25.915   6.173  48.545  1.00  0.00     0.007 A 
HETATM    8  C4  UNL     1      24.560   6.385  48.730  1.00  0.00     0.001 A 
HETATM    9  C5  UNL     1      23.824   5.385  49.335  1.00  0.00     0.001 A 
HETATM   10  C6  UNL     1      24.508   4.228  49.719  1.00  0.00     0.007 A 
ENDBRANCH   3   4
ENDBRANCH   2   3
BRANCH   2  11
HETATM   11  N1  UNL     1      27.589   2.888  52.128  1.00  0.00    -0.426 N 
HETATM   12  H11 UNL     1      27.519   3.331  53.068  1.00  0.00     0.150 HD
HETATM   13  H12 UNL     1      28.325   3.275  51.532  1.00  0.00     0.150 HD
ENDBRANCH   2  11
ENDBRANCH   1   2
BRANCH   1  14
HETATM   14  C11 UNL     1      25.062   0.778  52.773  1.00  0.00     0.049 C 
BRANCH  14  15
HETATM   15  C12 UNL     1      25.669   0.058  53.918  1.00  0.00     0.106 A 
HETATM   16  N2  UNL     1      26.436   0.964  54.778  1.00  0.00    -0.367 N 
HETATM   17  C13 UNL     1      27.697   0.355  54.489  1.00  0.00     0.039 A 
HETATM   18  H18 UNL     1      26.243   1.772  55.402  1.00  0.00     0.161 HD
HETATM   19  C14 UNL     1      29.060   0.166  54.557  1.00  0.00     0.030 A 
HETATM   20  C18 UNL     1      27.018  -0.521  53.668  1.00  0.00     0.006 A 
HETATM   21  C15 UNL     1      29.658  -0.853  53.826  1.00  0.00     0.002 A 
HETATM   22  C16 UNL     1      28.933  -1.699  53.022  1.00  0.00     0.001 A 
HETATM   23  C17 UNL     1      27.581  -1.542  52.930  1.00  0.00     0.013 A 
BRANCH  15  24
HETATM   24  S1  UNL     1      24.580  -0.973  54.892  1.00  0.00    -0.146 SA
HETATM   25  H17 UNL     1      25.070  -2.290  54.894  1.00  0.00     0.104 HD
ENDBRANCH  15  24
ENDBRANCH  14  15
ENDBRANCH   1  14
TORSDOF 7
ENDMDL
MODEL 4
REMARK VINA RESULT:      -7.3      0.967      1.804
REMARK  7 active torsions:
REMARK  status: ('A' for Active; 'I' for Inactive)
REMARK    1  A    between atoms: C7_7  and  C8_8 
REMARK    2  A    between atoms: C8_8  and  C9_9 
REMARK    3  A    between atoms: C9_9  and  N1_10 
REMARK    4  A    between atoms: C9_9  and  C10_11 
REMARK    5  A    between atoms: C10_11  and  C11_12 
REMARK    6  A    between atoms: C11_12  and  C12_13 
REMARK    7  A    between atoms: C12_13  and  S1_14 
ROOT
HETATM    1  C10 UNL     1      24.116   2.799  51.026  1.00  0.00     0.028 C 
ENDROOT
BRANCH   1   2
HETATM    2  C9  UNL     1      25.280   2.761  51.967  1.00  0.00     0.078 C 
BRANCH   2   3
HETATM    3  C8  UNL     1      25.876   1.356  51.766  1.00  0.00     0.063 C 
BRANCH   3   4
HETATM    4  C7  UNL     1      27.063   1.109  52.567  1.00  0.00    -0.050 A 
HETATM    5  C2  UNL     1      27.429  -0.166  52.950  1.00  0.00    -0.056 A 
HETATM    6  C1  UNL     1      26.752  -1.408  52.572  1.00  0.00     0.049 C 
HETATM    7  C3  UNL     1      28.556  -0.294  53.742  1.00  0.00     0.007 A 
HETATM    8  C4  UNL     1      29.340   0.762  54.175  1.00  0.00     0.001 A 
HETATM    9  C5  UNL     1      28.976   2.039  53.792  1.00  0.00     0.001 A 
HETATM   10  C6  UNL     1      27.836   2.168  52.992  1.00  0.00     0.007 A 
ENDBRANCH   3   4
ENDBRANCH   2   3
BRANCH   2  11
HETATM   11  N1  UNL     1      24.930   2.909  53.335  1.00  0.00    -0.426 N 
HETATM   12  H11 UNL     1      23.962   3.254  53.503  1.00  0.00     0.150 HD
HETATM   13  H12 UNL     1      25.634   3.301  53.963  1.00  0.00     0.150 HD
ENDBRANCH   2  11
ENDBRANCH   1   2
BRANCH   1  14
HETATM   14  C11 UNL     1      22.766   2.914  51.599  1.00  0.00     0.049 C 
BRANCH  14  15
HETATM   15  C12 UNL     1      21.879   1.727  51.549  1.00  0.00     0.106 A 
HETATM   16  N2  UNL     1      20.625   1.960  52.272  1.00  0.00    -0.367 N 
HETATM   17  C13 UNL     1      20.892   0.982  53.281  1.00  0.00     0.039 A 
HETATM   18  H18 UNL     1      19.792   2.574  52.179  1.00  0.00     0.161 HD
HETATM   19  C14 UNL     1      20.661   0.230  54.411  1.00  0.00     0.030 A 
HETATM   20  C18 UNL     1      22.084   0.728  52.635  1.00  0.00     0.006 A 
HETATM   21  C15 UNL     1      21.599  -0.707  54.827  1.00  0.00     0.002 A 
HETATM   22  C16 UNL     1      22.772  -0.920  54.145  1.00  0.00     0.001 A 
HETATM   23  C17 UNL     1      23.035  -0.194  53.021  1.00  0.00     0.013 A 
BRANCH  15  24
HETATM   24  S1  UNL     1      21.561   1.025  49.935  1.00  0.00    -0.146 SA
HETATM   25  H17 UNL     1      21.495   2.059  48.986  1.00  0.00     0.104 HD
ENDBRANCH  15  24
ENDBRANCH  14  15
ENDBRANCH   1  14
TORSDOF 7
ENDMDL
MODEL 5
REMARK VINA RESULT:      -7.2      2.372      6.537
REMARK  7 active torsions:
REMARK  status: ('A' for Active; 'I' for Inactive)
REMARK    1  A    between atoms: C7_7  and  C8_8 
REMARK    2  A    between atoms: C8_8  and  C9_9 
REMARK    3  A    between atoms: C9_9  and  N1_10 
REMARK    4  A    between atoms: C9_9  and  C10_11 
REMARK    5  A    between atoms: C10_11  and  C11_12 
REMARK    6  A    between atoms: C11_12  and  C12_13 
REMARK    7  A    between atoms: C12_13  and  S1_14 
ROOT
HETATM    1  C10 UNL     1      24.401   1.859  53.084  1.00  0.00     0.028 C 
ENDROOT
BRANCH   1   2
HETATM    2  C9  UNL     1      23.008   2.010  52.555  1.00  0.00     0.078 C 
BRANCH   2   3
HETATM    3  C8  UNL     1      22.645   0.601  52.052  1.00  0.00     0.063 C 
BRANCH   3   4
HETATM    4  C7  UNL     1      21.233   0.284  52.182  1.00  0.00    -0.050 A 
HETATM    5  C2  UNL     1      20.717  -0.278  53.332  1.00  0.00    -0.056 A 
HETATM    6  C1  UNL     1      21.459  -0.564  54.561  1.00  0.00     0.049 C 
HETATM    7  C3  UNL     1      19.366  -0.577  53.344  1.00  0.00     0.007 A 
HETATM    8  C4  UNL     1      18.499  -0.352  52.288  1.00  0.00     0.001 A 
HETATM    9  C5  UNL     1      19.014   0.211  51.137  1.00  0.00     0.001 A 
HETATM   10  C6  UNL     1      20.379   0.512  51.124  1.00  0.00     0.007 A 
ENDBRANCH   3   4
ENDBRANCH   2   3
BRANCH   2  11
HETATM   11  N1  UNL     1      22.891   2.917  51.469  1.00  0.00    -0.426 N 
HETATM   12  H11 UNL     1      22.381   3.798  51.689  1.00  0.00     0.150 HD
HETATM   13  H12 UNL     1      22.684   2.527  50.547  1.00  0.00     0.150 HD
ENDBRANCH   2  11
ENDBRANCH   1   2
BRANCH   1  14
HETATM   14  C11 UNL     1      25.054   0.548  52.948  1.00  0.00     0.049 C 
BRANCH  14  15
HETATM   15  C12 UNL     1      25.849   0.038  54.090  1.00  0.00     0.106 A 
HETATM   16  N2  UNL     1      26.627   1.107  54.724  1.00  0.00    -0.367 N 
HETATM   17  C13 UNL     1      27.896   0.556  54.360  1.00  0.00     0.039 A 
HETATM   18  H18 UNL     1      26.436   1.977  55.259  1.00  0.00     0.161 HD
HETATM   19  C14 UNL     1      29.268   0.476  54.281  1.00  0.00     0.030 A 
HETATM   20  C18 UNL     1      27.207  -0.471  53.749  1.00  0.00     0.006 A 
HETATM   21  C15 UNL     1      29.866  -0.589  53.618  1.00  0.00     0.002 A 
HETATM   22  C16 UNL     1      29.130  -1.587  53.026  1.00  0.00     0.001 A 
HETATM   23  C17 UNL     1      27.769  -1.541  53.085  1.00  0.00     0.013 A 
BRANCH  15  24
HETATM   24  S1  UNL     1      24.974  -0.924  55.317  1.00  0.00    -0.146 SA
HETATM   25  H17 UNL     1      23.667  -1.173  54.864  1.00  0.00     0.104 HD
ENDBRANCH  15  24
ENDBRANCH  14  15
ENDBRANCH   1  14
TORSDOF 7
ENDMDL
MODEL 6
REMARK VINA RESULT:      -7.1      2.377      6.458
REMARK  7 active torsions:
REMARK  status: ('A' for Active; 'I' for Inactive)
REMARK    1  A    between atoms: C7_7  and  C8_8 
REMARK    2  A    between atoms: C8_8  and  C9_9 
REMARK    3  A    between atoms: C9_9  and  N1_10 
REMARK    4  A    between atoms: C9_9  and  C10_11 
REMARK    5  A    between atoms: C10_11  and  C11_12 
REMARK    6  A    between atoms: C11_12  and  C12_13 
REMARK    7  A    between atoms: C12_13  and  S1_14 
ROOT
HETATM    1  C10 UNL     1      24.361   2.033  53.014  1.00  0.00     0.028 C 
ENDROOT
BRANCH   1   2
HETATM    2  C9  UNL     1      23.068   2.288  52.302  1.00  0.00     0.078 C 
BRANCH   2   3
HETATM    3  C8  UNL     1      22.739   0.942  51.632  1.00  0.00     0.063 C 
BRANCH   3   4
HETATM    4  C7  UNL     1      21.380   0.489  51.874  1.00  0.00    -0.050 A 
HETATM    5  C2  UNL     1      20.389   0.625  50.923  1.00  0.00    -0.056 A 
HETATM    6  C1  UNL     1      20.558   1.155  49.569  1.00  0.00     0.049 C 
HETATM    7  C3  UNL     1      19.117   0.197  51.263  1.00  0.00     0.007 A 
HETATM    8  C4  UNL     1      18.772  -0.357  52.485  1.00  0.00     0.001 A 
HETATM    9  C5  UNL     1      19.764  -0.494  53.437  1.00  0.00     0.001 A 
HETATM   10  C6  UNL     1      21.048  -0.060  53.094  1.00  0.00     0.007 A 
ENDBRANCH   3   4
ENDBRANCH   2   3
BRANCH   2  11
HETATM   11  N1  UNL     1      23.144   3.285  51.294  1.00  0.00    -0.426 N 
HETATM   12  H11 UNL     1      23.648   2.994  50.430  1.00  0.00     0.150 HD
HETATM   13  H12 UNL     1      23.332   4.244  51.591  1.00  0.00     0.150 HD
ENDBRANCH   2  11
ENDBRANCH   1   2
BRANCH   1  14
HETATM   14  C11 UNL     1      25.032   0.743  52.787  1.00  0.00     0.049 C 
BRANCH  14  15
HETATM   15  C12 UNL     1      25.681   0.077  53.941  1.00  0.00     0.106 A 
HETATM   16  N2  UNL     1      26.455   1.027  54.746  1.00  0.00    -0.367 N 
HETATM   17  C13 UNL     1      27.718   0.428  54.447  1.00  0.00     0.039 A 
HETATM   18  H18 UNL     1      26.264   1.856  55.344  1.00  0.00     0.161 HD
HETATM   19  C14 UNL     1      29.085   0.262  54.486  1.00  0.00     0.030 A 
HETATM   20  C18 UNL     1      27.033  -0.489  53.678  1.00  0.00     0.006 A 
HETATM   21  C15 UNL     1      29.680  -0.775  53.779  1.00  0.00     0.002 A 
HETATM   22  C16 UNL     1      28.949  -1.661  53.027  1.00  0.00     0.001 A 
HETATM   23  C17 UNL     1      27.593  -1.529  52.965  1.00  0.00     0.013 A 
BRANCH  15  24
HETATM   24  S1  UNL     1      24.635  -0.933  54.982  1.00  0.00    -0.146 SA
HETATM   25  H17 UNL     1      24.257  -0.193  56.115  1.00  0.00     0.104 HD
ENDBRANCH  15  24
ENDBRANCH  14  15
ENDBRANCH   1  14
TORSDOF 7
ENDMDL
MODEL 7
REMARK VINA RESULT:      -7.1      1.638      5.961
REMARK  7 active torsions:
REMARK  status: ('A' for Active; 'I' for Inactive)
REMARK    1  A    between atoms: C7_7  and  C8_8 
REMARK    2  A    between atoms: C8_8  and  C9_9 
REMARK    3  A    between atoms: C9_9  and  N1_10 
REMARK    4  A    between atoms: C9_9  and  C10_11 
REMARK    5  A    between atoms: C10_11  and  C11_12 
REMARK    6  A    between atoms: C11_12  and  C12_13 
REMARK    7  A    between atoms: C12_13  and  S1_14 
ROOT
HETATM    1  C10 UNL     1      24.053   3.327  52.475  1.00  0.00     0.028 C 
ENDROOT
BRANCH   1   2
HETATM    2  C9  UNL     1      22.632   2.857  52.508  1.00  0.00     0.078 C 
BRANCH   2   3
HETATM    3  C8  UNL     1      22.692   1.444  51.901  1.00  0.00     0.063 C 
BRANCH   3   4
HETATM    4  C7  UNL     1      22.115   0.419  52.754  1.00  0.00    -0.050 A 
HETATM    5  C2  UNL     1      20.792   0.041  52.643  1.00  0.00    -0.056 A 
HETATM    6  C1  UNL     1      19.833   0.538  51.654  1.00  0.00     0.049 C 
HETATM    7  C3  UNL     1      20.327  -0.917  53.526  1.00  0.00     0.007 A 
HETATM    8  C4  UNL     1      21.092  -1.521  54.509  1.00  0.00     0.001 A 
HETATM    9  C5  UNL     1      22.416  -1.144  54.622  1.00  0.00     0.001 A 
HETATM   10  C6  UNL     1      22.886  -0.175  53.729  1.00  0.00     0.007 A 
ENDBRANCH   3   4
ENDBRANCH   2   3
BRANCH   2  11
HETATM   11  N1  UNL     1      21.739   3.641  51.731  1.00  0.00    -0.426 N 
HETATM   12  H11 UNL     1      22.200   4.301  51.071  1.00  0.00     0.150 HD
HETATM   13  H12 UNL     1      20.912   4.018  52.199  1.00  0.00     0.150 HD
ENDBRANCH   2  11
ENDBRANCH   1   2
BRANCH   1  14
HETATM   14  C11 UNL     1      25.080   2.470  53.088  1.00  0.00     0.049 C 
BRANCH  14  15
HETATM   15  C12 UNL     1      26.194   1.992  52.235  1.00  0.00     0.106 A 
HETATM   16  N2  UNL     1      26.131   0.542  52.028  1.00  0.00    -0.367 N 
HETATM   17  C13 UNL     1      27.342   0.271  52.738  1.00  0.00     0.039 A 
HETATM   18  H18 UNL     1      25.496  -0.136  51.562  1.00  0.00     0.161 HD
HETATM   19  C14 UNL     1      28.356  -0.493  53.271  1.00  0.00     0.030 A 
HETATM   20  C18 UNL     1      27.445   1.629  52.959  1.00  0.00     0.006 A 
HETATM   21  C15 UNL     1      29.388   0.115  53.975  1.00  0.00     0.002 A 
HETATM   22  C16 UNL     1      29.442   1.475  54.166  1.00  0.00     0.001 A 
HETATM   23  C17 UNL     1      28.455   2.263  53.652  1.00  0.00     0.013 A 
BRANCH  15  24
HETATM   24  S1  UNL     1      26.447   2.845  50.684  1.00  0.00    -0.146 SA
HETATM   25  H17 UNL     1      26.779   1.909  49.690  1.00  0.00     0.104 HD
ENDBRANCH  15  24
ENDBRANCH  14  15
ENDBRANCH   1  14
TORSDOF 7
ENDMDL
MODEL 8
REMARK VINA RESULT:      -7.1      3.652      6.607
REMARK  7 active torsions:
REMARK  status: ('A' for Active; 'I' for Inactive)
REMARK    1  A    between atoms: C7_7  and  C8_8 
REMARK    2  A    between atoms: C8_8  and  C9_9 
REMARK    3  A    between atoms: C9_9  and  N1_10 
REMARK    4  A    between atoms: C9_9  and  C10_11 
REMARK    5  A    between atoms: C10_11  and  C11_12 
REMARK    6  A    between atoms: C11_12  and  C12_13 
REMARK    7  A    between atoms: C12_13  and  S1_14 
ROOT
HETATM    1  C10 UNL     1      25.262   3.041  50.240  1.00  0.00     0.028 C 
ENDROOT
BRANCH   1   2
HETATM    2  C9  UNL     1      25.321   4.485  49.848  1.00  0.00     0.078 C 
BRANCH   2   3
HETATM    3  C8  UNL     1      26.759   4.673  49.333  1.00  0.00     0.063 C 
BRANCH   3   4
HETATM    4  C7  UNL     1      26.935   5.866  48.523  1.00  0.00    -0.050 A 
HETATM    5  C2  UNL     1      28.180   6.274  48.090  1.00  0.00    -0.056 A 
HETATM    6  C1  UNL     1      29.444   5.569  48.312  1.00  0.00     0.049 C 
HETATM    7  C3  UNL     1      28.248   7.444  47.354  1.00  0.00     0.007 A 
HETATM    8  C4  UNL     1      27.157   8.230  47.022  1.00  0.00     0.001 A 
HETATM    9  C5  UNL     1      25.909   7.823  47.453  1.00  0.00     0.001 A 
HETATM   10  C6  UNL     1      25.842   6.641  48.198  1.00  0.00     0.007 A 
ENDBRANCH   3   4
ENDBRANCH   2   3
BRANCH   2  11
HETATM   11  N1  UNL     1      25.107   5.390  50.921  1.00  0.00    -0.426 N 
HETATM   12  H11 UNL     1      24.868   4.941  51.830  1.00  0.00     0.150 HD
HETATM   13  H12 UNL     1      24.583   6.244  50.721  1.00  0.00     0.150 HD
ENDBRANCH   2  11
ENDBRANCH   1   2
BRANCH   1  14
HETATM   14  C11 UNL     1      26.479   2.422  50.787  1.00  0.00     0.049 C 
BRANCH  14  15
HETATM   15  C12 UNL     1      26.517   2.110  52.236  1.00  0.00     0.106 A 
HETATM   16  N2  UNL     1      27.681   2.718  52.888  1.00  0.00    -0.367 N 
HETATM   17  C13 UNL     1      28.300   1.468  53.205  1.00  0.00     0.039 A 
HETATM   18  H18 UNL     1      28.027   3.675  53.095  1.00  0.00     0.161 HD
HETATM   19  C14 UNL     1      29.257   0.620  53.716  1.00  0.00     0.030 A 
HETATM   20  C18 UNL     1      27.224   0.851  52.601  1.00  0.00     0.006 A 
HETATM   21  C15 UNL     1      29.099  -0.756  53.603  1.00  0.00     0.002 A 
HETATM   22  C16 UNL     1      28.006  -1.318  52.991  1.00  0.00     0.001 A 
HETATM   23  C17 UNL     1      27.038  -0.510  52.474  1.00  0.00     0.013 A 
BRANCH  15  24
HETATM   24  S1  UNL     1      25.026   2.431  53.169  1.00  0.00    -0.146 SA
HETATM   25  H17 UNL     1      23.910   2.075  52.395  1.00  0.00     0.104 HD
ENDBRANCH  15  24
ENDBRANCH  14  15
ENDBRANCH   1  14
TORSDOF 7
ENDMDL
MODEL 9
REMARK VINA RESULT:      -6.9      2.077      2.892
REMARK  7 active torsions:
REMARK  status: ('A' for Active; 'I' for Inactive)
REMARK    1  A    between atoms: C7_7  and  C8_8 
REMARK    2  A    between atoms: C8_8  and  C9_9 
REMARK    3  A    between atoms: C9_9  and  N1_10 
REMARK    4  A    between atoms: C9_9  and  C10_11 
REMARK    5  A    between atoms: C10_11  and  C11_12 
REMARK    6  A    between atoms: C11_12  and  C12_13 
REMARK    7  A    between atoms: C12_13  and  S1_14 
ROOT
HETATM    1  C10 UNL     1      24.506   2.210  53.088  1.00  0.00     0.028 C 
ENDROOT
BRANCH   1   2
HETATM    2  C9  UNL     1      24.993   0.838  53.442  1.00  0.00     0.078 C 
BRANCH   2   3
HETATM    3  C8  UNL     1      25.966   0.482  52.304  1.00  0.00     0.063 C 
BRANCH   3   4
HETATM    4  C7  UNL     1      27.287   0.095  52.769  1.00  0.00    -0.050 A 
HETATM    5  C2  UNL     1      27.685  -1.226  52.808  1.00  0.00    -0.056 A 
HETATM    6  C1  UNL     1      26.906  -2.376  52.346  1.00  0.00     0.049 C 
HETATM    7  C3  UNL     1      28.950  -1.496  53.301  1.00  0.00     0.007 A 
HETATM    8  C4  UNL     1      29.839  -0.538  53.757  1.00  0.00     0.001 A 
HETATM    9  C5  UNL     1      29.443   0.785  53.718  1.00  0.00     0.001 A 
HETATM   10  C6  UNL     1      28.164   1.057  53.220  1.00  0.00     0.007 A 
ENDBRANCH   3   4
ENDBRANCH   2   3
BRANCH   2  11
HETATM   11  N1  UNL     1      23.974  -0.150  53.486  1.00  0.00    -0.426 N 
HETATM   12  H11 UNL     1      24.315  -1.131  53.417  1.00  0.00     0.150 HD
HETATM   13  H12 UNL     1      23.113   0.036  52.968  1.00  0.00     0.150 HD
ENDBRANCH   2  11
ENDBRANCH   1   2
BRANCH   1  14
HETATM   14  C11 UNL     1      24.570   2.623  51.678  1.00  0.00     0.049 C 
BRANCH  14  15
HETATM   15  C12 UNL     1      23.309   3.011  51.003  1.00  0.00     0.106 A 
HETATM   16  N2  UNL     1      22.490   3.883  51.851  1.00  0.00    -0.367 N 
HETATM   17  C13 UNL     1      21.428   2.937  51.997  1.00  0.00     0.039 A 
HETATM   18  H18 UNL     1      22.557   4.839  52.254  1.00  0.00     0.161 HD
HETATM   19  C14 UNL     1      20.219   2.445  52.434  1.00  0.00     0.030 A 
HETATM   20  C18 UNL     1      22.163   2.081  51.203  1.00  0.00     0.006 A 
HETATM   21  C15 UNL     1      19.815   1.167  52.069  1.00  0.00     0.002 A 
HETATM   22  C16 UNL     1      20.587   0.355  51.274  1.00  0.00     0.001 A 
HETATM   23  C17 UNL     1      21.791   0.808  50.823  1.00  0.00     0.013 A 
BRANCH  15  24
HETATM   24  S1  UNL     1      23.450   3.682  49.351  1.00  0.00    -0.146 SA
HETATM   25  H17 UNL     1      22.392   4.577  49.123  1.00  0.00     0.104 HD
ENDBRANCH  15  24
ENDBRANCH  14  15
ENDBRANCH   1  14
TORSDOF 7
ENDMDL
