MODEL 1
REMARK VINA RESULT:      -8.6      0.000      0.000
REMARK  5 active torsions:
REMARK  status: ('A' for Active; 'I' for Inactive)
REMARK    1  A    between atoms: O1_2  and  C2_3 
REMARK    2  A    between atoms: C4_6  and  C5_7 
REMARK    3  A    between atoms: C5_7  and  C6_8 
REMARK    4  A    between atoms: C6_8  and  N1_9 
REMARK    5  A    between atoms: C17_22  and  C18_23 
ROOT
HETATM    1  C2  UNL     1      26.175   3.481  50.286  1.00  0.00     0.120 A 
HETATM    2  O2  UNL     1      25.010   3.370  49.953  1.00  0.00     0.000 OA
HETATM    3  C3  UNL     1      24.998   2.942  50.986  1.00  0.00     0.193 A 
HETATM    4  C4  UNL     1      23.980   3.062  50.171  1.00  0.00     0.139 A 
HETATM    5  O3  UNL     1      23.056   2.489  51.095  1.00  0.00    -0.369 OA
HETATM    6  C9  UNL     1      22.941   1.077  51.020  1.00  0.00     0.208 C 
HETATM    7  C10 UNL     1      22.359   0.525  52.282  1.00  0.00    -0.021 A 
HETATM    8  C11 UNL     1      21.009   0.449  52.553  1.00  0.00     0.010 A 
HETATM    9  C12 UNL     1      20.594  -0.074  53.759  1.00  0.00     0.001 A 
HETATM   10  C13 UNL     1      21.444  -0.539  54.739  1.00  0.00     0.001 A 
HETATM   11  C14 UNL     1      22.816  -0.458  54.456  1.00  0.00     0.015 A 
HETATM   12  C15 UNL     1      23.263   0.066  53.244  1.00  0.00     0.009 A 
HETATM   13  C16 UNL     1      24.722   0.132  52.983  1.00  0.00     0.120 A 
HETATM   14  O4  UNL     1      25.440  -0.949  53.156  1.00  0.00    -0.302 OA
HETATM   15  C17 UNL     1      26.707  -0.749  52.888  1.00  0.00     0.141 A 
HETATM   16  C19 UNL     1      26.768   0.583  52.518  1.00  0.00     0.082 A 
HETATM   17  C20 UNL     1      25.517   1.165  52.570  1.00  0.00     0.108 A 
HETATM   18  O6  UNL     1      25.221   2.461  52.270  1.00  0.00    -0.323 OA
ENDROOT
BRANCH   4  19
HETATM   19  C5  UNL     1      23.042   3.315  49.076  1.00  0.00     0.075 C 
BRANCH  19  20
HETATM   20  C6  UNL     1      21.881   4.228  49.373  1.00  0.00     0.274 C 
BRANCH  20  21
HETATM   21  N1  UNL     1      20.624   3.601  49.012  1.00  0.00     0.080 N 
HETATM   22  C7  UNL     1      20.758   2.480  48.132  1.00  0.00     0.309 C 
HETATM   23  C8  UNL     1      19.778   3.343  50.150  1.00  0.00     0.309 C 
ENDBRANCH  20  21
ENDBRANCH  19  20
ENDBRANCH   4  19
BRANCH   1  24
HETATM   24  O1  UNL     1      27.283   3.977  49.651  1.00  0.00    -0.354 OA
HETATM   25  C1  UNL     1      27.355   4.982  48.686  1.00  0.00     0.209 C 
ENDBRANCH   1  24
BRANCH  15  26
HETATM   26  C18 UNL     1      27.854  -1.672  52.946  1.00  0.00     0.275 C 
HETATM   27  O5  UNL     1      27.762  -2.879  52.689  1.00  0.00    -0.272 OA
HETATM   28 CL1  UNL     1      29.383  -0.908  53.412  1.00  0.00    -0.036 Cl
ENDBRANCH  15  26
TORSDOF 5
ENDMDL
MODEL 2
REMARK VINA RESULT:      -8.4      1.923      5.023
REMARK  5 active torsions:
REMARK  status: ('A' for Active; 'I' for Inactive)
REMARK    1  A    between atoms: O1_2  and  C2_3 
REMARK    2  A    between atoms: C4_6  and  C5_7 
REMARK    3  A    between atoms: C5_7  and  C6_8 
REMARK    4  A    between atoms: C6_8  and  N1_9 
REMARK    5  A    between atoms: C17_22  and  C18_23 
ROOT
HETATM    1  C2  UNL     1      23.150  -0.101  53.356  1.00  0.00     0.120 A 
HETATM    2  O2  UNL     1      22.578   0.926  53.041  1.00  0.00     0.000 OA
HETATM    3  C3  UNL     1      23.480   0.950  52.381  1.00  0.00     0.193 A 
HETATM    4  C4  UNL     1      22.519   1.840  52.437  1.00  0.00     0.139 A 
HETATM    5  O3  UNL     1      23.102   2.667  51.432  1.00  0.00    -0.369 OA
HETATM    6  C9  UNL     1      24.017   3.636  51.919  1.00  0.00     0.208 C 
HETATM    7  C10 UNL     1      24.916   4.113  50.824  1.00  0.00    -0.021 A 
HETATM    8  C11 UNL     1      24.598   5.113  49.931  1.00  0.00     0.010 A 
HETATM    9  C12 UNL     1      25.510   5.461  48.957  1.00  0.00     0.001 A 
HETATM   10  C13 UNL     1      26.746   4.871  48.803  1.00  0.00     0.001 A 
HETATM   11  C14 UNL     1      27.063   3.854  49.716  1.00  0.00     0.015 A 
HETATM   12  C15 UNL     1      26.159   3.483  50.711  1.00  0.00     0.009 A 
HETATM   13  C16 UNL     1      26.533   2.404  51.658  1.00  0.00     0.120 A 
HETATM   14  O4  UNL     1      27.685   2.483  52.275  1.00  0.00    -0.302 OA
HETATM   15  C17 UNL     1      27.885   1.468  53.080  1.00  0.00     0.141 A 
HETATM   16  C19 UNL     1      26.746   0.694  52.938  1.00  0.00     0.082 A 
HETATM   17  C20 UNL     1      25.871   1.270  52.038  1.00  0.00     0.108 A 
HETATM   18  O6  UNL     1      24.658   0.772  51.667  1.00  0.00    -0.323 OA
ENDROOT
BRANCH   4  19
HETATM   19  C5  UNL     1      21.331   2.652  52.707  1.00  0.00     0.075 C 
BRANCH  19  20
HETATM   20  C6  UNL     1      20.027   2.160  52.135  1.00  0.00     0.274 C 
BRANCH  20  21
HETATM   21  N1  UNL     1      19.599   2.995  51.030  1.00  0.00     0.080 N 
HETATM   22  C7  UNL     1      20.028   4.357  51.122  1.00  0.00     0.309 C 
HETATM   23  C8  UNL     1      19.852   2.396  49.743  1.00  0.00     0.309 C 
ENDBRANCH  20  21
ENDBRANCH  19  20
ENDBRANCH   4  19
BRANCH   1  24
HETATM   24  O1  UNL     1      22.863  -1.090  54.260  1.00  0.00    -0.354 OA
HETATM   25  C1  UNL     1      21.621  -1.637  54.584  1.00  0.00     0.209 C 
ENDBRANCH   1  24
BRANCH  15  26
HETATM   26  C18 UNL     1      29.025   1.153  53.959  1.00  0.00     0.275 C 
HETATM   27  O5  UNL     1      29.417   1.913  54.853  1.00  0.00    -0.272 OA
HETATM   28 CL1  UNL     1      29.792  -0.410  53.628  1.00  0.00    -0.036 Cl
ENDBRANCH  15  26
TORSDOF 5
ENDMDL
MODEL 3
REMARK VINA RESULT:      -7.9      3.465      6.152
REMARK  5 active torsions:
REMARK  status: ('A' for Active; 'I' for Inactive)
REMARK    1  A    between atoms: O1_2  and  C2_3 
REMARK    2  A    between atoms: C4_6  and  C5_7 
REMARK    3  A    between atoms: C5_7  and  C6_8 
REMARK    4  A    between atoms: C6_8  and  N1_9 
REMARK    5  A    between atoms: C17_22  and  C18_23 
ROOT
HETATM    1  C2  UNL     1      26.672   3.484  49.985  1.00  0.00     0.120 A 
HETATM    2  O2  UNL     1      26.827   2.740  50.935  1.00  0.00     0.000 OA
HETATM    3  C3  UNL     1      25.762   2.542  50.655  1.00  0.00     0.193 A 
HETATM    4  C4  UNL     1      26.437   1.987  51.631  1.00  0.00     0.139 A 
HETATM    5  O3  UNL     1      25.341   1.177  52.051  1.00  0.00    -0.369 OA
HETATM    6  C9  UNL     1      24.482   1.787  53.001  1.00  0.00     0.208 C 
HETATM    7  C10 UNL     1      23.150   1.109  53.024  1.00  0.00    -0.021 A 
HETATM    8  C11 UNL     1      22.863  -0.028  53.749  1.00  0.00     0.010 A 
HETATM    9  C12 UNL     1      21.595  -0.566  53.682  1.00  0.00     0.001 A 
HETATM   10  C13 UNL     1      20.567  -0.042  52.928  1.00  0.00     0.001 A 
HETATM   11  C14 UNL     1      20.867   1.115  52.193  1.00  0.00     0.015 A 
HETATM   12  C15 UNL     1      22.141   1.679  52.243  1.00  0.00     0.009 A 
HETATM   13  C16 UNL     1      22.416   2.904  51.453  1.00  0.00     0.120 A 
HETATM   14  O4  UNL     1      21.603   3.923  51.569  1.00  0.00    -0.302 OA
HETATM   15  C17 UNL     1      21.966   4.934  50.819  1.00  0.00     0.141 A 
HETATM   16  C19 UNL     1      23.110   4.489  50.181  1.00  0.00     0.082 A 
HETATM   17  C20 UNL     1      23.417   3.199  50.569  1.00  0.00     0.108 A 
HETATM   18  O6  UNL     1      24.477   2.461  50.134  1.00  0.00    -0.323 OA
ENDROOT
BRANCH   4  19
HETATM   19  C5  UNL     1      27.415   1.538  52.624  1.00  0.00     0.075 C 
BRANCH  19  20
HETATM   20  C6  UNL     1      27.590   0.050  52.780  1.00  0.00     0.274 C 
BRANCH  20  21
HETATM   21  N1  UNL     1      28.514  -0.253  53.856  1.00  0.00     0.080 N 
HETATM   22  C7  UNL     1      29.580  -1.134  53.485  1.00  0.00     0.309 C 
HETATM   23  C8  UNL     1      28.958   0.923  54.562  1.00  0.00     0.309 C 
ENDBRANCH  20  21
ENDBRANCH  19  20
ENDBRANCH   4  19
BRANCH   1  24
HETATM   24  O1  UNL     1      27.503   4.368  49.347  1.00  0.00    -0.354 OA
HETATM   25  C1  UNL     1      27.164   5.520  48.635  1.00  0.00     0.209 C 
ENDBRANCH   1  24
BRANCH  15  26
HETATM   26  C18 UNL     1      21.352   6.262  50.641  1.00  0.00     0.275 C 
HETATM   27  O5  UNL     1      21.819   7.294  51.140  1.00  0.00    -0.272 OA
HETATM   28 CL1  UNL     1      19.884   6.260  49.648  1.00  0.00    -0.036 Cl
ENDBRANCH  15  26
TORSDOF 5
ENDMDL
MODEL 4
REMARK VINA RESULT:      -7.8      3.304      7.436
REMARK  5 active torsions:
REMARK  status: ('A' for Active; 'I' for Inactive)
REMARK    1  A    between atoms: O1_2  and  C2_3 
REMARK    2  A    between atoms: C4_6  and  C5_7 
REMARK    3  A    between atoms: C5_7  and  C6_8 
REMARK    4  A    between atoms: C6_8  and  N1_9 
REMARK    5  A    between atoms: C17_22  and  C18_23 
ROOT
HETATM    1  C2  UNL     1      23.977   0.554  53.284  1.00  0.00     0.120 A 
HETATM    2  O2  UNL     1      25.130   0.650  52.906  1.00  0.00     0.000 OA
HETATM    3  C3  UNL     1      24.680   1.601  52.526  1.00  0.00     0.193 A 
HETATM    4  C4  UNL     1      25.921   1.206  52.388  1.00  0.00     0.139 A 
HETATM    5  O3  UNL     1      26.308   2.371  51.661  1.00  0.00    -0.369 OA
HETATM    6  C9  UNL     1      26.130   2.281  50.257  1.00  0.00     0.208 C 
HETATM    7  C10 UNL     1      26.091   3.641  49.639  1.00  0.00    -0.021 A 
HETATM    8  C11 UNL     1      27.205   4.369  49.279  1.00  0.00     0.010 A 
HETATM    9  C12 UNL     1      27.040   5.621  48.723  1.00  0.00     0.001 A 
HETATM   10  C13 UNL     1      25.817   6.215  48.494  1.00  0.00     0.001 A 
HETATM   11  C14 UNL     1      24.689   5.468  48.863  1.00  0.00     0.015 A 
HETATM   12  C15 UNL     1      24.827   4.201  49.427  1.00  0.00     0.009 A 
HETATM   13  C16 UNL     1      23.608   3.443  49.802  1.00  0.00     0.120 A 
HETATM   14  O4  UNL     1      22.658   3.303  48.912  1.00  0.00    -0.302 OA
HETATM   15  C17 UNL     1      21.644   2.613  49.376  1.00  0.00     0.141 A 
HETATM   16  C19 UNL     1      22.011   2.303  50.674  1.00  0.00     0.082 A 
HETATM   17  C20 UNL     1      23.257   2.820  50.968  1.00  0.00     0.108 A 
HETATM   18  O6  UNL     1      23.917   2.701  52.154  1.00  0.00    -0.323 OA
ENDROOT
BRANCH   4  19
HETATM   19  C5  UNL     1      27.218   0.526  52.387  1.00  0.00     0.075 C 
BRANCH  19  20
HETATM   20  C6  UNL     1      27.527  -0.349  53.574  1.00  0.00     0.274 C 
BRANCH  20  21
HETATM   21  N1  UNL     1      28.840  -0.048  54.111  1.00  0.00     0.080 N 
HETATM   22  C7  UNL     1      29.899  -0.825  53.542  1.00  0.00     0.309 C 
HETATM   23  C8  UNL     1      29.120   1.366  54.151  1.00  0.00     0.309 C 
ENDBRANCH  20  21
ENDBRANCH  19  20
ENDBRANCH   4  19
BRANCH   1  24
HETATM   24  O1  UNL     1      23.303  -0.410  53.986  1.00  0.00    -0.354 OA
HETATM   25  C1  UNL     1      21.965  -0.419  54.384  1.00  0.00     0.209 C 
ENDBRANCH   1  24
BRANCH  15  26
HETATM   26  C18 UNL     1      20.379   2.220  48.730  1.00  0.00     0.275 C 
HETATM   27  O5  UNL     1      20.058   2.591  47.594  1.00  0.00    -0.272 OA
HETATM   28 CL1  UNL     1      19.353   1.166  49.718  1.00  0.00    -0.036 Cl
ENDBRANCH  15  26
TORSDOF 5
ENDMDL
MODEL 5
REMARK VINA RESULT:      -7.8      3.062      5.187
REMARK  5 active torsions:
REMARK  status: ('A' for Active; 'I' for Inactive)
REMARK    1  A    between atoms: O1_2  and  C2_3 
REMARK    2  A    between atoms: C4_6  and  C5_7 
REMARK    3  A    between atoms: C5_7  and  C6_8 
REMARK    4  A    between atoms: C6_8  and  N1_9 
REMARK    5  A    between atoms: C17_22  and  C18_23 
ROOT
HETATM    1  C2  UNL     1      21.294   3.602  50.806  1.00  0.00     0.120 A 
HETATM    2  O2  UNL     1      22.280   4.219  51.165  1.00  0.00     0.000 OA
HETATM    3  C3  UNL     1      22.669   3.172  51.108  1.00  0.00     0.193 A 
HETATM    4  C4  UNL     1      23.339   4.244  51.451  1.00  0.00     0.139 A 
HETATM    5  O3  UNL     1      24.554   3.529  51.662  1.00  0.00    -0.369 OA
HETATM    6  C9  UNL     1      24.720   3.013  52.973  1.00  0.00     0.208 C 
HETATM    7  C10 UNL     1      25.730   1.911  52.986  1.00  0.00    -0.021 A 
HETATM    8  C11 UNL     1      27.092   2.100  53.073  1.00  0.00     0.010 A 
HETATM    9  C12 UNL     1      27.925   1.001  53.068  1.00  0.00     0.001 A 
HETATM   10  C13 UNL     1      27.490  -0.304  52.981  1.00  0.00     0.001 A 
HETATM   11  C14 UNL     1      26.102  -0.488  52.893  1.00  0.00     0.015 A 
HETATM   12  C15 UNL     1      25.237   0.606  52.896  1.00  0.00     0.009 A 
HETATM   13  C16 UNL     1      23.776   0.368  52.804  1.00  0.00     0.120 A 
HETATM   14  O4  UNL     1      23.226  -0.486  53.628  1.00  0.00    -0.302 OA
HETATM   15  C17 UNL     1      21.934  -0.596  53.437  1.00  0.00     0.141 A 
HETATM   16  C19 UNL     1      21.671   0.274  52.393  1.00  0.00     0.082 A 
HETATM   17  C20 UNL     1      22.828   0.900  51.973  1.00  0.00     0.108 A 
HETATM   18  O6  UNL     1      22.927   1.814  50.968  1.00  0.00    -0.323 OA
ENDROOT
BRANCH   4  19
HETATM   19  C5  UNL     1      23.829   5.582  51.786  1.00  0.00     0.075 C 
BRANCH  19  20
HETATM   20  C6  UNL     1      24.532   6.342  50.691  1.00  0.00     0.274 C 
BRANCH  20  21
HETATM   21  N1  UNL     1      24.052   7.708  50.619  1.00  0.00     0.080 N 
HETATM   22  C7  UNL     1      24.878   8.581  49.840  1.00  0.00     0.309 C 
HETATM   23  C8  UNL     1      22.651   7.795  50.291  1.00  0.00     0.309 C 
ENDBRANCH  20  21
ENDBRANCH  19  20
ENDBRANCH   4  19
BRANCH   1  24
HETATM   24  O1  UNL     1      20.008   3.980  50.522  1.00  0.00    -0.354 OA
HETATM   25  C1  UNL     1      19.557   5.185  49.982  1.00  0.00     0.209 C 
ENDBRANCH   1  24
BRANCH  15  26
HETATM   26  C18 UNL     1      20.932  -1.428  54.127  1.00  0.00     0.275 C 
HETATM   27  O5  UNL     1      21.221  -2.219  55.034  1.00  0.00    -0.272 OA
HETATM   28 CL1  UNL     1      19.272  -1.198  53.551  1.00  0.00    -0.036 Cl
ENDBRANCH  15  26
TORSDOF 5
ENDMDL
MODEL 6
REMARK VINA RESULT:      -7.6      3.460      6.088
REMARK  5 active torsions:
REMARK  status: ('A' for Active; 'I' for Inactive)
REMARK    1  A    between atoms: O1_2  and  C2_3 
REMARK    2  A    between atoms: C4_6  and  C5_7 
REMARK    3  A    between atoms: C5_7  and  C6_8 
REMARK    4  A    between atoms: C6_8  and  N1_9 
REMARK    5  A    between atoms: C17_22  and  C18_23 
ROOT
HETATM    1  C2  UNL     1      24.500   3.247  49.862  1.00  0.00     0.120 A 
HETATM    2  O2  UNL     1      25.065   2.751  50.819  1.00  0.00     0.000 OA
HETATM    3  C3  UNL     1      24.127   2.145  50.764  1.00  0.00     0.193 A 
HETATM    4  C4  UNL     1      25.100   2.015  51.632  1.00  0.00     0.139 A 
HETATM    5  O3  UNL     1      24.470   0.932  52.313  1.00  0.00    -0.369 OA
HETATM    6  C9  UNL     1      23.595   1.319  53.361  1.00  0.00     0.208 C 
HETATM    7  C10 UNL     1      22.641   0.216  53.689  1.00  0.00    -0.021 A 
HETATM    8  C11 UNL     1      22.919  -0.833  54.539  1.00  0.00     0.010 A 
HETATM    9  C12 UNL     1      21.956  -1.796  54.757  1.00  0.00     0.001 A 
HETATM   10  C13 UNL     1      20.706  -1.791  54.175  1.00  0.00     0.001 A 
HETATM   11  C14 UNL     1      20.431  -0.721  53.311  1.00  0.00     0.015 A 
HETATM   12  C15 UNL     1      21.386   0.266  53.074  1.00  0.00     0.009 A 
HETATM   13  C16 UNL     1      21.054   1.383  52.155  1.00  0.00     0.120 A 
HETATM   14  O4  UNL     1      19.941   2.044  52.348  1.00  0.00    -0.302 OA
HETATM   15  C17 UNL     1      19.776   3.001  51.467  1.00  0.00     0.141 A 
HETATM   16  C19 UNL     1      20.896   2.914  50.659  1.00  0.00     0.082 A 
HETATM   17  C20 UNL     1      21.724   1.891  51.077  1.00  0.00     0.108 A 
HETATM   18  O6  UNL     1      22.907   1.532  50.505  1.00  0.00    -0.323 OA
ENDROOT
BRANCH   4  19
HETATM   19  C5  UNL     1      26.310   2.095  52.451  1.00  0.00     0.075 C 
BRANCH  19  20
HETATM   20  C6  UNL     1      27.091   0.820  52.635  1.00  0.00     0.274 C 
BRANCH  20  21
HETATM   21  N1  UNL     1      28.359   1.080  53.290  1.00  0.00     0.080 N 
HETATM   22  C7  UNL     1      28.581   2.456  53.615  1.00  0.00     0.309 C 
HETATM   23  C8  UNL     1      28.620   0.180  54.385  1.00  0.00     0.309 C 
ENDBRANCH  20  21
ENDBRANCH  19  20
ENDBRANCH   4  19
BRANCH   1  24
HETATM   24  O1  UNL     1      24.826   4.271  49.012  1.00  0.00    -0.354 OA
HETATM   25  C1  UNL     1      24.353   5.584  49.012  1.00  0.00     0.209 C 
ENDBRANCH   1  24
BRANCH  15  26
HETATM   26  C18 UNL     1      18.684   3.978  51.310  1.00  0.00     0.275 C 
HETATM   27  O5  UNL     1      17.660   3.963  52.004  1.00  0.00    -0.272 OA
HETATM   28 CL1  UNL     1      18.960   5.183  50.040  1.00  0.00    -0.036 Cl
ENDBRANCH  15  26
TORSDOF 5
ENDMDL
MODEL 7
REMARK VINA RESULT:      -7.5      2.745      5.573
REMARK  5 active torsions:
REMARK  status: ('A' for Active; 'I' for Inactive)
REMARK    1  A    between atoms: O1_2  and  C2_3 
REMARK    2  A    between atoms: C4_6  and  C5_7 
REMARK    3  A    between atoms: C5_7  and  C6_8 
REMARK    4  A    between atoms: C6_8  and  N1_9 
REMARK    5  A    between atoms: C17_22  and  C18_23 
ROOT
HETATM    1  C2  UNL     1      21.153   3.525  51.917  1.00  0.00     0.120 A 
HETATM    2  O2  UNL     1      21.244   2.326  52.102  1.00  0.00     0.000 OA
HETATM    3  C3  UNL     1      22.268   2.682  52.375  1.00  0.00     0.193 A 
HETATM    4  C4  UNL     1      21.829   1.447  52.401  1.00  0.00     0.139 A 
HETATM    5  O3  UNL     1      23.071   0.919  52.862  1.00  0.00    -0.369 OA
HETATM    6  C9  UNL     1      23.984   0.565  51.835  1.00  0.00     0.208 C 
HETATM    7  C10 UNL     1      25.378   0.486  52.368  1.00  0.00    -0.021 A 
HETATM    8  C11 UNL     1      25.916  -0.620  52.990  1.00  0.00     0.010 A 
HETATM    9  C12 UNL     1      27.216  -0.568  53.448  1.00  0.00     0.001 A 
HETATM   10  C13 UNL     1      28.040   0.531  53.328  1.00  0.00     0.001 A 
HETATM   11  C14 UNL     1      27.484   1.652  52.694  1.00  0.00     0.015 A 
HETATM   12  C15 UNL     1      26.173   1.627  52.222  1.00  0.00     0.009 A 
HETATM   13  C16 UNL     1      25.625   2.833  51.554  1.00  0.00     0.120 A 
HETATM   14  O4  UNL     1      26.311   3.380  50.583  1.00  0.00    -0.302 OA
HETATM   15  C17 UNL     1      25.710   4.433  50.085  1.00  0.00     0.141 A 
HETATM   16  C19 UNL     1      24.546   4.540  50.825  1.00  0.00     0.082 A 
HETATM   17  C20 UNL     1      24.469   3.533  51.767  1.00  0.00     0.108 A 
HETATM   18  O6  UNL     1      23.457   3.343  52.659  1.00  0.00    -0.323 OA
ENDROOT
BRANCH   4  19
HETATM   19  C5  UNL     1      21.084   0.189  52.337  1.00  0.00     0.075 C 
BRANCH  19  20
HETATM   20  C6  UNL     1      20.122  -0.089  53.463  1.00  0.00     0.274 C 
BRANCH  20  21
HETATM   21  N1  UNL     1      18.788  -0.339  52.954  1.00  0.00     0.080 N 
HETATM   22  C7  UNL     1      18.639  -0.096  51.551  1.00  0.00     0.309 C 
HETATM   23  C8  UNL     1      18.253  -1.608  53.379  1.00  0.00     0.309 C 
ENDBRANCH  20  21
ENDBRANCH  19  20
ENDBRANCH   4  19
BRANCH   1  24
HETATM   24  O1  UNL     1      20.128   4.328  51.490  1.00  0.00    -0.354 OA
HETATM   25  C1  UNL     1      19.195   4.084  50.481  1.00  0.00     0.209 C 
ENDBRANCH   1  24
BRANCH  15  26
HETATM   26  C18 UNL     1      26.116   5.340  48.996  1.00  0.00     0.275 C 
HETATM   27  O5  UNL     1      25.338   6.138  48.458  1.00  0.00    -0.272 OA
HETATM   28 CL1  UNL     1      27.817   5.194  48.521  1.00  0.00    -0.036 Cl
ENDBRANCH  15  26
TORSDOF 5
ENDMDL
MODEL 8
REMARK VINA RESULT:      -7.5      1.714      2.208
REMARK  5 active torsions:
REMARK  status: ('A' for Active; 'I' for Inactive)
REMARK    1  A    between atoms: O1_2  and  C2_3 
REMARK    2  A    between atoms: C4_6  and  C5_7 
REMARK    3  A    between atoms: C5_7  and  C6_8 
REMARK    4  A    between atoms: C6_8  and  N1_9 
REMARK    5  A    between atoms: C17_22  and  C18_23 
ROOT
HETATM    1  C2  UNL     1      24.161   4.239  50.819  1.00  0.00     0.120 A 
HETATM    2  O2  UNL     1      23.138   3.959  50.223  1.00  0.00     0.000 OA
HETATM    3  C3  UNL     1      22.998   3.419  51.193  1.00  0.00     0.193 A 
HETATM    4  C4  UNL     1      22.168   3.448  50.179  1.00  0.00     0.139 A 
HETATM    5  O3  UNL     1      21.207   2.614  50.824  1.00  0.00    -0.369 OA
HETATM    6  C9  UNL     1      21.397   1.223  50.621  1.00  0.00     0.208 C 
HETATM    7  C10 UNL     1      20.688   0.432  51.673  1.00  0.00    -0.021 A 
HETATM    8  C11 UNL     1      19.356   0.083  51.625  1.00  0.00     0.010 A 
HETATM    9  C12 UNL     1      18.812  -0.644  52.663  1.00  0.00     0.001 A 
HETATM   10  C13 UNL     1      19.516  -1.060  53.773  1.00  0.00     0.001 A 
HETATM   11  C14 UNL     1      20.872  -0.700  53.815  1.00  0.00     0.015 A 
HETATM   12  C15 UNL     1      21.446   0.034  52.779  1.00  0.00     0.009 A 
HETATM   13  C16 UNL     1      22.884   0.391  52.860  1.00  0.00     0.120 A 
HETATM   14  O4  UNL     1      23.753  -0.555  53.111  1.00  0.00    -0.302 OA
HETATM   15  C17 UNL     1      24.981  -0.101  53.153  1.00  0.00     0.141 A 
HETATM   16  C19 UNL     1      24.849   1.255  52.906  1.00  0.00     0.082 A 
HETATM   17  C20 UNL     1      23.523   1.592  52.717  1.00  0.00     0.108 A 
HETATM   18  O6  UNL     1      23.041   2.839  52.454  1.00  0.00    -0.323 OA
ENDROOT
BRANCH   4  19
HETATM   19  C5  UNL     1      21.447   3.654  48.922  1.00  0.00     0.075 C 
BRANCH  19  20
HETATM   20  C6  UNL     1      22.283   3.836  47.681  1.00  0.00     0.274 C 
BRANCH  20  21
HETATM   21  N1  UNL     1      21.482   4.354  46.589  1.00  0.00     0.080 N 
HETATM   22  C7  UNL     1      21.831   3.827  45.304  1.00  0.00     0.309 C 
HETATM   23  C8  UNL     1      20.068   4.316  46.863  1.00  0.00     0.309 C 
ENDBRANCH  20  21
ENDBRANCH  19  20
ENDBRANCH   4  19
BRANCH   1  24
HETATM   24  O1  UNL     1      25.254   4.997  50.491  1.00  0.00    -0.354 OA
HETATM   25  C1  UNL     1      26.187   4.783  49.475  1.00  0.00     0.209 C 
ENDBRANCH   1  24
BRANCH  15  26
HETATM   26  C18 UNL     1      26.253  -0.803  53.399  1.00  0.00     0.275 C 
HETATM   27  O5  UNL     1      26.985  -0.553  54.365  1.00  0.00    -0.272 OA
HETATM   28 CL1  UNL     1      26.648  -2.041  52.195  1.00  0.00    -0.036 Cl
ENDBRANCH  15  26
TORSDOF 5
ENDMDL
MODEL 9
REMARK VINA RESULT:      -7.2      3.311      5.409
REMARK  5 active torsions:
REMARK  status: ('A' for Active; 'I' for Inactive)
REMARK    1  A    between atoms: O1_2  and  C2_3 
REMARK    2  A    between atoms: C4_6  and  C5_7 
REMARK    3  A    between atoms: C5_7  and  C6_8 
REMARK    4  A    between atoms: C6_8  and  N1_9 
REMARK    5  A    between atoms: C17_22  and  C18_23 
ROOT
HETATM    1  C2  UNL     1      21.683   4.048  49.033  1.00  0.00     0.120 A 
HETATM    2  O2  UNL     1      22.518   4.601  49.724  1.00  0.00     0.000 OA
HETATM    3  C3  UNL     1      22.717   3.522  49.937  1.00  0.00     0.193 A 
HETATM    4  C4  UNL     1      23.351   4.555  50.436  1.00  0.00     0.139 A 
HETATM    5  O3  UNL     1      24.234   3.752  51.217  1.00  0.00    -0.369 OA
HETATM    6  C9  UNL     1      23.754   3.430  52.513  1.00  0.00     0.208 C 
HETATM    7  C10 UNL     1      24.470   2.240  53.063  1.00  0.00    -0.021 A 
HETATM    8  C11 UNL     1      25.685   2.289  53.713  1.00  0.00     0.010 A 
HETATM    9  C12 UNL     1      26.251   1.118  54.171  1.00  0.00     0.001 A 
HETATM   10  C13 UNL     1      25.683  -0.129  54.026  1.00  0.00     0.001 A 
HETATM   11  C14 UNL     1      24.447  -0.171  53.363  1.00  0.00     0.015 A 
HETATM   12  C15 UNL     1      23.852   0.997  52.890  1.00  0.00     0.009 A 
HETATM   13  C16 UNL     1      22.543   0.910  52.198  1.00  0.00     0.120 A 
HETATM   14  O4  UNL     1      21.568   0.259  52.779  1.00  0.00    -0.302 OA
HETATM   15  C17 UNL     1      20.473   0.262  52.058  1.00  0.00     0.141 A 
HETATM   16  C19 UNL     1      20.814   0.984  50.928  1.00  0.00     0.082 A 
HETATM   17  C20 UNL     1      22.127   1.407  50.994  1.00  0.00     0.108 A 
HETATM   18  O6  UNL     1      22.783   2.139  50.050  1.00  0.00    -0.323 OA
ENDROOT
BRANCH   4  19
HETATM   19  C5  UNL     1      23.872   5.867  50.824  1.00  0.00     0.075 C 
BRANCH  19  20
HETATM   20  C6  UNL     1      25.280   6.192  50.398  1.00  0.00     0.274 C 
BRANCH  20  21
HETATM   21  N1  UNL     1      25.482   5.879  48.997  1.00  0.00     0.080 N 
HETATM   22  C7  UNL     1      25.081   6.919  48.099  1.00  0.00     0.309 C 
HETATM   23  C8  UNL     1      26.797   5.356  48.722  1.00  0.00     0.309 C 
ENDBRANCH  20  21
ENDBRANCH  19  20
ENDBRANCH   4  19
BRANCH   1  24
HETATM   24  O1  UNL     1      20.712   4.516  48.187  1.00  0.00    -0.354 OA
HETATM   25  C1  UNL     1      19.974   3.810  47.236  1.00  0.00     0.209 C 
ENDBRANCH   1  24
BRANCH  15  26
HETATM   26  C18 UNL     1      19.153  -0.338  52.322  1.00  0.00     0.275 C 
HETATM   27  O5  UNL     1      18.871  -0.911  53.381  1.00  0.00    -0.272 OA
HETATM   28 CL1  UNL     1      17.996  -0.168  50.990  1.00  0.00    -0.036 Cl
ENDBRANCH  15  26
TORSDOF 5
ENDMDL
