MODEL 1
REMARK VINA RESULT:      -8.0      0.000      0.000
REMARK  4 active torsions:
REMARK  status: ('A' for Active; 'I' for Inactive)
REMARK    1  A    between atoms: C3_4  and  C4_5 
REMARK    2  A    between atoms: C4_5  and  N1_6 
REMARK    3  A    between atoms: N1_6  and  C5_7 
REMARK    4  A    between atoms: C12_18  and  N6_19 
ROOT
HETATM    1  C5  UNL     1      24.248   1.976  52.034  1.00  0.00     0.130 C 
HETATM    2  N2  UNL     1      24.562   3.164  52.459  1.00  0.00    -0.226 NA
HETATM    3  C6  UNL     1      23.868   4.299  52.894  1.00  0.00     0.236 C 
HETATM    4  N3  UNL     1      22.674   4.711  52.645  1.00  0.00    -0.233 NA
HETATM    5  C7  UNL     1      21.600   4.243  51.880  1.00  0.00     0.256 C 
HETATM    6  N4  UNL     1      21.268   3.096  51.447  1.00  0.00    -0.169 NA
HETATM    7  N5  UNL     1      21.826   1.817  51.546  1.00  0.00    -0.283 N 
HETATM    8  C8  UNL     1      20.970   0.623  51.388  1.00  0.00     0.185 C 
HETATM    9  C9  UNL     1      21.377  -0.109  52.638  1.00  0.00    -0.030 A 
HETATM   10  C10 UNL     1      20.643  -0.964  53.432  1.00  0.00     0.011 A 
HETATM   11  C11 UNL     1      21.290  -1.498  54.534  1.00  0.00     0.024 A 
HETATM   12  C12 UNL     1      22.593  -1.162  54.780  1.00  0.00     0.006 A 
HETATM   13  C13 UNL     1      23.339  -0.301  53.986  1.00  0.00     0.033 A 
HETATM   14  C14 UNL     1      22.705   0.237  52.883  1.00  0.00    -0.017 A 
HETATM   15  C15 UNL     1      23.076   1.177  51.771  1.00  0.00     0.207 C 
ENDROOT
BRANCH   1  16
HETATM   16  N1  UNL     1      25.465   1.259  51.738  1.00  0.00    -0.373 N 
HETATM   17  H7  UNL     1      25.526   0.830  50.764  1.00  0.00     0.161 HD
BRANCH  16  18
HETATM   18  C4  UNL     1      26.543   1.120  52.695  1.00  0.00     0.149 C 
BRANCH  18  19
HETATM   19  C3  UNL     1      27.228  -0.183  52.660  1.00  0.00     0.011 C 
HETATM   20  C2  UNL     1      28.352  -0.352  53.350  1.00  0.00     0.005 C 
HETATM   21  C1  UNL     1      28.977   0.704  54.169  1.00  0.00     0.061 C 
HETATM   22 CL1  UNL     1      29.147  -1.934  53.284  1.00  0.00    -0.090 Cl
ENDBRANCH  18  19
ENDBRANCH  16  18
ENDBRANCH   1  16
BRANCH  12  23
HETATM   23  N6  UNL     1      23.229  -1.729  55.925  1.00  0.00    -0.303 NA
HETATM   24  H14 UNL     1      23.372  -2.585  56.501  1.00  0.00     0.124 HD
HETATM   25  H15 UNL     1      23.096  -2.733  56.178  1.00  0.00     0.124 HD
ENDBRANCH  12  23
TORSDOF 4
ENDMDL
MODEL 2
REMARK VINA RESULT:      -7.9      3.714      5.873
REMARK  4 active torsions:
REMARK  status: ('A' for Active; 'I' for Inactive)
REMARK    1  A    between atoms: C3_4  and  C4_5 
REMARK    2  A    between atoms: C4_5  and  N1_6 
REMARK    3  A    between atoms: N1_6  and  C5_7 
REMARK    4  A    between atoms: C12_18  and  N6_19 
ROOT
HETATM    1  C5  UNL     1      25.896   2.839  51.492  1.00  0.00     0.130 C 
HETATM    2  N2  UNL     1      24.891   3.567  51.881  1.00  0.00    -0.226 NA
HETATM    3  C6  UNL     1      23.760   3.383  52.685  1.00  0.00     0.236 C 
HETATM    4  N3  UNL     1      23.102   2.321  52.995  1.00  0.00    -0.233 NA
HETATM    5  C7  UNL     1      23.211   0.960  52.691  1.00  0.00     0.256 C 
HETATM    6  N4  UNL     1      24.172   0.223  52.308  1.00  0.00    -0.169 NA
HETATM    7  N5  UNL     1      25.524   0.451  52.026  1.00  0.00    -0.283 N 
HETATM    8  C8  UNL     1      26.491  -0.664  52.101  1.00  0.00     0.185 C 
HETATM    9  C9  UNL     1      27.517  -0.007  52.984  1.00  0.00    -0.030 A 
HETATM   10  C10 UNL     1      28.369  -0.573  53.909  1.00  0.00     0.011 A 
HETATM   11  C11 UNL     1      29.217   0.291  54.582  1.00  0.00     0.024 A 
HETATM   12  C12 UNL     1      29.173   1.631  54.308  1.00  0.00     0.006 A 
HETATM   13  C13 UNL     1      28.318   2.208  53.379  1.00  0.00     0.033 A 
HETATM   14  C14 UNL     1      27.468   1.357  52.700  1.00  0.00    -0.017 A 
HETATM   15  C15 UNL     1      26.406   1.498  51.646  1.00  0.00     0.207 C 
ENDROOT
BRANCH   1  16
HETATM   16  N1  UNL     1      26.744   3.643  50.646  1.00  0.00    -0.373 N 
HETATM   17  H7  UNL     1      27.632   4.019  51.102  1.00  0.00     0.161 HD
BRANCH  16  18
HETATM   18  C4  UNL     1      26.423   3.931  49.263  1.00  0.00     0.149 C 
BRANCH  18  19
HETATM   19  C3  UNL     1      26.294   5.364  48.951  1.00  0.00     0.011 C 
HETATM   20  C2  UNL     1      27.349   6.033  48.497  1.00  0.00     0.005 C 
HETATM   21  C1  UNL     1      28.674   5.423  48.278  1.00  0.00     0.061 C 
HETATM   22 CL1  UNL     1      27.156   7.756  48.132  1.00  0.00    -0.090 Cl
ENDBRANCH  18  19
ENDBRANCH  16  18
ENDBRANCH   1  16
BRANCH  12  23
HETATM   23  N6  UNL     1      30.060   2.492  55.020  1.00  0.00    -0.303 NA
HETATM   24  H14 UNL     1      30.411   2.793  55.954  1.00  0.00     0.124 HD
HETATM   25  H15 UNL     1      30.109   2.479  56.063  1.00  0.00     0.124 HD
ENDBRANCH  12  23
TORSDOF 4
ENDMDL
MODEL 3
REMARK VINA RESULT:      -7.7      2.995      4.541
REMARK  4 active torsions:
REMARK  status: ('A' for Active; 'I' for Inactive)
REMARK    1  A    between atoms: C3_4  and  C4_5 
REMARK    2  A    between atoms: C4_5  and  N1_6 
REMARK    3  A    between atoms: N1_6  and  C5_7 
REMARK    4  A    between atoms: C12_18  and  N6_19 
ROOT
HETATM    1  C5  UNL     1      23.041   2.562  50.987  1.00  0.00     0.130 C 
HETATM    2  N2  UNL     1      22.235   3.569  51.153  1.00  0.00    -0.226 NA
HETATM    3  C6  UNL     1      21.214   3.910  52.048  1.00  0.00     0.236 C 
HETATM    4  N3  UNL     1      20.439   3.179  52.771  1.00  0.00    -0.233 NA
HETATM    5  C7  UNL     1      20.277   1.806  52.978  1.00  0.00     0.256 C 
HETATM    6  N4  UNL     1      21.039   0.802  52.824  1.00  0.00    -0.169 NA
HETATM    7  N5  UNL     1      22.357   0.635  52.383  1.00  0.00    -0.283 N 
HETATM    8  C8  UNL     1      23.127  -0.558  52.791  1.00  0.00     0.185 C 
HETATM    9  C9  UNL     1      24.361   0.138  53.297  1.00  0.00    -0.030 A 
HETATM   10  C10 UNL     1      25.229  -0.236  54.301  1.00  0.00     0.011 A 
HETATM   11  C11 UNL     1      26.295   0.614  54.549  1.00  0.00     0.024 A 
HETATM   12  C12 UNL     1      26.435   1.755  53.808  1.00  0.00     0.006 A 
HETATM   13  C13 UNL     1      25.565   2.138  52.796  1.00  0.00     0.033 A 
HETATM   14  C14 UNL     1      24.499   1.299  52.538  1.00  0.00    -0.017 A 
HETATM   15  C15 UNL     1      23.338   1.283  51.584  1.00  0.00     0.207 C 
ENDROOT
BRANCH   1  16
HETATM   16  N1  UNL     1      23.883   2.832  49.847  1.00  0.00    -0.373 N 
HETATM   17  H7  UNL     1      24.015   2.024  49.165  1.00  0.00     0.161 HD
BRANCH  16  18
HETATM   18  C4  UNL     1      24.518   4.116  49.631  1.00  0.00     0.149 C 
BRANCH  18  19
HETATM   19  C3  UNL     1      25.953   4.042  49.310  1.00  0.00     0.011 C 
HETATM   20  C2  UNL     1      26.587   5.131  48.886  1.00  0.00     0.005 C 
HETATM   21  C1  UNL     1      25.935   6.443  48.710  1.00  0.00     0.061 C 
HETATM   22 CL1  UNL     1      28.314   5.004  48.509  1.00  0.00    -0.090 Cl
ENDBRANCH  18  19
ENDBRANCH  16  18
ENDBRANCH   1  16
BRANCH  12  23
HETATM   23  N6  UNL     1      27.543   2.608  54.090  1.00  0.00    -0.303 NA
HETATM   24  H14 UNL     1      27.878   3.454  54.597  1.00  0.00     0.124 HD
HETATM   25  H15 UNL     1      27.444   3.439  54.715  1.00  0.00     0.124 HD
ENDBRANCH  12  23
TORSDOF 4
ENDMDL
MODEL 4
REMARK VINA RESULT:      -7.3      8.894     11.694
REMARK  4 active torsions:
REMARK  status: ('A' for Active; 'I' for Inactive)
REMARK    1  A    between atoms: C3_4  and  C4_5 
REMARK    2  A    between atoms: C4_5  and  N1_6 
REMARK    3  A    between atoms: N1_6  and  C5_7 
REMARK    4  A    between atoms: C12_18  and  N6_19 
ROOT
HETATM    1  C5  UNL     1      31.143   7.206  48.150  1.00  0.00     0.130 C 
HETATM    2  N2  UNL     1      30.782   8.123  47.303  1.00  0.00    -0.226 NA
HETATM    3  C6  UNL     1      31.414   8.909  46.333  1.00  0.00     0.236 C 
HETATM    4  N3  UNL     1      32.638   9.291  46.215  1.00  0.00    -0.233 NA
HETATM    5  C7  UNL     1      33.812   9.106  46.951  1.00  0.00     0.256 C 
HETATM    6  N4  UNL     1      34.193   8.226  47.785  1.00  0.00    -0.169 NA
HETATM    7  N5  UNL     1      33.609   7.074  48.323  1.00  0.00    -0.283 N 
HETATM    8  C8  UNL     1      34.463   5.994  48.860  1.00  0.00     0.185 C 
HETATM    9  C9  UNL     1      33.854   4.838  48.114  1.00  0.00    -0.030 A 
HETATM   10  C10 UNL     1      34.442   3.672  47.673  1.00  0.00     0.011 A 
HETATM   11  C11 UNL     1      33.622   2.776  47.006  1.00  0.00     0.024 A 
HETATM   12  C12 UNL     1      32.301   3.079  46.821  1.00  0.00     0.006 A 
HETATM   13  C13 UNL     1      31.702   4.252  47.262  1.00  0.00     0.033 A 
HETATM   14  C14 UNL     1      32.509   5.153  47.928  1.00  0.00    -0.017 A 
HETATM   15  C15 UNL     1      32.331   6.501  48.567  1.00  0.00     0.207 C 
ENDROOT
BRANCH   1  16
HETATM   16  N1  UNL     1      29.978   6.779  48.889  1.00  0.00    -0.373 N 
HETATM   17  H7  UNL     1      30.082   6.764  49.950  1.00  0.00     0.161 HD
BRANCH  16  18
HETATM   18  C4  UNL     1      28.740   6.393  48.243  1.00  0.00     0.149 C 
BRANCH  18  19
HETATM   19  C3  UNL     1      28.277   5.036  48.573  1.00  0.00     0.011 C 
HETATM   20  C2  UNL     1      27.016   4.847  48.951  1.00  0.00     0.005 C 
HETATM   21  C1  UNL     1      26.025   5.933  49.067  1.00  0.00     0.061 C 
HETATM   22 CL1  UNL     1      26.494   3.199  49.340  1.00  0.00    -0.090 Cl
ENDBRANCH  18  19
ENDBRANCH  16  18
ENDBRANCH   1  16
BRANCH  12  23
HETATM   23  N6  UNL     1      31.485   2.135  46.130  1.00  0.00    -0.303 NA
HETATM   24  H14 UNL     1      31.187   1.140  46.054  1.00  0.00     0.124 HD
HETATM   25  H15 UNL     1      31.479   1.125  46.396  1.00  0.00     0.124 HD
ENDBRANCH  12  23
TORSDOF 4
ENDMDL
MODEL 5
REMARK VINA RESULT:      -7.3      3.060      5.116
REMARK  4 active torsions:
REMARK  status: ('A' for Active; 'I' for Inactive)
REMARK    1  A    between atoms: C3_4  and  C4_5 
REMARK    2  A    between atoms: C4_5  and  N1_6 
REMARK    3  A    between atoms: N1_6  and  C5_7 
REMARK    4  A    between atoms: C12_18  and  N6_19 
ROOT
HETATM    1  C5  UNL     1      25.098   2.052  51.891  1.00  0.00     0.130 C 
HETATM    2  N2  UNL     1      26.229   1.461  51.638  1.00  0.00    -0.226 NA
HETATM    3  C6  UNL     1      26.756   0.175  51.802  1.00  0.00     0.236 C 
HETATM    4  N3  UNL     1      26.454  -0.769  52.623  1.00  0.00    -0.233 NA
HETATM    5  C7  UNL     1      25.523  -0.928  53.655  1.00  0.00     0.256 C 
HETATM    6  N4  UNL     1      24.417  -0.367  53.930  1.00  0.00    -0.169 NA
HETATM    7  N5  UNL     1      23.658   0.642  53.327  1.00  0.00    -0.283 N 
HETATM    8  C8  UNL     1      22.204   0.721  53.577  1.00  0.00     0.185 C 
HETATM    9  C9  UNL     1      21.737   0.792  52.149  1.00  0.00    -0.030 A 
HETATM   10  C10 UNL     1      20.566   0.331  51.585  1.00  0.00     0.011 A 
HETATM   11  C11 UNL     1      20.406   0.541  50.225  1.00  0.00     0.024 A 
HETATM   12  C12 UNL     1      21.390   1.179  49.520  1.00  0.00     0.006 A 
HETATM   13  C13 UNL     1      22.571   1.646  50.081  1.00  0.00     0.033 A 
HETATM   14  C14 UNL     1      22.742   1.443  51.436  1.00  0.00    -0.017 A 
HETATM   15  C15 UNL     1      23.804   1.753  52.454  1.00  0.00     0.207 C 
ENDROOT
BRANCH   1  16
HETATM   16  N1  UNL     1      25.197   3.429  51.470  1.00  0.00    -0.373 N 
HETATM   17  H7  UNL     1      25.215   4.153  52.253  1.00  0.00     0.161 HD
BRANCH  16  18
HETATM   18  C4  UNL     1      25.268   3.819  50.077  1.00  0.00     0.149 C 
BRANCH  18  19
HETATM   19  C3  UNL     1      26.635   3.996  49.561  1.00  0.00     0.011 C 
HETATM   20  C2  UNL     1      26.945   5.103  48.893  1.00  0.00     0.005 C 
HETATM   21  C1  UNL     1      25.989   6.194  48.627  1.00  0.00     0.061 C 
HETATM   22 CL1  UNL     1      28.601   5.281  48.287  1.00  0.00    -0.090 Cl
ENDBRANCH  18  19
ENDBRANCH  16  18
ENDBRANCH   1  16
BRANCH  12  23
HETATM   23  N6  UNL     1      21.194   1.378  48.121  1.00  0.00    -0.303 NA
HETATM   24  H14 UNL     1      20.976   0.932  47.205  1.00  0.00     0.124 HD
HETATM   25  H15 UNL     1      20.968   0.581  47.486  1.00  0.00     0.124 HD
ENDBRANCH  12  23
TORSDOF 4
ENDMDL
MODEL 6
REMARK VINA RESULT:      -7.1      7.882      9.585
REMARK  4 active torsions:
REMARK  status: ('A' for Active; 'I' for Inactive)
REMARK    1  A    between atoms: C3_4  and  C4_5 
REMARK    2  A    between atoms: C4_5  and  N1_6 
REMARK    3  A    between atoms: N1_6  and  C5_7 
REMARK    4  A    between atoms: C12_18  and  N6_19 
ROOT
HETATM    1  C5  UNL     1      30.581   7.201  47.650  1.00  0.00     0.130 C 
HETATM    2  N2  UNL     1      31.483   7.637  48.478  1.00  0.00    -0.226 NA
HETATM    3  C6  UNL     1      31.557   8.629  49.463  1.00  0.00     0.236 C 
HETATM    4  N3  UNL     1      30.896   9.722  49.619  1.00  0.00    -0.233 NA
HETATM    5  C7  UNL     1      29.871  10.371  48.923  1.00  0.00     0.256 C 
HETATM    6  N4  UNL     1      28.979   9.976  48.109  1.00  0.00    -0.169 NA
HETATM    7  N5  UNL     1      28.640   8.734  47.560  1.00  0.00    -0.283 N 
HETATM    8  C8  UNL     1      27.269   8.498  47.060  1.00  0.00     0.185 C 
HETATM    9  C9  UNL     1      26.984   7.216  47.793  1.00  0.00    -0.030 A 
HETATM   10  C10 UNL     1      25.785   6.722  48.263  1.00  0.00     0.011 A 
HETATM   11  C11 UNL     1      25.828   5.497  48.908  1.00  0.00     0.024 A 
HETATM   12  C12 UNL     1      27.024   4.848  49.048  1.00  0.00     0.006 A 
HETATM   13  C13 UNL     1      28.236   5.339  48.578  1.00  0.00     0.033 A 
HETATM   14  C14 UNL     1      28.206   6.560  47.932  1.00  0.00    -0.017 A 
HETATM   15  C15 UNL     1      29.212   7.464  47.278  1.00  0.00     0.207 C 
ENDROOT
BRANCH   1  16
HETATM   16  N1  UNL     1      31.150   6.124  46.876  1.00  0.00    -0.373 N 
HETATM   17  H7  UNL     1      30.820   6.053  45.865  1.00  0.00     0.161 HD
BRANCH  16  18
HETATM   18  C4  UNL     1      32.111   5.189  47.426  1.00  0.00     0.149 C 
BRANCH  18  19
HETATM   19  C3  UNL     1      31.835   3.776  47.116  1.00  0.00     0.011 C 
HETATM   20  C2  UNL     1      32.805   2.876  47.243  1.00  0.00     0.005 C 
HETATM   21  C1  UNL     1      34.174   3.203  47.685  1.00  0.00     0.061 C 
HETATM   22 CL1  UNL     1      32.436   1.185  46.861  1.00  0.00    -0.090 Cl
ENDBRANCH  18  19
ENDBRANCH  16  18
ENDBRANCH   1  16
BRANCH  12  23
HETATM   23  N6  UNL     1      27.033   3.589  49.718  1.00  0.00    -0.303 NA
HETATM   24  H14 UNL     1      26.889   3.087  50.619  1.00  0.00     0.124 HD
HETATM   25  H15 UNL     1      26.807   3.514  50.735  1.00  0.00     0.124 HD
ENDBRANCH  12  23
TORSDOF 4
ENDMDL
MODEL 7
REMARK VINA RESULT:      -6.8      3.018      5.682
REMARK  4 active torsions:
REMARK  status: ('A' for Active; 'I' for Inactive)
REMARK    1  A    between atoms: C3_4  and  C4_5 
REMARK    2  A    between atoms: C4_5  and  N1_6 
REMARK    3  A    between atoms: N1_6  and  C5_7 
REMARK    4  A    between atoms: C12_18  and  N6_19 
ROOT
HETATM    1  C5  UNL     1      22.743   2.826  51.217  1.00  0.00     0.130 C 
HETATM    2  N2  UNL     1      22.414   1.618  50.868  1.00  0.00    -0.226 NA
HETATM    3  C6  UNL     1      21.863   1.006  49.736  1.00  0.00     0.236 C 
HETATM    4  N3  UNL     1      21.116   1.473  48.797  1.00  0.00    -0.233 NA
HETATM    5  C7  UNL     1      20.553   2.719  48.502  1.00  0.00     0.256 C 
HETATM    6  N4  UNL     1      20.847   3.911  48.828  1.00  0.00    -0.169 NA
HETATM    7  N5  UNL     1      21.849   4.489  49.615  1.00  0.00    -0.283 N 
HETATM    8  C8  UNL     1      22.240   5.897  49.396  1.00  0.00     0.185 C 
HETATM    9  C9  UNL     1      23.727   5.699  49.284  1.00  0.00    -0.030 A 
HETATM   10  C10 UNL     1      24.653   6.410  48.551  1.00  0.00     0.011 A 
HETATM   11  C11 UNL     1      25.972   5.994  48.644  1.00  0.00     0.024 A 
HETATM   12  C12 UNL     1      26.287   4.924  49.436  1.00  0.00     0.006 A 
HETATM   13  C13 UNL     1      25.360   4.203  50.176  1.00  0.00     0.033 A 
HETATM   14  C14 UNL     1      24.042   4.608  50.093  1.00  0.00    -0.017 A 
HETATM   15  C15 UNL     1      22.732   4.166  50.681  1.00  0.00     0.207 C 
ENDROOT
BRANCH   1  16
HETATM   16  N1  UNL     1      23.277   2.788  52.557  1.00  0.00    -0.373 N 
HETATM   17  H7  UNL     1      22.968   3.578  53.203  1.00  0.00     0.161 HD
BRANCH  16  18
HETATM   18  C4  UNL     1      24.178   1.748  53.010  1.00  0.00     0.149 C 
BRANCH  18  19
HETATM   19  C3  UNL     1      25.478   2.235  53.499  1.00  0.00     0.011 C 
HETATM   20  C2  UNL     1      26.595   1.845  52.893  1.00  0.00     0.005 C 
HETATM   21  C1  UNL     1      26.622   0.932  51.735  1.00  0.00     0.061 C 
HETATM   22 CL1  UNL     1      28.140   2.453  53.510  1.00  0.00    -0.090 Cl
ENDBRANCH  18  19
ENDBRANCH  16  18
ENDBRANCH   1  16
BRANCH  12  23
HETATM   23  N6  UNL     1      27.654   4.521  49.508  1.00  0.00    -0.303 NA
HETATM   24  H14 UNL     1      28.324   3.724  49.477  1.00  0.00     0.124 HD
HETATM   25  H15 UNL     1      27.929   3.518  49.420  1.00  0.00     0.124 HD
ENDBRANCH  12  23
TORSDOF 4
ENDMDL
MODEL 8
REMARK VINA RESULT:      -6.8      3.423      6.151
REMARK  4 active torsions:
REMARK  status: ('A' for Active; 'I' for Inactive)
REMARK    1  A    between atoms: C3_4  and  C4_5 
REMARK    2  A    between atoms: C4_5  and  N1_6 
REMARK    3  A    between atoms: N1_6  and  C5_7 
REMARK    4  A    between atoms: C12_18  and  N6_19 
ROOT
HETATM    1  C5  UNL     1      20.705   0.581  51.111  1.00  0.00     0.130 C 
HETATM    2  N2  UNL     1      19.584   0.168  51.624  1.00  0.00    -0.226 NA
HETATM    3  C6  UNL     1      19.158  -0.314  52.868  1.00  0.00     0.236 C 
HETATM    4  N3  UNL     1      19.801  -0.898  53.818  1.00  0.00    -0.233 NA
HETATM    5  C7  UNL     1      21.128  -1.289  54.026  1.00  0.00     0.256 C 
HETATM    6  N4  UNL     1      22.238  -0.909  53.541  1.00  0.00    -0.169 NA
HETATM    7  N5  UNL     1      22.613   0.054  52.597  1.00  0.00    -0.283 N 
HETATM    8  C8  UNL     1      23.980   0.614  52.616  1.00  0.00     0.185 C 
HETATM    9  C9  UNL     1      23.621   2.075  52.600  1.00  0.00    -0.030 A 
HETATM   10  C10 UNL     1      24.289   3.148  53.151  1.00  0.00     0.011 A 
HETATM   11  C11 UNL     1      23.713   4.396  52.974  1.00  0.00     0.024 A 
HETATM   12  C12 UNL     1      22.540   4.505  52.279  1.00  0.00     0.006 A 
HETATM   13  C13 UNL     1      21.862   3.429  51.722  1.00  0.00     0.033 A 
HETATM   14  C14 UNL     1      22.425   2.180  51.891  1.00  0.00    -0.017 A 
HETATM   15  C15 UNL     1      22.083   0.773  51.491  1.00  0.00     0.207 C 
ENDROOT
BRANCH   1  16
HETATM   16  N1  UNL     1      20.469   0.954  49.737  1.00  0.00    -0.373 N 
HETATM   17  H7  UNL     1      19.451   1.121  49.469  1.00  0.00     0.161 HD
BRANCH  16  18
HETATM   18  C4  UNL     1      21.539   1.096  48.770  1.00  0.00     0.149 C 
BRANCH  18  19
HETATM   19  C3  UNL     1      21.434   2.288  47.913  1.00  0.00     0.011 C 
HETATM   20  C2  UNL     1      22.411   3.189  47.920  1.00  0.00     0.005 C 
HETATM   21  C1  UNL     1      23.625   3.074  48.749  1.00  0.00     0.061 C 
HETATM   22 CL1  UNL     1      22.249   4.611  46.874  1.00  0.00    -0.090 Cl
ENDBRANCH  18  19
ENDBRANCH  16  18
ENDBRANCH   1  16
BRANCH  12  23
HETATM   23  N6  UNL     1      21.974   5.804  52.116  1.00  0.00    -0.303 NA
HETATM   24  H14 UNL     1      22.159   6.828  52.050  1.00  0.00     0.124 HD
HETATM   25  H15 UNL     1      22.573   6.660  52.105  1.00  0.00     0.124 HD
ENDBRANCH  12  23
TORSDOF 4
ENDMDL
MODEL 9
REMARK VINA RESULT:      -6.6      3.187      6.780
REMARK  4 active torsions:
REMARK  status: ('A' for Active; 'I' for Inactive)
REMARK    1  A    between atoms: C3_4  and  C4_5 
REMARK    2  A    between atoms: C4_5  and  N1_6 
REMARK    3  A    between atoms: N1_6  and  C5_7 
REMARK    4  A    between atoms: C12_18  and  N6_19 
ROOT
HETATM    1  C5  UNL     1      24.346   2.133  51.953  1.00  0.00     0.130 C 
HETATM    2  N2  UNL     1      24.546   1.799  53.193  1.00  0.00    -0.226 NA
HETATM    3  C6  UNL     1      25.579   1.947  54.126  1.00  0.00     0.236 C 
HETATM    4  N3  UNL     1      26.847   2.106  53.972  1.00  0.00    -0.233 NA
HETATM    5  C7  UNL     1      27.710   2.198  52.875  1.00  0.00     0.256 C 
HETATM    6  N4  UNL     1      27.546   2.517  51.656  1.00  0.00    -0.169 NA
HETATM    7  N5  UNL     1      26.443   2.909  50.890  1.00  0.00    -0.283 N 
HETATM    8  C8  UNL     1      26.643   3.697  49.656  1.00  0.00     0.185 C 
HETATM    9  C9  UNL     1      25.672   4.809  49.944  1.00  0.00    -0.030 A 
HETATM   10  C10 UNL     1      25.717   6.133  49.560  1.00  0.00     0.011 A 
HETATM   11  C11 UNL     1      24.668   6.936  49.977  1.00  0.00     0.024 A 
HETATM   12  C12 UNL     1      23.661   6.396  50.730  1.00  0.00     0.006 A 
HETATM   13  C13 UNL     1      23.609   5.064  51.120  1.00  0.00     0.033 A 
HETATM   14  C14 UNL     1      24.649   4.253  50.710  1.00  0.00    -0.017 A 
HETATM   15  C15 UNL     1      25.025   2.807  50.873  1.00  0.00     0.207 C 
ENDROOT
BRANCH   1  16
HETATM   16  N1  UNL     1      23.034   1.676  51.560  1.00  0.00    -0.373 N 
HETATM   17  H7  UNL     1      23.006   0.996  50.739  1.00  0.00     0.161 HD
BRANCH  16  18
HETATM   18  C4  UNL     1      21.823   2.104  52.230  1.00  0.00     0.149 C 
BRANCH  18  19
HETATM   19  C3  UNL     1      21.140   1.047  52.993  1.00  0.00     0.011 C 
HETATM   20  C2  UNL     1      20.136   0.379  52.432  1.00  0.00     0.005 C 
HETATM   21  C1  UNL     1      19.647   0.632  51.064  1.00  0.00     0.061 C 
HETATM   22 CL1  UNL     1      19.338  -0.887  53.380  1.00  0.00    -0.090 Cl
ENDBRANCH  18  19
ENDBRANCH  16  18
ENDBRANCH   1  16
BRANCH  12  23
HETATM   23  N6  UNL     1      22.597   7.251  51.143  1.00  0.00    -0.303 NA
HETATM   24  H14 UNL     1      21.647   7.620  50.924  1.00  0.00     0.124 HD
HETATM   25  H15 UNL     1      21.725   7.345  50.576  1.00  0.00     0.124 HD
ENDBRANCH  12  23
TORSDOF 4
ENDMDL
