MODEL 1
REMARK VINA RESULT:      -8.6      0.000      0.000
REMARK  3 active torsions:
REMARK  status: ('A' for Active; 'I' for Inactive)
REMARK    1  A    between atoms: C2_2  and  C3_3 
REMARK       I    between atoms: C3_3  and  N1_5 
REMARK    2  A    between atoms: C10_15  and  N4_16 
REMARK    3  A    between atoms: N4_16  and  C12_18 
ROOT
HETATM    1  C3  UNL     1      25.138   5.676  48.946  1.00  0.00     0.239 C 
HETATM    2  O1  UNL     1      24.340   6.583  48.585  1.00  0.00    -0.269 OA
HETATM    3  N1  UNL     1      24.960   4.282  49.230  1.00  0.00    -0.344 N 
HETATM    4  C4  UNL     1      25.931   3.315  49.637  1.00  0.00     0.131 C 
HETATM    5  C5  UNL     1      25.696   2.854  51.079  1.00  0.00     0.060 C 
HETATM    6  C6  UNL     1      24.366   2.205  51.156  1.00  0.00    -0.025 A 
HETATM    7  C7  UNL     1      23.480   2.681  50.155  1.00  0.00     0.010 A 
HETATM    8  S1  UNL     1      21.987   1.790  50.387  1.00  0.00    -0.072 SA
HETATM    9  C8  UNL     1      22.546   0.792  51.808  1.00  0.00     0.114 A 
HETATM   10  N2  UNL     1      21.982  -0.137  52.566  1.00  0.00    -0.234 NA
HETATM   11  C9  UNL     1      22.638  -0.729  53.579  1.00  0.00     0.236 A 
HETATM   12  N3  UNL     1      23.892  -0.315  53.765  1.00  0.00    -0.223 NA
HETATM   13  C10 UNL     1      24.505   0.616  53.032  1.00  0.00     0.145 A 
HETATM   14  C18 UNL     1      23.883   1.249  51.989  1.00  0.00     0.053 A 
HETATM   15  C19 UNL     1      23.652   3.678  49.117  1.00  0.00     0.172 C 
ENDROOT
BRANCH  13  16
HETATM   16  N4  UNL     1      25.828   0.865  53.484  1.00  0.00    -0.335 N 
HETATM   17  C11 UNL     1      26.313   2.096  54.137  1.00  0.00     0.158 C 
BRANCH  16  18
HETATM   18  C12 UNL     1      26.816  -0.143  53.310  1.00  0.00     0.035 A 
HETATM   19  C13 UNL     1      28.113   0.044  53.757  1.00  0.00     0.029 A 
HETATM   20  C14 UNL     1      29.117  -0.897  53.618  1.00  0.00     0.002 A 
HETATM   21  C15 UNL     1      28.735  -2.063  52.988  1.00  0.00     0.000 A 
HETATM   22  C16 UNL     1      27.472  -2.343  52.509  1.00  0.00     0.002 A 
HETATM   23  C17 UNL     1      26.516  -1.347  52.687  1.00  0.00     0.029 A 
ENDBRANCH  16  18
ENDBRANCH  13  16
BRANCH   1  24
HETATM   24  C2  UNL     1      26.465   6.264  49.069  1.00  0.00     0.048 C 
HETATM   25  C1  UNL     1      26.172   7.033  48.033  1.00  0.00     0.037 C 
ENDBRANCH   1  24
TORSDOF 3
ENDMDL
MODEL 2
REMARK VINA RESULT:      -8.6      3.243      6.227
REMARK  3 active torsions:
REMARK  status: ('A' for Active; 'I' for Inactive)
REMARK    1  A    between atoms: C2_2  and  C3_3 
REMARK       I    between atoms: C3_3  and  N1_5 
REMARK    2  A    between atoms: C10_15  and  N4_16 
REMARK    3  A    between atoms: N4_16  and  C12_18 
ROOT
HETATM    1  C3  UNL     1      27.232  -0.169  53.602  1.00  0.00     0.239 C 
HETATM    2  O1  UNL     1      27.856  -1.264  53.609  1.00  0.00    -0.269 OA
HETATM    3  N1  UNL     1      25.909   0.197  54.013  1.00  0.00    -0.344 N 
HETATM    4  C4  UNL     1      25.274   1.478  53.970  1.00  0.00     0.131 C 
HETATM    5  C5  UNL     1      24.138   1.510  52.944  1.00  0.00     0.060 C 
HETATM    6  C6  UNL     1      23.110   0.520  53.347  1.00  0.00    -0.025 A 
HETATM    7  C7  UNL     1      23.658  -0.533  54.125  1.00  0.00     0.010 A 
HETATM    8  S1  UNL     1      22.304  -1.575  54.524  1.00  0.00    -0.072 SA
HETATM    9  C8  UNL     1      21.022  -0.610  53.657  1.00  0.00     0.114 A 
HETATM   10  N2  UNL     1      19.715  -0.747  53.489  1.00  0.00    -0.234 NA
HETATM   11  C9  UNL     1      18.987   0.135  52.783  1.00  0.00     0.236 A 
HETATM   12  N3  UNL     1      19.674   1.155  52.267  1.00  0.00    -0.223 NA
HETATM   13  C10 UNL     1      20.988   1.340  52.406  1.00  0.00     0.145 A 
HETATM   14  C18 UNL     1      21.774   0.472  53.114  1.00  0.00     0.053 A 
HETATM   15  C19 UNL     1      25.015  -0.799  54.559  1.00  0.00     0.172 C 
ENDROOT
BRANCH  13  16
HETATM   16  N4  UNL     1      21.439   2.500  51.722  1.00  0.00    -0.335 N 
HETATM   17  C11 UNL     1      21.542   3.860  52.281  1.00  0.00     0.158 C 
BRANCH  16  18
HETATM   18  C12 UNL     1      21.841   2.385  50.363  1.00  0.00     0.035 A 
HETATM   19  C13 UNL     1      22.705   3.304  49.793  1.00  0.00     0.029 A 
HETATM   20  C14 UNL     1      23.133   3.247  48.479  1.00  0.00     0.002 A 
HETATM   21  C15 UNL     1      22.629   2.188  47.753  1.00  0.00     0.000 A 
HETATM   22  C16 UNL     1      21.766   1.224  48.228  1.00  0.00     0.002 A 
HETATM   23  C17 UNL     1      21.382   1.349  49.560  1.00  0.00     0.029 A 
ENDBRANCH  16  18
ENDBRANCH  13  16
BRANCH   1  24
HETATM   24  C2  UNL     1      28.114   0.852  53.051  1.00  0.00     0.048 C 
HETATM   25  C1  UNL     1      29.079   0.368  53.818  1.00  0.00     0.037 C 
ENDBRANCH   1  24
TORSDOF 3
ENDMDL
MODEL 3
REMARK VINA RESULT:      -8.5      2.816      6.144
REMARK  3 active torsions:
REMARK  status: ('A' for Active; 'I' for Inactive)
REMARK    1  A    between atoms: C2_2  and  C3_3 
REMARK       I    between atoms: C3_3  and  N1_5 
REMARK    2  A    between atoms: C10_15  and  N4_16 
REMARK    3  A    between atoms: N4_16  and  C12_18 
ROOT
HETATM    1  C3  UNL     1      28.052  -0.535  53.850  1.00  0.00     0.239 C 
HETATM    2  O1  UNL     1      28.465  -1.662  53.465  1.00  0.00    -0.269 OA
HETATM    3  N1  UNL     1      26.741  -0.018  54.111  1.00  0.00    -0.344 N 
HETATM    4  C4  UNL     1      26.358   1.287  54.551  1.00  0.00     0.131 C 
HETATM    5  C5  UNL     1      25.608   2.053  53.457  1.00  0.00     0.060 C 
HETATM    6  C6  UNL     1      24.366   1.314  53.131  1.00  0.00    -0.025 A 
HETATM    7  C7  UNL     1      24.478  -0.073  53.412  1.00  0.00     0.010 A 
HETATM    8  S1  UNL     1      22.921  -0.765  52.993  1.00  0.00    -0.072 SA
HETATM    9  C8  UNL     1      22.132   0.787  52.447  1.00  0.00     0.114 A 
HETATM   10  N2  UNL     1      20.934   1.100  51.976  1.00  0.00    -0.234 NA
HETATM   11  C9  UNL     1      20.603   2.358  51.640  1.00  0.00     0.236 A 
HETATM   12  N3  UNL     1      21.566   3.265  51.815  1.00  0.00    -0.223 NA
HETATM   13  C10 UNL     1      22.787   3.003  52.284  1.00  0.00     0.145 A 
HETATM   14  C18 UNL     1      23.174   1.739  52.641  1.00  0.00     0.053 A 
HETATM   15  C19 UNL     1      25.578  -0.859  53.932  1.00  0.00     0.172 C 
ENDROOT
BRANCH  13  16
HETATM   16  N4  UNL     1      23.601   4.166  52.333  1.00  0.00    -0.335 N 
HETATM   17  C11 UNL     1      23.796   5.048  53.499  1.00  0.00     0.158 C 
BRANCH  16  18
HETATM   18  C12 UNL     1      24.316   4.556  51.168  1.00  0.00     0.035 A 
HETATM   19  C13 UNL     1      24.384   5.883  50.783  1.00  0.00     0.029 A 
HETATM   20  C14 UNL     1      25.063   6.325  49.662  1.00  0.00     0.002 A 
HETATM   21  C15 UNL     1      25.683   5.332  48.932  1.00  0.00     0.000 A 
HETATM   22  C16 UNL     1      25.673   3.986  49.232  1.00  0.00     0.002 A 
HETATM   23  C17 UNL     1      24.969   3.620  50.376  1.00  0.00     0.029 A 
ENDBRANCH  16  18
ENDBRANCH  13  16
BRANCH   1  24
HETATM   24  C2  UNL     1      29.209   0.332  54.035  1.00  0.00     0.048 C 
HETATM   25  C1  UNL     1      29.961  -0.642  53.547  1.00  0.00     0.037 C 
ENDBRANCH   1  24
TORSDOF 3
ENDMDL
MODEL 4
REMARK VINA RESULT:      -8.4      2.429      6.556
REMARK  3 active torsions:
REMARK  status: ('A' for Active; 'I' for Inactive)
REMARK    1  A    between atoms: C2_2  and  C3_3 
REMARK       I    between atoms: C3_3  and  N1_5 
REMARK    2  A    between atoms: C10_15  and  N4_16 
REMARK    3  A    between atoms: N4_16  and  C12_18 
ROOT
HETATM    1  C3  UNL     1      25.272   0.382  53.451  1.00  0.00     0.239 C 
HETATM    2  O1  UNL     1      25.404  -0.867  53.353  1.00  0.00    -0.269 OA
HETATM    3  N1  UNL     1      24.353   1.311  52.861  1.00  0.00    -0.344 N 
HETATM    4  C4  UNL     1      24.273   2.729  53.030  1.00  0.00     0.131 C 
HETATM    5  C5  UNL     1      24.658   3.472  51.746  1.00  0.00     0.060 C 
HETATM    6  C6  UNL     1      23.699   3.097  50.679  1.00  0.00    -0.025 A 
HETATM    7  C7  UNL     1      23.125   1.819  50.900  1.00  0.00     0.010 A 
HETATM    8  S1  UNL     1      22.013   1.567  49.567  1.00  0.00    -0.072 SA
HETATM    9  C8  UNL     1      22.317   3.157  48.725  1.00  0.00     0.114 A 
HETATM   10  N2  UNL     1      21.847   3.727  47.625  1.00  0.00    -0.234 NA
HETATM   11  C9  UNL     1      22.252   4.942  47.219  1.00  0.00     0.236 A 
HETATM   12  N3  UNL     1      23.158   5.530  48.002  1.00  0.00    -0.223 NA
HETATM   13  C10 UNL     1      23.664   5.000  49.117  1.00  0.00     0.145 A 
HETATM   14  C18 UNL     1      23.285   3.767  49.574  1.00  0.00     0.053 A 
HETATM   15  C19 UNL     1      23.329   0.845  51.954  1.00  0.00     0.172 C 
ENDROOT
BRANCH  13  16
HETATM   16  N4  UNL     1      24.628   5.849  49.721  1.00  0.00    -0.335 N 
HETATM   17  C11 UNL     1      24.420   6.708  50.902  1.00  0.00     0.158 C 
BRANCH  16  18
HETATM   18  C12 UNL     1      25.936   5.910  49.168  1.00  0.00     0.035 A 
HETATM   19  C13 UNL     1      26.462   7.103  48.705  1.00  0.00     0.029 A 
HETATM   20  C14 UNL     1      27.726   7.226  48.157  1.00  0.00     0.002 A 
HETATM   21  C15 UNL     1      28.448   6.052  48.098  1.00  0.00     0.000 A 
HETATM   22  C16 UNL     1      28.013   4.817  48.530  1.00  0.00     0.002 A 
HETATM   23  C17 UNL     1      26.731   4.775  49.071  1.00  0.00     0.029 A 
ENDBRANCH  16  18
ENDBRANCH  13  16
BRANCH   1  24
HETATM   24  C2  UNL     1      26.298   0.876  54.360  1.00  0.00     0.048 C 
HETATM   25  C1  UNL     1      27.206   0.450  53.496  1.00  0.00     0.037 C 
ENDBRANCH   1  24
TORSDOF 3
ENDMDL
MODEL 5
REMARK VINA RESULT:      -8.1      3.584      7.042
REMARK  3 active torsions:
REMARK  status: ('A' for Active; 'I' for Inactive)
REMARK    1  A    between atoms: C2_2  and  C3_3 
REMARK       I    between atoms: C3_3  and  N1_5 
REMARK    2  A    between atoms: C10_15  and  N4_16 
REMARK    3  A    between atoms: N4_16  and  C12_18 
ROOT
HETATM    1  C3  UNL     1      26.221  -0.581  53.220  1.00  0.00     0.239 C 
HETATM    2  O1  UNL     1      26.747  -1.627  53.687  1.00  0.00    -0.269 OA
HETATM    3  N1  UNL     1      24.924   0.009  53.382  1.00  0.00    -0.344 N 
HETATM    4  C4  UNL     1      24.404   1.212  52.810  1.00  0.00     0.131 C 
HETATM    5  C5  UNL     1      23.300   0.919  51.789  1.00  0.00     0.060 C 
HETATM    6  C6  UNL     1      22.182   0.241  52.486  1.00  0.00    -0.025 A 
HETATM    7  C7  UNL     1      22.617  -0.459  53.641  1.00  0.00     0.010 A 
HETATM    8  S1  UNL     1      21.168  -1.164  54.336  1.00  0.00    -0.072 SA
HETATM    9  C8  UNL     1      19.996  -0.527  53.091  1.00  0.00     0.114 A 
HETATM   10  N2  UNL     1      18.687  -0.627  52.916  1.00  0.00    -0.234 NA
HETATM   11  C9  UNL     1      18.056  -0.043  51.884  1.00  0.00     0.236 A 
HETATM   12  N3  UNL     1      18.841   0.642  51.052  1.00  0.00    -0.223 NA
HETATM   13  C10 UNL     1      20.162   0.774  51.182  1.00  0.00     0.145 A 
HETATM   14  C18 UNL     1      20.853   0.199  52.215  1.00  0.00     0.053 A 
HETATM   15  C19 UNL     1      23.934  -0.628  54.221  1.00  0.00     0.172 C 
ENDROOT
BRANCH  13  16
HETATM   16  N4  UNL     1      20.729   1.538  50.128  1.00  0.00    -0.335 N 
HETATM   17  C11 UNL     1      21.416   1.009  48.935  1.00  0.00     0.158 C 
BRANCH  16  18
HETATM   18  C12 UNL     1      20.650   2.957  50.187  1.00  0.00     0.035 A 
HETATM   19  C13 UNL     1      19.932   3.672  49.244  1.00  0.00     0.029 A 
HETATM   20  C14 UNL     1      19.818   5.050  49.247  1.00  0.00     0.002 A 
HETATM   21  C15 UNL     1      20.484   5.684  50.276  1.00  0.00     0.000 A 
HETATM   22  C16 UNL     1      21.223   5.062  51.260  1.00  0.00     0.002 A 
HETATM   23  C17 UNL     1      21.290   3.673  51.189  1.00  0.00     0.029 A 
ENDBRANCH  16  18
ENDBRANCH  13  16
BRANCH   1  24
HETATM   24  C2  UNL     1      27.201   0.078  52.368  1.00  0.00     0.048 C 
HETATM   25  C1  UNL     1      28.040   0.058  53.392  1.00  0.00     0.037 C 
ENDBRANCH   1  24
TORSDOF 3
ENDMDL
MODEL 6
REMARK VINA RESULT:      -7.9      3.142      7.427
REMARK  3 active torsions:
REMARK  status: ('A' for Active; 'I' for Inactive)
REMARK    1  A    between atoms: C2_2  and  C3_3 
REMARK       I    between atoms: C3_3  and  N1_5 
REMARK    2  A    between atoms: C10_15  and  N4_16 
REMARK    3  A    between atoms: N4_16  and  C12_18 
ROOT
HETATM    1  C3  UNL     1      22.916  -0.736  54.566  1.00  0.00     0.239 C 
HETATM    2  O1  UNL     1      23.529  -1.227  55.552  1.00  0.00    -0.269 OA
HETATM    3  N1  UNL     1      23.356  -0.254  53.290  1.00  0.00    -0.344 N 
HETATM    4  C4  UNL     1      22.584   0.292  52.217  1.00  0.00     0.131 C 
HETATM    5  C5  UNL     1      22.867   1.785  52.022  1.00  0.00     0.060 C 
HETATM    6  C6  UNL     1      24.297   1.951  51.668  1.00  0.00    -0.025 A 
HETATM    7  C7  UNL     1      25.098   0.890  52.163  1.00  0.00     0.010 A 
HETATM    8  S1  UNL     1      26.731   1.244  51.627  1.00  0.00    -0.072 SA
HETATM    9  C8  UNL     1      26.342   2.796  50.752  1.00  0.00     0.114 A 
HETATM   10  N2  UNL     1      27.057   3.680  50.071  1.00  0.00    -0.234 NA
HETATM   11  C9  UNL     1      26.505   4.769  49.511  1.00  0.00     0.236 A 
HETATM   12  N3  UNL     1      25.189   4.896  49.691  1.00  0.00    -0.223 NA
HETATM   13  C10 UNL     1      24.424   4.038  50.367  1.00  0.00     0.145 A 
HETATM   14  C18 UNL     1      24.936   2.913  50.955  1.00  0.00     0.053 A 
HETATM   15  C19 UNL     1      24.761  -0.281  52.947  1.00  0.00     0.172 C 
ENDROOT
BRANCH  13  16
HETATM   16  N4  UNL     1      23.066   4.453  50.410  1.00  0.00    -0.335 N 
HETATM   17  C11 UNL     1      22.469   5.391  51.379  1.00  0.00     0.158 C 
BRANCH  16  18
HETATM   18  C12 UNL     1      22.158   3.939  49.445  1.00  0.00     0.035 A 
HETATM   19  C13 UNL     1      20.796   3.912  49.688  1.00  0.00     0.029 A 
HETATM   20  C14 UNL     1      19.863   3.426  48.790  1.00  0.00     0.002 A 
HETATM   21  C15 UNL     1      20.391   2.955  47.606  1.00  0.00     0.000 A 
HETATM   22  C16 UNL     1      21.728   2.938  47.271  1.00  0.00     0.002 A 
HETATM   23  C17 UNL     1      22.605   3.445  48.226  1.00  0.00     0.029 A 
ENDBRANCH  16  18
ENDBRANCH  13  16
BRANCH   1  24
HETATM   24  C2  UNL     1      21.496  -0.696  54.890  1.00  0.00     0.048 C 
HETATM   25  C1  UNL     1      21.411  -1.950  54.475  1.00  0.00     0.037 C 
ENDBRANCH   1  24
TORSDOF 3
ENDMDL
MODEL 7
REMARK VINA RESULT:      -7.4      3.317      7.674
REMARK  3 active torsions:
REMARK  status: ('A' for Active; 'I' for Inactive)
REMARK    1  A    between atoms: C2_2  and  C3_3 
REMARK       I    between atoms: C3_3  and  N1_5 
REMARK    2  A    between atoms: C10_15  and  N4_16 
REMARK    3  A    between atoms: N4_16  and  C12_18 
ROOT
HETATM    1  C3  UNL     1      21.635  -0.167  53.953  1.00  0.00     0.239 C 
HETATM    2  O1  UNL     1      21.858  -0.369  55.177  1.00  0.00    -0.269 OA
HETATM    3  N1  UNL     1      22.499   0.068  52.834  1.00  0.00    -0.344 N 
HETATM    4  C4  UNL     1      22.157   0.289  51.463  1.00  0.00     0.131 C 
HETATM    5  C5  UNL     1      22.470   1.724  51.029  1.00  0.00     0.060 C 
HETATM    6  C6  UNL     1      23.929   1.951  51.164  1.00  0.00    -0.025 A 
HETATM    7  C7  UNL     1      24.513   1.107  52.144  1.00  0.00     0.010 A 
HETATM    8  S1  UNL     1      26.223   1.496  52.140  1.00  0.00    -0.072 SA
HETATM    9  C8  UNL     1      26.153   2.775  50.840  1.00  0.00     0.114 A 
HETATM   10  N2  UNL     1      27.053   3.556  50.260  1.00  0.00    -0.234 NA
HETATM   11  C9  UNL     1      26.724   4.438  49.301  1.00  0.00     0.236 A 
HETATM   12  N3  UNL     1      25.430   4.470  48.977  1.00  0.00    -0.223 NA
HETATM   13  C10 UNL     1      24.485   3.707  49.530  1.00  0.00     0.145 A 
HETATM   14  C18 UNL     1      24.767   2.793  50.510  1.00  0.00     0.053 A 
HETATM   15  C19 UNL     1      23.932   0.106  53.017  1.00  0.00     0.172 C 
ENDROOT
BRANCH  13  16
HETATM   16  N4  UNL     1      23.197   3.985  49.000  1.00  0.00    -0.335 N 
HETATM   17  C11 UNL     1      22.465   3.171  48.012  1.00  0.00     0.158 C 
BRANCH  16  18
HETATM   18  C12 UNL     1      22.510   5.150  49.435  1.00  0.00     0.035 A 
HETATM   19  C13 UNL     1      22.580   5.571  50.752  1.00  0.00     0.029 A 
HETATM   20  C14 UNL     1      21.935   6.695  51.236  1.00  0.00     0.002 A 
HETATM   21  C15 UNL     1      21.196   7.387  50.298  1.00  0.00     0.000 A 
HETATM   22  C16 UNL     1      21.064   7.049  48.968  1.00  0.00     0.002 A 
HETATM   23  C17 UNL     1      21.744   5.905  48.557  1.00  0.00     0.029 A 
ENDBRANCH  16  18
ENDBRANCH  13  16
BRANCH   1  24
HETATM   24  C2  UNL     1      20.193  -0.198  53.745  1.00  0.00     0.048 C 
HETATM   25  C1  UNL     1      20.229  -1.496  54.002  1.00  0.00     0.037 C 
ENDBRANCH   1  24
TORSDOF 3
ENDMDL
MODEL 8
REMARK VINA RESULT:      -7.3      3.183      5.869
REMARK  3 active torsions:
REMARK  status: ('A' for Active; 'I' for Inactive)
REMARK    1  A    between atoms: C2_2  and  C3_3 
REMARK       I    between atoms: C3_3  and  N1_5 
REMARK    2  A    between atoms: C10_15  and  N4_16 
REMARK    3  A    between atoms: N4_16  and  C12_18 
ROOT
HETATM    1  C3  UNL     1      18.450   0.272  51.306  1.00  0.00     0.239 C 
HETATM    2  O1  UNL     1      17.791  -0.364  50.440  1.00  0.00    -0.269 OA
HETATM    3  N1  UNL     1      19.220   1.479  51.247  1.00  0.00    -0.344 N 
HETATM    4  C4  UNL     1      19.943   2.139  52.290  1.00  0.00     0.131 C 
HETATM    5  C5  UNL     1      21.456   2.069  52.057  1.00  0.00     0.060 C 
HETATM    6  C6  UNL     1      21.771   2.768  50.789  1.00  0.00    -0.025 A 
HETATM    7  C7  UNL     1      20.672   2.771  49.891  1.00  0.00     0.010 A 
HETATM    8  S1  UNL     1      21.220   3.655  48.479  1.00  0.00    -0.072 SA
HETATM    9  C8  UNL     1      22.902   4.015  49.086  1.00  0.00     0.114 A 
HETATM   10  N2  UNL     1      23.949   4.657  48.588  1.00  0.00    -0.234 NA
HETATM   11  C9  UNL     1      25.103   4.780  49.265  1.00  0.00     0.236 A 
HETATM   12  N3  UNL     1      25.118   4.210  50.472  1.00  0.00    -0.223 NA
HETATM   13  C10 UNL     1      24.094   3.553  51.019  1.00  0.00     0.145 A 
HETATM   14  C18 UNL     1      22.897   3.400  50.371  1.00  0.00     0.053 A 
HETATM   15  C19 UNL     1      19.343   2.204  50.002  1.00  0.00     0.172 C 
ENDROOT
BRANCH  13  16
HETATM   16  N4  UNL     1      24.416   3.035  52.301  1.00  0.00    -0.335 N 
HETATM   17  C11 UNL     1      24.197   3.706  53.596  1.00  0.00     0.158 C 
BRANCH  16  18
HETATM   18  C12 UNL     1      25.009   1.746  52.394  1.00  0.00     0.035 A 
HETATM   19  C13 UNL     1      24.426   0.744  53.148  1.00  0.00     0.029 A 
HETATM   20  C14 UNL     1      24.954  -0.528  53.277  1.00  0.00     0.002 A 
HETATM   21  C15 UNL     1      26.131  -0.739  52.589  1.00  0.00     0.000 A 
HETATM   22  C16 UNL     1      26.788   0.193  51.814  1.00  0.00     0.002 A 
HETATM   23  C17 UNL     1      26.194   1.449  51.732  1.00  0.00     0.029 A 
ENDBRANCH  16  18
ENDBRANCH  13  16
BRANCH   1  24
HETATM   24  C2  UNL     1      18.344  -0.443  52.571  1.00  0.00     0.048 C 
HETATM   25  C1  UNL     1      17.161  -0.882  52.172  1.00  0.00     0.037 C 
ENDBRANCH   1  24
TORSDOF 3
ENDMDL
MODEL 9
REMARK VINA RESULT:      -7.3      8.623     10.756
REMARK  3 active torsions:
REMARK  status: ('A' for Active; 'I' for Inactive)
REMARK    1  A    between atoms: C2_2  and  C3_3 
REMARK       I    between atoms: C3_3  and  N1_5 
REMARK    2  A    between atoms: C10_15  and  N4_16 
REMARK    3  A    between atoms: N4_16  and  C12_18 
ROOT
HETATM    1  C3  UNL     1      35.411   7.178  42.256  1.00  0.00     0.239 C 
HETATM    2  O1  UNL     1      35.652   8.328  41.801  1.00  0.00    -0.269 OA
HETATM    3  N1  UNL     1      34.282   6.621  42.941  1.00  0.00    -0.344 N 
HETATM    4  C4  UNL     1      34.088   5.290  43.427  1.00  0.00     0.131 C 
HETATM    5  C5  UNL     1      34.071   5.247  44.958  1.00  0.00     0.060 C 
HETATM    6  C6  UNL     1      32.932   6.064  45.440  1.00  0.00    -0.025 A 
HETATM    7  C7  UNL     1      32.571   7.078  44.515  1.00  0.00     0.010 A 
HETATM    8  S1  UNL     1      31.207   7.910  45.239  1.00  0.00    -0.072 SA
HETATM    9  C8  UNL     1      31.124   6.910  46.762  1.00  0.00     0.114 A 
HETATM   10  N2  UNL     1      30.344   6.918  47.834  1.00  0.00    -0.234 NA
HETATM   11  C9  UNL     1      30.504   6.044  48.842  1.00  0.00     0.236 A 
HETATM   12  N3  UNL     1      31.501   5.172  48.686  1.00  0.00    -0.223 NA
HETATM   13  C10 UNL     1      32.314   5.121  47.630  1.00  0.00     0.145 A 
HETATM   14  C18 UNL     1      32.193   5.987  46.576  1.00  0.00     0.053 A 
HETATM   15  C19 UNL     1      33.127   7.443  43.228  1.00  0.00     0.172 C 
ENDROOT
BRANCH  13  16
HETATM   16  N4  UNL     1      33.296   4.103  47.759  1.00  0.00    -0.335 N 
HETATM   17  C11 UNL     1      34.726   4.301  48.061  1.00  0.00     0.158 C 
BRANCH  16  18
HETATM   18  C12 UNL     1      32.907   2.746  47.589  1.00  0.00     0.035 A 
HETATM   19  C13 UNL     1      32.115   2.358  46.523  1.00  0.00     0.029 A 
HETATM   20  C14 UNL     1      31.704   1.056  46.304  1.00  0.00     0.002 A 
HETATM   21  C15 UNL     1      32.145   0.144  47.241  1.00  0.00     0.000 A 
HETATM   22  C16 UNL     1      32.935   0.432  48.334  1.00  0.00     0.002 A 
HETATM   23  C17 UNL     1      33.308   1.764  48.486  1.00  0.00     0.029 A 
ENDBRANCH  16  18
ENDBRANCH  13  16
BRANCH   1  24
HETATM   24  C2  UNL     1      36.564   6.331  41.980  1.00  0.00     0.048 C 
HETATM   25  C1  UNL     1      36.191   6.313  40.710  1.00  0.00     0.037 C 
ENDBRANCH   1  24
TORSDOF 3
ENDMDL
