MODEL 1
REMARK VINA RESULT:      -9.1      0.000      0.000
REMARK  3 active torsions:
REMARK  status: ('A' for Active; 'I' for Inactive)
REMARK    1  A    between atoms: C4_5  and  N1_6 
REMARK    2  A    between atoms: N1_6  and  C5_7 
REMARK    3  A    between atoms: C5_7  and  N2_8 
ROOT
HETATM    1  N2  UNL     1      22.776   5.573  51.513  1.00  0.00    -0.274 N 
HETATM    2  C6  UNL     1      22.715   4.340  51.954  1.00  0.00     0.098 A 
HETATM    3  C7  UNL     1      24.044   3.804  52.235  1.00  0.00     0.077 C 
HETATM    4  C8  UNL     1      24.486   2.487  51.799  1.00  0.00     0.034 C 
HETATM    5  C9  UNL     1      23.811   1.284  52.309  1.00  0.00    -0.030 C 
HETATM    6  C10 UNL     1      24.123   0.204  53.062  1.00  0.00    -0.031 C 
HETATM    7  C11 UNL     1      25.177  -0.464  53.808  1.00  0.00     0.028 C 
HETATM    8  C12 UNL     1      24.755  -0.678  55.266  1.00  0.00     0.034 C 
HETATM    9  C13 UNL     1      23.605  -1.626  55.279  1.00  0.00     0.270 C 
HETATM   10  N3  UNL     1      22.393  -1.023  54.842  1.00  0.00     0.083 N 
HETATM   11  C14 UNL     1      21.445  -1.951  54.320  1.00  0.00     0.271 C 
HETATM   12  C15 UNL     1      20.045  -1.494  54.116  1.00  0.00     0.060 C 
HETATM   13  C16 UNL     1      19.815  -0.199  53.480  1.00  0.00     0.271 C 
HETATM   14  N4  UNL     1      20.367   0.171  52.216  1.00  0.00     0.085 N 
HETATM   15  C17 UNL     1      19.548   1.316  51.740  1.00  0.00     0.296 C 
HETATM   16  C18 UNL     1      19.967   2.014  50.550  1.00  0.00     0.204 C 
HETATM   17  O1  UNL     1      21.203   2.719  50.636  1.00  0.00    -0.359 OA
HETATM   18  C19 UNL     1      21.299   3.819  49.729  1.00  0.00     0.162 C 
HETATM   19  C20 UNL     1      20.716   4.417  50.767  1.00  0.00     0.085 C 
HETATM   20  N5  UNL     1      21.427   4.857  51.683  1.00  0.00    -0.140 NA
HETATM   21  H18 UNL     1      21.932  -0.402  55.526  1.00  0.00     0.315 HD
HETATM   22  H25 UNL     1      20.307  -0.580  51.543  1.00  0.00     0.315 HD
ENDROOT
BRANCH   1  23
HETATM   23  C5  UNL     1      23.907   6.376  51.299  1.00  0.00     0.267 C 
BRANCH  23  24
HETATM   24  N1  UNL     1      24.317   6.544  49.909  1.00  0.00    -0.372 N 
HETATM   25  H3  UNL     1      23.659   7.008  49.239  1.00  0.00     0.161 HD
BRANCH  24  26
HETATM   26  C4  UNL     1      25.570   6.125  49.402  1.00  0.00     0.031 A 
HETATM   27  C3  UNL     1      26.000   4.801  49.388  1.00  0.00     0.032 A 
HETATM   28  C2  UNL     1      27.205   4.327  48.929  1.00  0.00     0.046 A 
HETATM   29  C1  UNL     1      28.039   5.309  48.447  1.00  0.00     0.138 A 
HETATM   30  F1  UNL     1      29.262   4.913  47.985  1.00  0.00    -0.204 F 
HETATM   31  C22 UNL     1      27.722   6.646  48.412  1.00  0.00     0.074 A 
HETATM   32  C21 UNL     1      26.469   7.031  48.901  1.00  0.00     0.056 A 
HETATM   33 CL1  UNL     1      28.838   7.816  47.775  1.00  0.00    -0.081 Cl
ENDBRANCH  24  26
ENDBRANCH  23  24
ENDBRANCH   1  23
TORSDOF 3
ENDMDL
MODEL 2
REMARK VINA RESULT:      -9.0      3.818      6.362
REMARK  3 active torsions:
REMARK  status: ('A' for Active; 'I' for Inactive)
REMARK    1  A    between atoms: C4_5  and  N1_6 
REMARK    2  A    between atoms: N1_6  and  C5_7 
REMARK    3  A    between atoms: C5_7  and  N2_8 
ROOT
HETATM    1  N2  UNL     1      24.449   3.285  52.768  1.00  0.00    -0.274 N 
HETATM    2  C6  UNL     1      23.313   3.059  52.155  1.00  0.00     0.098 A 
HETATM    3  C7  UNL     1      22.683   1.829  52.628  1.00  0.00     0.077 C 
HETATM    4  C8  UNL     1      22.128   0.820  51.738  1.00  0.00     0.034 C 
HETATM    5  C9  UNL     1      20.991   1.156  50.867  1.00  0.00    -0.030 C 
HETATM    6  C10 UNL     1      19.701   0.779  50.715  1.00  0.00    -0.031 C 
HETATM    7  C11 UNL     1      18.646  -0.091  51.212  1.00  0.00     0.028 C 
HETATM    8  C12 UNL     1      17.428   0.731  51.646  1.00  0.00     0.034 C 
HETATM    9  C13 UNL     1      16.856   1.385  50.434  1.00  0.00     0.270 C 
HETATM   10  N3  UNL     1      17.643   2.480  49.981  1.00  0.00     0.083 N 
HETATM   11  C14 UNL     1      17.479   2.770  48.595  1.00  0.00     0.271 C 
HETATM   12  C15 UNL     1      18.003   4.061  48.074  1.00  0.00     0.060 C 
HETATM   13  C16 UNL     1      19.342   4.488  48.476  1.00  0.00     0.271 C 
HETATM   14  N4  UNL     1      20.509   3.681  48.318  1.00  0.00     0.085 N 
HETATM   15  C17 UNL     1      21.660   4.619  48.405  1.00  0.00     0.296 C 
HETATM   16  C18 UNL     1      22.993   4.071  48.439  1.00  0.00     0.204 C 
HETATM   17  O1  UNL     1      23.325   3.293  49.586  1.00  0.00    -0.359 OA
HETATM   18  C19 UNL     1      24.725   3.271  49.876  1.00  0.00     0.162 C 
HETATM   19  C20 UNL     1      24.362   4.366  50.542  1.00  0.00     0.085 C 
HETATM   20  N5  UNL     1      23.921   4.250  51.694  1.00  0.00    -0.140 NA
HETATM   21  H18 UNL     1      17.556   3.349  50.531  1.00  0.00     0.315 HD
HETATM   22  H25 UNL     1      20.530   3.216  47.421  1.00  0.00     0.315 HD
ENDROOT
BRANCH   1  23
HETATM   23  C5  UNL     1      25.077   2.523  53.765  1.00  0.00     0.267 C 
BRANCH  23  24
HETATM   24  N1  UNL     1      26.536   2.529  53.749  1.00  0.00    -0.372 N 
HETATM   25  H3  UNL     1      27.041   3.442  53.844  1.00  0.00     0.161 HD
BRANCH  24  26
HETATM   26  C4  UNL     1      27.327   1.362  53.621  1.00  0.00     0.031 A 
HETATM   27  C3  UNL     1      28.669   1.288  53.984  1.00  0.00     0.032 A 
HETATM   28  C2  UNL     1      29.498   0.198  53.871  1.00  0.00     0.046 A 
HETATM   29  C1  UNL     1      28.885  -0.910  53.332  1.00  0.00     0.138 A 
HETATM   30  F1  UNL     1      29.652  -2.029  53.178  1.00  0.00    -0.204 F 
HETATM   31  C22 UNL     1      27.569  -0.952  52.938  1.00  0.00     0.074 A 
HETATM   32  C21 UNL     1      26.805   0.209  53.095  1.00  0.00     0.056 A 
HETATM   33 CL1  UNL     1      26.878  -2.403  52.275  1.00  0.00    -0.081 Cl
ENDBRANCH  24  26
ENDBRANCH  23  24
ENDBRANCH   1  23
TORSDOF 3
ENDMDL
MODEL 3
REMARK VINA RESULT:      -8.9      5.161      8.843
REMARK  3 active torsions:
REMARK  status: ('A' for Active; 'I' for Inactive)
REMARK    1  A    between atoms: C4_5  and  N1_6 
REMARK    2  A    between atoms: N1_6  and  C5_7 
REMARK    3  A    between atoms: C5_7  and  N2_8 
ROOT
HETATM    1  N2  UNL     1      31.500   8.570  48.835  1.00  0.00    -0.274 N 
HETATM    2  C6  UNL     1      30.317   8.037  49.014  1.00  0.00     0.098 A 
HETATM    3  C7  UNL     1      30.348   6.588  48.837  1.00  0.00     0.077 C 
HETATM    4  C8  UNL     1      29.372   5.856  48.043  1.00  0.00     0.034 C 
HETATM    5  C9  UNL     1      27.957   5.852  48.445  1.00  0.00    -0.030 C 
HETATM    6  C10 UNL     1      27.036   4.950  48.857  1.00  0.00    -0.031 C 
HETATM    7  C11 UNL     1      26.793   3.549  49.162  1.00  0.00     0.028 C 
HETATM    8  C12 UNL     1      26.296   3.388  50.602  1.00  0.00     0.034 C 
HETATM    9  C13 UNL     1      24.963   4.047  50.707  1.00  0.00     0.270 C 
HETATM   10  N3  UNL     1      25.054   5.467  50.720  1.00  0.00     0.083 N 
HETATM   11  C14 UNL     1      23.871   6.123  50.272  1.00  0.00     0.271 C 
HETATM   12  C15 UNL     1      23.732   7.582  50.522  1.00  0.00     0.060 C 
HETATM   13  C16 UNL     1      24.871   8.454  50.246  1.00  0.00     0.271 C 
HETATM   14  N4  UNL     1      25.546   8.497  48.988  1.00  0.00     0.085 N 
HETATM   15  C17 UNL     1      26.294   9.782  48.979  1.00  0.00     0.296 C 
HETATM   16  C18 UNL     1      27.207  10.039  47.893  1.00  0.00     0.204 C 
HETATM   17  O1  UNL     1      28.344   9.184  47.810  1.00  0.00    -0.359 OA
HETATM   18  C19 UNL     1      29.464   9.783  47.155  1.00  0.00     0.162 C 
HETATM   19  C20 UNL     1      29.676  10.189  48.406  1.00  0.00     0.085 C 
HETATM   20  N5  UNL     1      30.283   9.441  49.185  1.00  0.00    -0.140 NA
HETATM   21  H18 UNL     1      25.368   5.885  51.611  1.00  0.00     0.315 HD
HETATM   22  H25 UNL     1      24.901   8.485  48.212  1.00  0.00     0.315 HD
ENDROOT
BRANCH   1  23
HETATM   23  C5  UNL     1      32.711   7.937  48.517  1.00  0.00     0.267 C 
BRANCH  23  24
HETATM   24  N1  UNL     1      32.968   7.727  47.095  1.00  0.00    -0.372 N 
HETATM   25  H3  UNL     1      32.728   8.490  46.419  1.00  0.00     0.161 HD
BRANCH  24  26
HETATM   26  C4  UNL     1      33.538   6.546  46.564  1.00  0.00     0.031 A 
HETATM   27  C3  UNL     1      33.797   6.347  45.211  1.00  0.00     0.032 A 
HETATM   28  C2  UNL     1      34.329   5.223  44.627  1.00  0.00     0.046 A 
HETATM   29  C1  UNL     1      34.615   4.217  45.521  1.00  0.00     0.138 A 
HETATM   30  F1  UNL     1      35.135   3.063  45.010  1.00  0.00    -0.204 F 
HETATM   31  C22 UNL     1      34.400   4.301  46.876  1.00  0.00     0.074 A 
HETATM   32  C21 UNL     1      33.855   5.487  47.377  1.00  0.00     0.056 A 
HETATM   33 CL1  UNL     1      34.801   2.978  47.931  1.00  0.00    -0.081 Cl
ENDBRANCH  24  26
ENDBRANCH  23  24
ENDBRANCH   1  23
TORSDOF 3
ENDMDL
MODEL 4
REMARK VINA RESULT:      -8.8      1.327      1.793
REMARK  3 active torsions:
REMARK  status: ('A' for Active; 'I' for Inactive)
REMARK    1  A    between atoms: C4_5  and  N1_6 
REMARK    2  A    between atoms: N1_6  and  C5_7 
REMARK    3  A    between atoms: C5_7  and  N2_8 
ROOT
HETATM    1  N2  UNL     1      22.742   6.015  51.060  1.00  0.00    -0.274 N 
HETATM    2  C6  UNL     1      22.263   4.830  51.346  1.00  0.00     0.098 A 
HETATM    3  C7  UNL     1      23.287   3.960  51.918  1.00  0.00     0.077 C 
HETATM    4  C8  UNL     1      23.502   2.586  51.489  1.00  0.00     0.034 C 
HETATM    5  C9  UNL     1      22.441   1.586  51.678  1.00  0.00    -0.030 C 
HETATM    6  C10 UNL     1      22.256   0.442  52.377  1.00  0.00    -0.031 C 
HETATM    7  C11 UNL     1      22.862  -0.497  53.309  1.00  0.00     0.028 C 
HETATM    8  C12 UNL     1      22.005  -0.632  54.572  1.00  0.00     0.034 C 
HETATM    9  C13 UNL     1      20.705  -1.251  54.184  1.00  0.00     0.270 C 
HETATM   10  N3  UNL     1      19.849  -0.342  53.500  1.00  0.00     0.083 N 
HETATM   11  C14 UNL     1      18.895  -0.978  52.655  1.00  0.00     0.271 C 
HETATM   12  C15 UNL     1      17.763  -0.169  52.129  1.00  0.00     0.060 C 
HETATM   13  C16 UNL     1      18.043   1.158  51.586  1.00  0.00     0.271 C 
HETATM   14  N4  UNL     1      19.003   1.406  50.558  1.00  0.00     0.085 N 
HETATM   15  C17 UNL     1      18.654   2.737  49.996  1.00  0.00     0.296 C 
HETATM   16  C18 UNL     1      19.549   3.334  49.036  1.00  0.00     0.204 C 
HETATM   17  O1  UNL     1      20.842   3.691  49.518  1.00  0.00    -0.359 OA
HETATM   18  C19 UNL     1      21.454   4.753  48.783  1.00  0.00     0.162 C 
HETATM   19  C20 UNL     1      20.763   5.454  49.681  1.00  0.00     0.085 C 
HETATM   20  N5  UNL     1      21.269   5.669  50.792  1.00  0.00    -0.140 NA
HETATM   21  H18 UNL     1      19.377   0.358  54.093  1.00  0.00     0.315 HD
HETATM   22  H25 UNL     1      18.957   0.714  49.823  1.00  0.00     0.315 HD
ENDROOT
BRANCH   1  23
HETATM   23  C5  UNL     1      24.046   6.503  51.237  1.00  0.00     0.267 C 
BRANCH  23  24
HETATM   24  N1  UNL     1      24.711   6.998  50.036  1.00  0.00    -0.372 N 
HETATM   25  H3  UNL     1      24.330   7.849  49.559  1.00  0.00     0.161 HD
BRANCH  24  26
HETATM   26  C4  UNL     1      25.862   6.399  49.471  1.00  0.00     0.031 A 
HETATM   27  C3  UNL     1      26.123   5.032  49.503  1.00  0.00     0.032 A 
HETATM   28  C2  UNL     1      27.224   4.387  48.992  1.00  0.00     0.046 A 
HETATM   29  C1  UNL     1      28.134   5.232  48.400  1.00  0.00     0.138 A 
HETATM   30  F1  UNL     1      29.261   4.662  47.881  1.00  0.00    -0.204 F 
HETATM   31  C22 UNL     1      27.982   6.595  48.311  1.00  0.00     0.074 A 
HETATM   32  C21 UNL     1      26.826   7.158  48.859  1.00  0.00     0.056 A 
HETATM   33 CL1  UNL     1      29.184   7.582  47.534  1.00  0.00    -0.081 Cl
ENDBRANCH  24  26
ENDBRANCH  23  24
ENDBRANCH   1  23
TORSDOF 3
ENDMDL
MODEL 5
REMARK VINA RESULT:      -8.4      4.572      9.110
REMARK  3 active torsions:
REMARK  status: ('A' for Active; 'I' for Inactive)
REMARK    1  A    between atoms: C4_5  and  N1_6 
REMARK    2  A    between atoms: N1_6  and  C5_7 
REMARK    3  A    between atoms: C5_7  and  N2_8 
ROOT
HETATM    1  N2  UNL     1      25.051   3.970  50.021  1.00  0.00    -0.274 N 
HETATM    2  C6  UNL     1      25.111   5.029  49.252  1.00  0.00     0.098 A 
HETATM    3  C7  UNL     1      26.459   5.239  48.730  1.00  0.00     0.077 C 
HETATM    4  C8  UNL     1      27.129   6.531  48.736  1.00  0.00     0.034 C 
HETATM    5  C9  UNL     1      26.572   7.647  47.956  1.00  0.00    -0.030 C 
HETATM    6  C10 UNL     1      26.940   8.415  46.905  1.00  0.00    -0.031 C 
HETATM    7  C11 UNL     1      27.981   8.670  45.921  1.00  0.00     0.028 C 
HETATM    8  C12 UNL     1      27.421   8.549  44.499  1.00  0.00     0.034 C 
HETATM    9  C13 UNL     1      26.422   9.637  44.302  1.00  0.00     0.270 C 
HETATM   10  N3  UNL     1      25.198   9.387  44.984  1.00  0.00     0.083 N 
HETATM   11  C14 UNL     1      24.459  10.566  45.289  1.00  0.00     0.271 C 
HETATM   12  C15 UNL     1      23.043  10.424  45.721  1.00  0.00     0.060 C 
HETATM   13  C16 UNL     1      22.712   9.406  46.715  1.00  0.00     0.271 C 
HETATM   14  N4  UNL     1      23.354   9.305  47.987  1.00  0.00     0.085 N 
HETATM   15  C17 UNL     1      22.446   8.485  48.831  1.00  0.00     0.296 C 
HETATM   16  C18 UNL     1      22.902   8.075  50.135  1.00  0.00     0.204 C 
HETATM   17  O1  UNL     1      24.009   7.177  50.161  1.00  0.00    -0.359 OA
HETATM   18  C19 UNL     1      24.058   6.362  51.335  1.00  0.00     0.162 C 
HETATM   19  C20 UNL     1      23.277   5.613  50.559  1.00  0.00     0.085 C 
HETATM   20  N5  UNL     1      23.805   4.829  49.756  1.00  0.00    -0.140 NA
HETATM   21  H18 UNL     1      24.576   8.691  44.543  1.00  0.00     0.315 HD
HETATM   22  H25 UNL     1      23.481  10.209  48.420  1.00  0.00     0.315 HD
ENDROOT
BRANCH   1  23
HETATM   23  C5  UNL     1      26.076   3.077  50.369  1.00  0.00     0.267 C 
BRANCH  23  24
HETATM   24  N1  UNL     1      26.504   3.108  51.764  1.00  0.00    -0.372 N 
HETATM   25  H3  UNL     1      26.311   3.965  52.334  1.00  0.00     0.161 HD
BRANCH  24  26
HETATM   26  C4  UNL     1      27.165   2.036  52.409  1.00  0.00     0.031 A 
HETATM   27  C3  UNL     1      28.232   2.195  53.288  1.00  0.00     0.032 A 
HETATM   28  C2  UNL     1      28.929   1.201  53.932  1.00  0.00     0.046 A 
HETATM   29  C1  UNL     1      28.484  -0.067  53.639  1.00  0.00     0.138 A 
HETATM   30  F1  UNL     1      29.139  -1.107  54.234  1.00  0.00    -0.204 F 
HETATM   31  C22 UNL     1      27.442  -0.344  52.786  1.00  0.00     0.074 A 
HETATM   32  C21 UNL     1      26.793   0.736  52.179  1.00  0.00     0.056 A 
HETATM   33 CL1  UNL     1      26.943  -1.981  52.482  1.00  0.00    -0.081 Cl
ENDBRANCH  24  26
ENDBRANCH  23  24
ENDBRANCH   1  23
TORSDOF 3
ENDMDL
MODEL 6
REMARK VINA RESULT:      -8.3      5.268      8.803
REMARK  3 active torsions:
REMARK  status: ('A' for Active; 'I' for Inactive)
REMARK    1  A    between atoms: C4_5  and  N1_6 
REMARK    2  A    between atoms: N1_6  and  C5_7 
REMARK    3  A    between atoms: C5_7  and  N2_8 
ROOT
HETATM    1  N2  UNL     1      18.951   0.568  51.098  1.00  0.00    -0.274 N 
HETATM    2  C6  UNL     1      20.232   0.764  51.293  1.00  0.00     0.098 A 
HETATM    3  C7  UNL     1      20.763  -0.137  52.313  1.00  0.00     0.077 C 
HETATM    4  C8  UNL     1      21.626   0.303  53.399  1.00  0.00     0.034 C 
HETATM    5  C9  UNL     1      22.951   0.866  53.099  1.00  0.00    -0.030 C 
HETATM    6  C10 UNL     1      24.247   0.553  53.329  1.00  0.00    -0.031 C 
HETATM    7  C11 UNL     1      25.151  -0.409  53.940  1.00  0.00     0.028 C 
HETATM    8  C12 UNL     1      26.124  -0.973  52.899  1.00  0.00     0.034 C 
HETATM    9  C13 UNL     1      26.997   0.141  52.431  1.00  0.00     0.270 C 
HETATM   10  N3  UNL     1      26.320   1.037  51.558  1.00  0.00     0.083 N 
HETATM   11  C14 UNL     1      26.882   2.346  51.530  1.00  0.00     0.271 C 
HETATM   12  C15 UNL     1      26.462   3.275  50.447  1.00  0.00     0.060 C 
HETATM   13  C16 UNL     1      25.041   3.381  50.125  1.00  0.00     0.271 C 
HETATM   14  N4  UNL     1      24.032   3.677  51.090  1.00  0.00     0.085 N 
HETATM   15  C17 UNL     1      22.853   4.137  50.309  1.00  0.00     0.296 C 
HETATM   16  C18 UNL     1      21.611   4.362  51.006  1.00  0.00     0.204 C 
HETATM   17  O1  UNL     1      20.993   3.212  51.577  1.00  0.00    -0.359 OA
HETATM   18  C19 UNL     1      19.576   3.336  51.721  1.00  0.00     0.162 C 
HETATM   19  C20 UNL     1      19.648   2.863  50.478  1.00  0.00     0.085 C 
HETATM   20  N5  UNL     1      19.720   1.637  50.305  1.00  0.00    -0.140 NA
HETATM   21  H18 UNL     1      26.179   0.698  50.593  1.00  0.00     0.315 HD
HETATM   22  H25 UNL     1      24.317   4.412  51.722  1.00  0.00     0.315 HD
ENDROOT
BRANCH   1  23
HETATM   23  C5  UNL     1      18.096  -0.354  51.721  1.00  0.00     0.267 C 
BRANCH  23  24
HETATM   24  N1  UNL     1      16.704  -0.332  51.284  1.00  0.00    -0.372 N 
HETATM   25  H3  UNL     1      16.444  -0.821  50.395  1.00  0.00     0.161 HD
BRANCH  24  26
HETATM   26  C4  UNL     1      15.665   0.309  52.000  1.00  0.00     0.031 A 
HETATM   27  C3  UNL     1      14.619  -0.365  52.623  1.00  0.00     0.032 A 
HETATM   28  C2  UNL     1      13.571   0.193  53.315  1.00  0.00     0.046 A 
HETATM   29  C1  UNL     1      13.608   1.567  53.364  1.00  0.00     0.138 A 
HETATM   30  F1  UNL     1      12.591   2.192  54.026  1.00  0.00    -0.204 F 
HETATM   31  C22 UNL     1      14.590   2.336  52.785  1.00  0.00     0.074 A 
HETATM   32  C21 UNL     1      15.616   1.676  52.103  1.00  0.00     0.056 A 
HETATM   33 CL1  UNL     1      14.559   4.070  52.907  1.00  0.00    -0.081 Cl
ENDBRANCH  24  26
ENDBRANCH  23  24
ENDBRANCH   1  23
TORSDOF 3
ENDMDL
MODEL 7
REMARK VINA RESULT:      -8.3      3.239      7.013
REMARK  3 active torsions:
REMARK  status: ('A' for Active; 'I' for Inactive)
REMARK    1  A    between atoms: C4_5  and  N1_6 
REMARK    2  A    between atoms: N1_6  and  C5_7 
REMARK    3  A    between atoms: C5_7  and  N2_8 
ROOT
HETATM    1  N2  UNL     1      24.141   0.916  53.272  1.00  0.00    -0.274 N 
HETATM    2  C6  UNL     1      23.234   1.557  52.577  1.00  0.00     0.098 A 
HETATM    3  C7  UNL     1      22.167   0.663  52.133  1.00  0.00     0.077 C 
HETATM    4  C8  UNL     1      21.650   0.646  50.772  1.00  0.00     0.034 C 
HETATM    5  C9  UNL     1      20.981   1.837  50.229  1.00  0.00    -0.030 C 
HETATM    6  C10 UNL     1      19.748   2.179  49.788  1.00  0.00    -0.031 C 
HETATM    7  C11 UNL     1      18.391   1.709  49.559  1.00  0.00     0.028 C 
HETATM    8  C12 UNL     1      17.384   2.571  50.328  1.00  0.00     0.034 C 
HETATM    9  C13 UNL     1      17.422   3.947  49.755  1.00  0.00     0.270 C 
HETATM   10  N3  UNL     1      18.587   4.668  50.141  1.00  0.00     0.083 N 
HETATM   11  C14 UNL     1      18.946   5.706  49.234  1.00  0.00     0.271 C 
HETATM   12  C15 UNL     1      19.948   6.715  49.671  1.00  0.00     0.060 C 
HETATM   13  C16 UNL     1      21.161   6.252  50.341  1.00  0.00     0.271 C 
HETATM   14  N4  UNL     1      22.042   5.271  49.792  1.00  0.00     0.085 N 
HETATM   15  C17 UNL     1      23.326   5.430  50.525  1.00  0.00     0.296 C 
HETATM   16  C18 UNL     1      24.371   4.464  50.299  1.00  0.00     0.204 C 
HETATM   17  O1  UNL     1      24.100   3.132  50.727  1.00  0.00    -0.359 OA
HETATM   18  C19 UNL     1      25.276   2.379  51.033  1.00  0.00     0.162 C 
HETATM   19  C20 UNL     1      25.053   2.960  52.211  1.00  0.00     0.085 C 
HETATM   20  N5  UNL     1      24.266   2.424  53.004  1.00  0.00    -0.140 NA
HETATM   21  H18 UNL     1      18.585   5.034  51.106  1.00  0.00     0.315 HD
HETATM   22  H25 UNL     1      22.204   5.417  48.806  1.00  0.00     0.315 HD
ENDROOT
BRANCH   1  23
HETATM   23  C5  UNL     1      24.190  -0.445  53.613  1.00  0.00     0.267 C 
BRANCH  23  24
HETATM   24  N1  UNL     1      25.303  -0.850  54.465  1.00  0.00    -0.372 N 
HETATM   25  H3  UNL     1      25.097  -1.319  55.379  1.00  0.00     0.161 HD
BRANCH  24  26
HETATM   26  C4  UNL     1      26.664  -0.658  54.127  1.00  0.00     0.031 A 
HETATM   27  C3  UNL     1      27.423  -1.575  53.405  1.00  0.00     0.032 A 
HETATM   28  C2  UNL     1      28.748  -1.461  53.059  1.00  0.00     0.046 A 
HETATM   29  C1  UNL     1      29.339  -0.301  53.502  1.00  0.00     0.138 A 
HETATM   30  F1  UNL     1      30.660  -0.125  53.206  1.00  0.00    -0.204 F 
HETATM   31  C22 UNL     1      28.688   0.673  54.223  1.00  0.00     0.074 A 
HETATM   32  C21 UNL     1      27.339   0.467  54.525  1.00  0.00     0.056 A 
HETATM   33 CL1  UNL     1      29.516   2.114  54.733  1.00  0.00    -0.081 Cl
ENDBRANCH  24  26
ENDBRANCH  23  24
ENDBRANCH   1  23
TORSDOF 3
ENDMDL
MODEL 8
REMARK VINA RESULT:      -8.3      2.195      3.011
REMARK  3 active torsions:
REMARK  status: ('A' for Active; 'I' for Inactive)
REMARK    1  A    between atoms: C4_5  and  N1_6 
REMARK    2  A    between atoms: N1_6  and  C5_7 
REMARK    3  A    between atoms: C5_7  and  N2_8 
ROOT
HETATM    1  N2  UNL     1      24.090   5.662  49.116  1.00  0.00    -0.274 N 
HETATM    2  C6  UNL     1      24.320   4.636  49.898  1.00  0.00     0.098 A 
HETATM    3  C7  UNL     1      25.751   4.382  50.041  1.00  0.00     0.077 C 
HETATM    4  C8  UNL     1      26.345   3.058  49.926  1.00  0.00     0.034 C 
HETATM    5  C9  UNL     1      25.986   2.008  50.890  1.00  0.00    -0.030 C 
HETATM    6  C10 UNL     1      26.601   1.270  51.842  1.00  0.00    -0.031 C 
HETATM    7  C11 UNL     1      27.863   1.006  52.516  1.00  0.00     0.028 C 
HETATM    8  C12 UNL     1      27.723   1.219  54.027  1.00  0.00     0.034 C 
HETATM    9  C13 UNL     1      26.778   0.193  54.553  1.00  0.00     0.270 C 
HETATM   10  N3  UNL     1      25.424   0.475  54.220  1.00  0.00     0.083 N 
HETATM   11  C14 UNL     1      24.586  -0.677  54.197  1.00  0.00     0.271 C 
HETATM   12  C15 UNL     1      23.112  -0.482  54.163  1.00  0.00     0.060 C 
HETATM   13  C16 UNL     1      22.557   0.506  53.241  1.00  0.00     0.271 C 
HETATM   14  N4  UNL     1      22.825   0.517  51.838  1.00  0.00     0.085 N 
HETATM   15  C17 UNL     1      21.750   1.344  51.230  1.00  0.00     0.296 C 
HETATM   16  C18 UNL     1      21.843   1.671  49.829  1.00  0.00     0.204 C 
HETATM   17  O1  UNL     1      22.931   2.510  49.450  1.00  0.00    -0.359 OA
HETATM   18  C19 UNL     1      22.684   3.267  48.263  1.00  0.00     0.162 C 
HETATM   19  C20 UNL     1      22.177   4.090  49.180  1.00  0.00     0.085 C 
HETATM   20  N5  UNL     1      22.934   4.880  49.761  1.00  0.00    -0.140 NA
HETATM   21  H18 UNL     1      24.974   1.221  54.774  1.00  0.00     0.315 HD
HETATM   22  H25 UNL     1      22.794  -0.411  51.440  1.00  0.00     0.315 HD
ENDROOT
BRANCH   1  23
HETATM   23  C5  UNL     1      25.010   6.485  48.449  1.00  0.00     0.267 C 
BRANCH  23  24
HETATM   24  N1  UNL     1      25.656   7.510  49.263  1.00  0.00    -0.372 N 
HETATM   25  H3  UNL     1      25.089   8.018  49.983  1.00  0.00     0.161 HD
BRANCH  24  26
HETATM   26  C4  UNL     1      27.022   7.862  49.148  1.00  0.00     0.031 A 
HETATM   27  C3  UNL     1      27.569   9.035  49.659  1.00  0.00     0.032 A 
HETATM   28  C2  UNL     1      28.877   9.447  49.568  1.00  0.00     0.046 A 
HETATM   29  C1  UNL     1      29.688   8.569  48.887  1.00  0.00     0.138 A 
HETATM   30  F1  UNL     1      31.000   8.918  48.745  1.00  0.00    -0.204 F 
HETATM   31  C22 UNL     1      29.257   7.383  48.339  1.00  0.00     0.074 A 
HETATM   32  C21 UNL     1      27.907   7.050  48.485  1.00  0.00     0.056 A 
HETATM   33 CL1  UNL     1      30.358   6.331  47.501  1.00  0.00    -0.081 Cl
ENDBRANCH  24  26
ENDBRANCH  23  24
ENDBRANCH   1  23
TORSDOF 3
ENDMDL
MODEL 9
REMARK VINA RESULT:      -8.2      4.063      6.120
REMARK  3 active torsions:
REMARK  status: ('A' for Active; 'I' for Inactive)
REMARK    1  A    between atoms: C4_5  and  N1_6 
REMARK    2  A    between atoms: N1_6  and  C5_7 
REMARK    3  A    between atoms: C5_7  and  N2_8 
ROOT
HETATM    1  N2  UNL     1      22.862   4.177  51.600  1.00  0.00    -0.274 N 
HETATM    2  C6  UNL     1      21.769   3.537  51.264  1.00  0.00     0.098 A 
HETATM    3  C7  UNL     1      21.522   2.397  52.143  1.00  0.00     0.077 C 
HETATM    4  C8  UNL     1      21.163   1.073  51.657  1.00  0.00     0.034 C 
HETATM    5  C9  UNL     1      19.900   0.880  50.928  1.00  0.00    -0.030 C 
HETATM    6  C10 UNL     1      18.741   0.202  51.096  1.00  0.00    -0.031 C 
HETATM    7  C11 UNL     1      17.997  -0.688  51.972  1.00  0.00     0.028 C 
HETATM    8  C12 UNL     1      16.656  -0.061  52.367  1.00  0.00     0.034 C 
HETATM    9  C13 UNL     1      15.823   0.061  51.137  1.00  0.00     0.270 C 
HETATM   10  N3  UNL     1      16.256   1.117  50.286  1.00  0.00     0.083 N 
HETATM   11  C14 UNL     1      15.892   0.939  48.920  1.00  0.00     0.271 C 
HETATM   12  C15 UNL     1      16.015   2.098  47.997  1.00  0.00     0.060 C 
HETATM   13  C16 UNL     1      17.232   2.906  48.045  1.00  0.00     0.271 C 
HETATM   14  N4  UNL     1      18.546   2.364  47.916  1.00  0.00     0.085 N 
HETATM   15  C17 UNL     1      19.421   3.513  47.561  1.00  0.00     0.296 C 
HETATM   16  C18 UNL     1      20.847   3.304  47.518  1.00  0.00     0.204 C 
HETATM   17  O1  UNL     1      21.475   2.994  48.759  1.00  0.00    -0.359 OA
HETATM   18  C19 UNL     1      22.855   3.365  48.811  1.00  0.00     0.162 C 
HETATM   19  C20 UNL     1      22.288   4.502  49.212  1.00  0.00     0.085 C 
HETATM   20  N5  UNL     1      22.005   4.640  50.411  1.00  0.00    -0.140 NA
HETATM   21  H18 UNL     1      16.002   2.069  50.593  1.00  0.00     0.315 HD
HETATM   22  H25 UNL     1      18.600   1.670  47.184  1.00  0.00     0.315 HD
ENDROOT
BRANCH   1  23
HETATM   23  C5  UNL     1      23.757   3.902  52.645  1.00  0.00     0.267 C 
BRANCH  23  24
HETATM   24  N1  UNL     1      25.048   3.349  52.251  1.00  0.00    -0.372 N 
HETATM   25  H3  UNL     1      25.748   3.977  51.788  1.00  0.00     0.161 HD
BRANCH  24  26
HETATM   26  C4  UNL     1      25.427   2.003  52.466  1.00  0.00     0.031 A 
HETATM   27  C3  UNL     1      26.413   1.346  51.736  1.00  0.00     0.032 A 
HETATM   28  C2  UNL     1      26.817   0.040  51.879  1.00  0.00     0.046 A 
HETATM   29  C1  UNL     1      26.139  -0.645  52.861  1.00  0.00     0.138 A 
HETATM   30  F1  UNL     1      26.479  -1.954  53.051  1.00  0.00    -0.204 F 
HETATM   31  C22 UNL     1      25.148  -0.100  53.642  1.00  0.00     0.074 A 
HETATM   32  C21 UNL     1      24.808   1.239  53.422  1.00  0.00     0.056 A 
HETATM   33 CL1  UNL     1      24.352  -1.042  54.866  1.00  0.00    -0.081 Cl
ENDBRANCH  24  26
ENDBRANCH  23  24
ENDBRANCH   1  23
TORSDOF 3
ENDMDL
