MODEL 1
REMARK VINA RESULT:      -7.3      0.000      0.000
REMARK  6 active torsions:
REMARK  status: ('A' for Active; 'I' for Inactive)
REMARK    1  A    between atoms: C2_2  and  N1_3 
REMARK    2  A    between atoms: N1_3  and  C4_5 
REMARK    3  A    between atoms: C4_5  and  C5_6 
REMARK    4  A    between atoms: C5_6  and  C6_7 
REMARK       I    between atoms: C6_7  and  N2_9 
REMARK    5  A    between atoms: N2_9  and  C7_10 
REMARK    6  A    between atoms: C13_19  and  N6_20 
ROOT
HETATM    1  C7  UNL     1      24.502  -0.918  54.486  1.00  0.00     0.053 A 
HETATM    2  C8  UNL     1      23.705  -1.470  55.453  1.00  0.00     0.148 A 
HETATM    3  N3  UNL     1      22.353  -1.448  55.356  1.00  0.00    -0.238 NA
HETATM    4  C9  UNL     1      21.772  -0.872  54.291  1.00  0.00     0.161 A 
HETATM    5  N4  UNL     1      20.424  -0.882  54.220  1.00  0.00    -0.239 NA
HETATM    6  C10 UNL     1      19.780  -0.324  53.155  1.00  0.00     0.144 A 
HETATM    7  C11 UNL     1      20.524   0.262  52.133  1.00  0.00     0.090 A 
HETATM    8  C12 UNL     1      19.768   0.811  51.066  1.00  0.00     0.103 C 
HETATM    9  N5  UNL     1      19.161   1.277  50.197  1.00  0.00    -0.191 NA
HETATM   10  C13 UNL     1      21.896   0.262  52.219  1.00  0.00     0.078 A 
HETATM   11  C15 UNL     1      22.530  -0.303  53.295  1.00  0.00     0.043 A 
HETATM   12  C16 UNL     1      23.899  -0.322  53.389  1.00  0.00     0.048 A 
ENDROOT
BRANCH  10  13
HETATM   13  N6  UNL     1      22.577   0.867  51.131  1.00  0.00    -0.291 N 
HETATM   14  C14 UNL     1      22.860   2.271  51.071  1.00  0.00     0.182 C 
HETATM   15  N7  UNL     1      23.103   3.396  51.036  1.00  0.00    -0.172 NA
HETATM   16  H14 UNL     1      22.933   0.345  50.279  1.00  0.00     0.178 HD
ENDBRANCH  10  13
BRANCH   1  17
HETATM   17  N2  UNL     1      25.923  -0.837  54.437  1.00  0.00    -0.326 N 
HETATM   18  C6  UNL     1      26.752   0.186  54.980  1.00  0.00     0.223 C 
HETATM   19  O1  UNL     1      26.092   1.116  55.557  1.00  0.00    -0.273 OA
HETATM   20  H11 UNL     1      26.261  -1.680  53.919  1.00  0.00     0.169 HD
BRANCH  18  21
HETATM   21  C5  UNL     1      28.229  -0.032  54.769  1.00  0.00     0.123 C 
BRANCH  21  22
HETATM   22  C4  UNL     1      28.560   0.188  53.322  1.00  0.00     0.131 C 
BRANCH  22  23
HETATM   23  N1  UNL     1      28.196   1.558  52.987  1.00  0.00    -0.395 N 
HETATM   24  C3  UNL     1      29.015   2.485  53.763  1.00  0.00     0.148 C 
BRANCH  23  25
HETATM   25  C2  UNL     1      27.285   2.227  52.130  1.00  0.00     0.075 C 
HETATM   26  C1  UNL     1      26.435   1.557  51.391  1.00  0.00     0.029 C 
ENDBRANCH  23  25
ENDBRANCH  22  23
ENDBRANCH  21  22
ENDBRANCH  18  21
ENDBRANCH   1  17
TORSDOF 6
ENDMDL
MODEL 2
REMARK VINA RESULT:      -7.2      2.034      3.729
REMARK  6 active torsions:
REMARK  status: ('A' for Active; 'I' for Inactive)
REMARK    1  A    between atoms: C2_2  and  N1_3 
REMARK    2  A    between atoms: N1_3  and  C4_5 
REMARK    3  A    between atoms: C4_5  and  C5_6 
REMARK    4  A    between atoms: C5_6  and  C6_7 
REMARK       I    between atoms: C6_7  and  N2_9 
REMARK    5  A    between atoms: N2_9  and  C7_10 
REMARK    6  A    between atoms: C13_19  and  N6_20 
ROOT
HETATM    1  C7  UNL     1      24.413   2.887  52.958  1.00  0.00     0.053 A 
HETATM    2  C8  UNL     1      23.873   4.114  52.681  1.00  0.00     0.148 A 
HETATM    3  N3  UNL     1      22.560   4.260  52.376  1.00  0.00    -0.238 NA
HETATM    4  C9  UNL     1      21.761   3.180  52.343  1.00  0.00     0.161 A 
HETATM    5  N4  UNL     1      20.457   3.364  52.051  1.00  0.00    -0.239 NA
HETATM    6  C10 UNL     1      19.596   2.307  52.016  1.00  0.00     0.144 A 
HETATM    7  C11 UNL     1      20.073   1.025  52.284  1.00  0.00     0.090 A 
HETATM    8  C12 UNL     1      19.104  -0.010  52.228  1.00  0.00     0.103 C 
HETATM    9  N5  UNL     1      18.325  -0.865  52.171  1.00  0.00    -0.191 NA
HETATM   10  C13 UNL     1      21.404   0.855  52.580  1.00  0.00     0.078 A 
HETATM   11  C15 UNL     1      22.257   1.927  52.612  1.00  0.00     0.043 A 
HETATM   12  C16 UNL     1      23.586   1.774  52.920  1.00  0.00     0.048 A 
ENDROOT
BRANCH  10  13
HETATM   13  N6  UNL     1      21.804  -0.480  52.852  1.00  0.00    -0.291 N 
HETATM   14  C14 UNL     1      21.913  -1.006  54.182  1.00  0.00     0.182 C 
HETATM   15  N7  UNL     1      21.979  -1.431  55.250  1.00  0.00    -0.172 NA
HETATM   16  H14 UNL     1      22.053  -1.196  52.111  1.00  0.00     0.178 HD
ENDBRANCH  10  13
BRANCH   1  17
HETATM   17  N2  UNL     1      25.760   2.553  53.275  1.00  0.00    -0.326 N 
HETATM   18  C6  UNL     1      26.845   2.374  52.370  1.00  0.00     0.223 C 
HETATM   19  O1  UNL     1      26.512   2.534  51.147  1.00  0.00    -0.273 OA
HETATM   20  H11 UNL     1      25.816   2.458  54.315  1.00  0.00     0.169 HD
BRANCH  18  21
HETATM   21  C5  UNL     1      28.158   2.037  53.030  1.00  0.00     0.123 C 
BRANCH  21  22
HETATM   22  C4  UNL     1      27.922   1.027  54.114  1.00  0.00     0.131 C 
BRANCH  22  23
HETATM   23  N1  UNL     1      27.892  -0.291  53.493  1.00  0.00    -0.395 N 
HETATM   24  C3  UNL     1      29.187  -0.943  53.665  1.00  0.00     0.148 C 
BRANCH  23  25
HETATM   25  C2  UNL     1      26.969  -1.100  52.784  1.00  0.00     0.075 C 
HETATM   26  C1  UNL     1      25.698  -1.118  53.104  1.00  0.00     0.029 C 
ENDBRANCH  23  25
ENDBRANCH  22  23
ENDBRANCH  21  22
ENDBRANCH  18  21
ENDBRANCH   1  17
TORSDOF 6
ENDMDL
MODEL 3
REMARK VINA RESULT:      -7.0      4.386      6.917
REMARK  6 active torsions:
REMARK  status: ('A' for Active; 'I' for Inactive)
REMARK    1  A    between atoms: C2_2  and  N1_3 
REMARK    2  A    between atoms: N1_3  and  C4_5 
REMARK    3  A    between atoms: C4_5  and  C5_6 
REMARK    4  A    between atoms: C5_6  and  C6_7 
REMARK       I    between atoms: C6_7  and  N2_9 
REMARK    5  A    between atoms: N2_9  and  C7_10 
REMARK    6  A    between atoms: C13_19  and  N6_20 
ROOT
HETATM    1  C7  UNL     1      26.117   4.150  49.500  1.00  0.00     0.053 A 
HETATM    2  C8  UNL     1      24.767   4.294  49.319  1.00  0.00     0.148 A 
HETATM    3  N3  UNL     1      23.874   3.548  50.013  1.00  0.00    -0.238 NA
HETATM    4  C9  UNL     1      24.313   2.643  50.903  1.00  0.00     0.161 A 
HETATM    5  N4  UNL     1      23.395   1.928  51.588  1.00  0.00    -0.239 NA
HETATM    6  C10 UNL     1      23.782   1.005  52.514  1.00  0.00     0.144 A 
HETATM    7  C11 UNL     1      25.140   0.799  52.751  1.00  0.00     0.090 A 
HETATM    8  C12 UNL     1      25.447  -0.178  53.734  1.00  0.00     0.103 C 
HETATM    9  N5  UNL     1      25.708  -0.984  54.523  1.00  0.00    -0.191 NA
HETATM   10  C13 UNL     1      26.062   1.535  52.047  1.00  0.00     0.078 A 
HETATM   11  C15 UNL     1      25.658   2.460  51.120  1.00  0.00     0.043 A 
HETATM   12  C16 UNL     1      26.567   3.213  50.418  1.00  0.00     0.048 A 
ENDROOT
BRANCH  10  13
HETATM   13  N6  UNL     1      27.422   1.273  52.358  1.00  0.00    -0.291 N 
HETATM   14  C14 UNL     1      28.153   2.011  53.346  1.00  0.00     0.182 C 
HETATM   15  N7  UNL     1      28.730   2.593  54.155  1.00  0.00    -0.172 NA
HETATM   16  H14 UNL     1      28.010   0.519  51.897  1.00  0.00     0.178 HD
ENDBRANCH  10  13
BRANCH   1  17
HETATM   17  N2  UNL     1      27.185   4.830  48.849  1.00  0.00    -0.326 N 
HETATM   18  C6  UNL     1      27.333   6.234  48.663  1.00  0.00     0.223 C 
HETATM   19  O1  UNL     1      26.364   6.911  49.147  1.00  0.00    -0.273 OA
HETATM   20  H11 UNL     1      27.859   4.100  48.521  1.00  0.00     0.169 HD
BRANCH  18  21
HETATM   21  C5  UNL     1      28.594   6.638  47.940  1.00  0.00     0.123 C 
BRANCH  21  22
HETATM   22  C4  UNL     1      29.694   5.680  48.292  1.00  0.00     0.131 C 
BRANCH  22  23
HETATM   23  N1  UNL     1      30.819   6.461  48.791  1.00  0.00    -0.395 N 
HETATM   24  C3  UNL     1      31.971   5.588  48.990  1.00  0.00     0.148 C 
BRANCH  23  25
HETATM   25  C2  UNL     1      31.097   7.810  49.125  1.00  0.00     0.075 C 
HETATM   26  C1  UNL     1      31.754   8.591  48.302  1.00  0.00     0.029 C 
ENDBRANCH  23  25
ENDBRANCH  22  23
ENDBRANCH  21  22
ENDBRANCH  18  21
ENDBRANCH   1  17
TORSDOF 6
ENDMDL
MODEL 4
REMARK VINA RESULT:      -7.0      2.950      4.443
REMARK  6 active torsions:
REMARK  status: ('A' for Active; 'I' for Inactive)
REMARK    1  A    between atoms: C2_2  and  N1_3 
REMARK    2  A    between atoms: N1_3  and  C4_5 
REMARK    3  A    between atoms: C4_5  and  C5_6 
REMARK    4  A    between atoms: C5_6  and  C6_7 
REMARK       I    between atoms: C6_7  and  N2_9 
REMARK    5  A    between atoms: N2_9  and  C7_10 
REMARK    6  A    between atoms: C13_19  and  N6_20 
ROOT
HETATM    1  C7  UNL     1      24.830   2.422  53.085  1.00  0.00     0.053 A 
HETATM    2  C8  UNL     1      23.831   1.496  52.944  1.00  0.00     0.148 A 
HETATM    3  N3  UNL     1      22.617   1.832  52.442  1.00  0.00    -0.238 NA
HETATM    4  C9  UNL     1      22.379   3.101  52.071  1.00  0.00     0.161 A 
HETATM    5  N4  UNL     1      21.165   3.396  51.560  1.00  0.00    -0.239 NA
HETATM    6  C10 UNL     1      20.870   4.664  51.155  1.00  0.00     0.144 A 
HETATM    7  C11 UNL     1      21.835   5.663  51.271  1.00  0.00     0.090 A 
HETATM    8  C12 UNL     1      21.440   6.948  50.820  1.00  0.00     0.103 C 
HETATM    9  N5  UNL     1      21.123   8.005  50.468  1.00  0.00    -0.191 NA
HETATM   10  C13 UNL     1      23.067   5.346  51.791  1.00  0.00     0.078 A 
HETATM   11  C15 UNL     1      23.349   4.066  52.194  1.00  0.00     0.043 A 
HETATM   12  C16 UNL     1      24.579   3.731  52.703  1.00  0.00     0.048 A 
ENDROOT
BRANCH  10  13
HETATM   13  N6  UNL     1      23.995   6.417  51.863  1.00  0.00    -0.291 N 
HETATM   14  C14 UNL     1      24.901   6.738  50.799  1.00  0.00     0.182 C 
HETATM   15  N7  UNL     1      25.612   7.004  49.933  1.00  0.00    -0.172 NA
HETATM   16  H14 UNL     1      24.100   7.068  52.695  1.00  0.00     0.178 HD
ENDBRANCH  10  13
BRANCH   1  17
HETATM   17  N2  UNL     1      26.143   2.249  53.606  1.00  0.00    -0.326 N 
HETATM   18  C6  UNL     1      27.364   2.189  52.876  1.00  0.00     0.223 C 
HETATM   19  O1  UNL     1      27.202   2.298  51.614  1.00  0.00    -0.273 OA
HETATM   20  H11 UNL     1      26.053   2.171  54.646  1.00  0.00     0.169 HD
BRANCH  18  21
HETATM   21  C5  UNL     1      28.593   2.011  53.732  1.00  0.00     0.123 C 
BRANCH  21  22
HETATM   22  C4  UNL     1      28.443   0.770  54.562  1.00  0.00     0.131 C 
BRANCH  22  23
HETATM   23  N1  UNL     1      28.626  -0.377  53.682  1.00  0.00    -0.395 N 
HETATM   24  C3  UNL     1      30.050  -0.666  53.545  1.00  0.00     0.148 C 
BRANCH  23  25
HETATM   25  C2  UNL     1      27.817  -1.274  52.939  1.00  0.00     0.075 C 
HETATM   26  C1  UNL     1      26.511  -1.261  53.053  1.00  0.00     0.029 C 
ENDBRANCH  23  25
ENDBRANCH  22  23
ENDBRANCH  21  22
ENDBRANCH  18  21
ENDBRANCH   1  17
TORSDOF 6
ENDMDL
MODEL 5
REMARK VINA RESULT:      -6.9      3.717      6.256
REMARK  6 active torsions:
REMARK  status: ('A' for Active; 'I' for Inactive)
REMARK    1  A    between atoms: C2_2  and  N1_3 
REMARK    2  A    between atoms: N1_3  and  C4_5 
REMARK    3  A    between atoms: C4_5  and  C5_6 
REMARK    4  A    between atoms: C5_6  and  C6_7 
REMARK       I    between atoms: C6_7  and  N2_9 
REMARK    5  A    between atoms: N2_9  and  C7_10 
REMARK    6  A    between atoms: C13_19  and  N6_20 
ROOT
HETATM    1  C7  UNL     1      23.757   4.080  52.035  1.00  0.00     0.053 A 
HETATM    2  C8  UNL     1      22.521   3.575  52.341  1.00  0.00     0.148 A 
HETATM    3  N3  UNL     1      22.353   2.278  52.699  1.00  0.00    -0.238 NA
HETATM    4  C9  UNL     1      23.418   1.461  52.759  1.00  0.00     0.161 A 
HETATM    5  N4  UNL     1      23.216   0.181  53.134  1.00  0.00    -0.239 NA
HETATM    6  C10 UNL     1      24.261  -0.691  53.225  1.00  0.00     0.144 A 
HETATM    7  C11 UNL     1      25.549  -0.251  52.925  1.00  0.00     0.090 A 
HETATM    8  C12 UNL     1      26.572  -1.225  53.052  1.00  0.00     0.103 C 
HETATM    9  N5  UNL     1      27.413  -2.017  53.137  1.00  0.00    -0.191 NA
HETATM   10  C13 UNL     1      25.738   1.057  52.546  1.00  0.00     0.078 A 
HETATM   11  C15 UNL     1      24.679   1.921  52.459  1.00  0.00     0.043 A 
HETATM   12  C16 UNL     1      24.853   3.233  52.095  1.00  0.00     0.048 A 
ENDROOT
BRANCH  10  13
HETATM   13  N6  UNL     1      27.081   1.426  52.271  1.00  0.00    -0.291 N 
HETATM   14  C14 UNL     1      27.920   2.087  53.227  1.00  0.00     0.182 C 
HETATM   15  N7  UNL     1      28.597   2.598  54.005  1.00  0.00    -0.172 NA
HETATM   16  H14 UNL     1      27.577   1.249  51.350  1.00  0.00     0.178 HD
ENDBRANCH  10  13
BRANCH   1  17
HETATM   17  N2  UNL     1      24.108   5.397  51.625  1.00  0.00    -0.326 N 
HETATM   18  C6  UNL     1      24.249   5.882  50.293  1.00  0.00     0.223 C 
HETATM   19  O1  UNL     1      24.035   4.988  49.407  1.00  0.00    -0.273 OA
HETATM   20  H11 UNL     1      24.249   5.962  52.495  1.00  0.00     0.169 HD
BRANCH  18  21
HETATM   21  C5  UNL     1      24.620   7.341  50.198  1.00  0.00     0.123 C 
BRANCH  21  22
HETATM   22  C4  UNL     1      25.116   7.635  48.812  1.00  0.00     0.131 C 
BRANCH  22  23
HETATM   23  N1  UNL     1      26.550   7.379  48.792  1.00  0.00    -0.395 N 
HETATM   24  C3  UNL     1      27.233   8.348  49.646  1.00  0.00     0.148 C 
BRANCH  23  25
HETATM   25  C2  UNL     1      27.448   6.464  48.187  1.00  0.00     0.075 C 
HETATM   26  C1  UNL     1      27.594   5.248  48.654  1.00  0.00     0.029 C 
ENDBRANCH  23  25
ENDBRANCH  22  23
ENDBRANCH  21  22
ENDBRANCH  18  21
ENDBRANCH   1  17
TORSDOF 6
ENDMDL
MODEL 6
REMARK VINA RESULT:      -6.8      3.439      5.576
REMARK  6 active torsions:
REMARK  status: ('A' for Active; 'I' for Inactive)
REMARK    1  A    between atoms: C2_2  and  N1_3 
REMARK    2  A    between atoms: N1_3  and  C4_5 
REMARK    3  A    between atoms: C4_5  and  C5_6 
REMARK    4  A    between atoms: C5_6  and  C6_7 
REMARK       I    between atoms: C6_7  and  N2_9 
REMARK    5  A    between atoms: N2_9  and  C7_10 
REMARK    6  A    between atoms: C13_19  and  N6_20 
ROOT
HETATM    1  C7  UNL     1      26.294   2.697  51.865  1.00  0.00     0.053 A 
HETATM    2  C8  UNL     1      27.393   2.076  52.395  1.00  0.00     0.148 A 
HETATM    3  N3  UNL     1      27.275   1.003  53.215  1.00  0.00    -0.238 NA
HETATM    4  C9  UNL     1      26.055   0.530  53.521  1.00  0.00     0.161 A 
HETATM    5  N4  UNL     1      25.976  -0.549  54.328  1.00  0.00    -0.239 NA
HETATM    6  C10 UNL     1      24.765  -1.080  54.662  1.00  0.00     0.144 A 
HETATM    7  C11 UNL     1      23.600  -0.499  54.163  1.00  0.00     0.090 A 
HETATM    8  C12 UNL     1      22.389  -1.123  54.560  1.00  0.00     0.103 C 
HETATM    9  N5  UNL     1      21.395  -1.615  54.891  1.00  0.00    -0.191 NA
HETATM   10  C13 UNL     1      23.698   0.598  53.342  1.00  0.00     0.078 A 
HETATM   11  C15 UNL     1      24.922   1.121  53.014  1.00  0.00     0.043 A 
HETATM   12  C16 UNL     1      25.036   2.209  52.184  1.00  0.00     0.048 A 
ENDROOT
BRANCH  10  13
HETATM   13  N6  UNL     1      22.466   1.120  52.869  1.00  0.00    -0.291 N 
HETATM   14  C14 UNL     1      21.867   0.708  51.632  1.00  0.00     0.182 C 
HETATM   15  N7  UNL     1      21.380   0.359  50.649  1.00  0.00    -0.172 NA
HETATM   16  H14 UNL     1      21.885   1.848  53.377  1.00  0.00     0.178 HD
ENDBRANCH  10  13
BRANCH   1  17
HETATM   17  N2  UNL     1      26.234   3.835  51.011  1.00  0.00    -0.326 N 
HETATM   18  C6  UNL     1      26.560   3.897  49.625  1.00  0.00     0.223 C 
HETATM   19  O1  UNL     1      26.953   2.778  49.150  1.00  0.00    -0.273 OA
HETATM   20  H11 UNL     1      25.902   4.638  51.592  1.00  0.00     0.169 HD
BRANCH  18  21
HETATM   21  C5  UNL     1      26.375   5.258  49.002  1.00  0.00     0.123 C 
BRANCH  21  22
HETATM   22  C4  UNL     1      25.329   6.015  49.767  1.00  0.00     0.131 C 
BRANCH  22  23
HETATM   23  N1  UNL     1      25.734   7.414  49.805  1.00  0.00    -0.395 N 
HETATM   24  C3  UNL     1      24.645   8.224  50.342  1.00  0.00     0.148 C 
BRANCH  23  25
HETATM   25  C2  UNL     1      26.873   8.189  49.472  1.00  0.00     0.075 C 
HETATM   26  C1  UNL     1      27.244   9.203  50.216  1.00  0.00     0.029 C 
ENDBRANCH  23  25
ENDBRANCH  22  23
ENDBRANCH  21  22
ENDBRANCH  18  21
ENDBRANCH   1  17
TORSDOF 6
ENDMDL
MODEL 7
REMARK VINA RESULT:      -6.8      2.373      6.345
REMARK  6 active torsions:
REMARK  status: ('A' for Active; 'I' for Inactive)
REMARK    1  A    between atoms: C2_2  and  N1_3 
REMARK    2  A    between atoms: N1_3  and  C4_5 
REMARK    3  A    between atoms: C4_5  and  C5_6 
REMARK    4  A    between atoms: C5_6  and  C6_7 
REMARK       I    between atoms: C6_7  and  N2_9 
REMARK    5  A    between atoms: N2_9  and  C7_10 
REMARK    6  A    between atoms: C13_19  and  N6_20 
ROOT
HETATM    1  C7  UNL     1      22.283   0.600  52.318  1.00  0.00     0.053 A 
HETATM    2  C8  UNL     1      22.251  -0.541  53.075  1.00  0.00     0.148 A 
HETATM    3  N3  UNL     1      23.319  -0.935  53.811  1.00  0.00    -0.238 NA
HETATM    4  C9  UNL     1      24.441  -0.195  53.804  1.00  0.00     0.161 A 
HETATM    5  N4  UNL     1      25.479  -0.610  54.560  1.00  0.00    -0.239 NA
HETATM    6  C10 UNL     1      26.638   0.107  54.602  1.00  0.00     0.144 A 
HETATM    7  C11 UNL     1      26.748   1.279  53.855  1.00  0.00     0.090 A 
HETATM    8  C12 UNL     1      27.988   1.959  53.965  1.00  0.00     0.103 C 
HETATM    9  N5  UNL     1      29.001   2.514  54.035  1.00  0.00    -0.191 NA
HETATM   10  C13 UNL     1      25.681   1.688  53.091  1.00  0.00     0.078 A 
HETATM   11  C15 UNL     1      24.522   0.957  53.059  1.00  0.00     0.043 A 
HETATM   12  C16 UNL     1      23.443   1.359  52.311  1.00  0.00     0.048 A 
ENDROOT
BRANCH  10  13
HETATM   13  N6  UNL     1      25.871   2.896  52.371  1.00  0.00    -0.291 N 
HETATM   14  C14 UNL     1      26.355   2.933  51.022  1.00  0.00     0.182 C 
HETATM   15  N7  UNL     1      26.724   2.956  49.931  1.00  0.00    -0.172 NA
HETATM   16  H14 UNL     1      25.676   3.864  52.758  1.00  0.00     0.178 HD
ENDBRANCH  10  13
BRANCH   1  17
HETATM   17  N2  UNL     1      21.270   1.146  51.480  1.00  0.00    -0.326 N 
HETATM   18  C6  UNL     1      20.236   2.054  51.848  1.00  0.00     0.223 C 
HETATM   19  O1  UNL     1      20.263   2.372  53.085  1.00  0.00    -0.273 OA
HETATM   20  H11 UNL     1      21.421   0.754  50.522  1.00  0.00     0.169 HD
BRANCH  18  21
HETATM   21  C5  UNL     1      19.326   2.455  50.714  1.00  0.00     0.123 C 
BRANCH  21  22
HETATM   22  C4  UNL     1      19.376   3.945  50.543  1.00  0.00     0.131 C 
BRANCH  22  23
HETATM   23  N1  UNL     1      20.703   4.290  50.051  1.00  0.00    -0.395 N 
HETATM   24  C3  UNL     1      21.256   5.377  50.854  1.00  0.00     0.148 C 
BRANCH  23  25
HETATM   25  C2  UNL     1      21.590   3.866  49.029  1.00  0.00     0.075 C 
HETATM   26  C1  UNL     1      22.853   3.624  49.284  1.00  0.00     0.029 C 
ENDBRANCH  23  25
ENDBRANCH  22  23
ENDBRANCH  21  22
ENDBRANCH  18  21
ENDBRANCH   1  17
TORSDOF 6
ENDMDL
MODEL 8
REMARK VINA RESULT:      -6.7      2.366      7.224
REMARK  6 active torsions:
REMARK  status: ('A' for Active; 'I' for Inactive)
REMARK    1  A    between atoms: C2_2  and  N1_3 
REMARK    2  A    between atoms: N1_3  and  C4_5 
REMARK    3  A    between atoms: C4_5  and  C5_6 
REMARK    4  A    between atoms: C5_6  and  C6_7 
REMARK       I    between atoms: C6_7  and  N2_9 
REMARK    5  A    between atoms: N2_9  and  C7_10 
REMARK    6  A    between atoms: C13_19  and  N6_20 
ROOT
HETATM    1  C7  UNL     1      22.050   0.744  52.153  1.00  0.00     0.053 A 
HETATM    2  C8  UNL     1      22.008  -0.411  52.887  1.00  0.00     0.148 A 
HETATM    3  N3  UNL     1      23.074  -0.829  53.613  1.00  0.00    -0.238 NA
HETATM    4  C9  UNL     1      24.202  -0.100  53.619  1.00  0.00     0.161 A 
HETATM    5  N4  UNL     1      25.238  -0.538  54.365  1.00  0.00    -0.239 NA
HETATM    6  C10 UNL     1      26.403   0.167  54.420  1.00  0.00     0.144 A 
HETATM    7  C11 UNL     1      26.523   1.353  53.696  1.00  0.00     0.090 A 
HETATM    8  C12 UNL     1      27.769   2.020  53.818  1.00  0.00     0.103 C 
HETATM    9  N5  UNL     1      28.787   2.564  53.898  1.00  0.00    -0.191 NA
HETATM   10  C13 UNL     1      25.458   1.786  52.942  1.00  0.00     0.078 A 
HETATM   11  C15 UNL     1      24.293   1.067  52.897  1.00  0.00     0.043 A 
HETATM   12  C16 UNL     1      23.216   1.493  52.159  1.00  0.00     0.048 A 
ENDROOT
BRANCH  10  13
HETATM   13  N6  UNL     1      25.658   3.007  52.247  1.00  0.00    -0.291 N 
HETATM   14  C14 UNL     1      26.254   3.075  50.944  1.00  0.00     0.182 C 
HETATM   15  N7  UNL     1      26.714   3.122  49.890  1.00  0.00    -0.172 NA
HETATM   16  H14 UNL     1      25.390   3.963  52.620  1.00  0.00     0.178 HD
ENDBRANCH  10  13
BRANCH   1  17
HETATM   17  N2  UNL     1      21.041   1.316  51.328  1.00  0.00    -0.326 N 
HETATM   18  C6  UNL     1      20.089   2.313  51.686  1.00  0.00     0.223 C 
HETATM   19  O1  UNL     1      20.193   2.694  52.901  1.00  0.00    -0.273 OA
HETATM   20  H11 UNL     1      21.121   0.864  50.387  1.00  0.00     0.169 HD
BRANCH  18  21
HETATM   21  C5  UNL     1      19.159   2.718  50.570  1.00  0.00     0.123 C 
BRANCH  21  22
HETATM   22  C4  UNL     1      17.741   2.471  50.993  1.00  0.00     0.131 C 
BRANCH  22  23
HETATM   23  N1  UNL     1      17.359   1.149  50.513  1.00  0.00    -0.395 N 
HETATM   24  C3  UNL     1      16.491   1.284  49.347  1.00  0.00     0.148 C 
BRANCH  23  25
HETATM   25  C2  UNL     1      17.597  -0.206  50.857  1.00  0.00     0.075 C 
HETATM   26  C1  UNL     1      17.831  -0.559  52.098  1.00  0.00     0.029 C 
ENDBRANCH  23  25
ENDBRANCH  22  23
ENDBRANCH  21  22
ENDBRANCH  18  21
ENDBRANCH   1  17
TORSDOF 6
ENDMDL
MODEL 9
REMARK VINA RESULT:      -6.5      2.315      6.187
REMARK  6 active torsions:
REMARK  status: ('A' for Active; 'I' for Inactive)
REMARK    1  A    between atoms: C2_2  and  N1_3 
REMARK    2  A    between atoms: N1_3  and  C4_5 
REMARK    3  A    between atoms: C4_5  and  C5_6 
REMARK    4  A    between atoms: C5_6  and  C6_7 
REMARK       I    between atoms: C6_7  and  N2_9 
REMARK    5  A    between atoms: N2_9  and  C7_10 
REMARK    6  A    between atoms: C13_19  and  N6_20 
ROOT
HETATM    1  C7  UNL     1      20.443   0.211  52.507  1.00  0.00     0.053 A 
HETATM    2  C8  UNL     1      19.912  -0.581  53.490  1.00  0.00     0.148 A 
HETATM    3  N3  UNL     1      20.693  -1.157  54.437  1.00  0.00    -0.238 NA
HETATM    4  C9  UNL     1      22.020  -0.952  54.419  1.00  0.00     0.161 A 
HETATM    5  N4  UNL     1      22.765  -1.528  55.386  1.00  0.00    -0.239 NA
HETATM    6  C10 UNL     1      24.115  -1.345  55.425  1.00  0.00     0.144 A 
HETATM    7  C11 UNL     1      24.730  -0.555  54.455  1.00  0.00     0.090 A 
HETATM    8  C12 UNL     1      26.136  -0.418  54.580  1.00  0.00     0.103 C 
HETATM    9  N5  UNL     1      27.286  -0.312  54.664  1.00  0.00    -0.191 NA
HETATM   10  C13 UNL     1      23.957   0.026  53.478  1.00  0.00     0.078 A 
HETATM   11  C15 UNL     1      22.601  -0.166  53.451  1.00  0.00     0.043 A 
HETATM   12  C16 UNL     1      21.814   0.418  52.489  1.00  0.00     0.048 A 
ENDROOT
BRANCH  10  13
HETATM   13  N6  UNL     1      24.659   0.824  52.538  1.00  0.00    -0.291 N 
HETATM   14  C14 UNL     1      24.538   2.252  52.481  1.00  0.00     0.182 C 
HETATM   15  N7  UNL     1      24.454   3.400  52.454  1.00  0.00    -0.172 NA
HETATM   16  H14 UNL     1      25.325   0.445  51.805  1.00  0.00     0.178 HD
ENDBRANCH  10  13
BRANCH   1  17
HETATM   17  N2  UNL     1      19.780   0.871  51.434  1.00  0.00    -0.326 N 
HETATM   18  C6  UNL     1      19.302   2.213  51.405  1.00  0.00     0.223 C 
HETATM   19  O1  UNL     1      19.511   2.845  52.495  1.00  0.00    -0.273 OA
HETATM   20  H11 UNL     1      19.701   0.182  50.651  1.00  0.00     0.169 HD
BRANCH  18  21
HETATM   21  C5  UNL     1      18.653   2.615  50.105  1.00  0.00     0.123 C 
BRANCH  21  22
HETATM   22  C4  UNL     1      19.358   3.819  49.551  1.00  0.00     0.131 C 
BRANCH  22  23
HETATM   23  N1  UNL     1      20.662   3.384  49.068  1.00  0.00    -0.395 N 
HETATM   24  C3  UNL     1      20.493   2.562  47.874  1.00  0.00     0.148 C 
BRANCH  23  25
HETATM   25  C2  UNL     1      22.024   3.540  49.430  1.00  0.00     0.075 C 
HETATM   26  C1  UNL     1      22.922   2.647  49.092  1.00  0.00     0.029 C 
ENDBRANCH  23  25
ENDBRANCH  22  23
ENDBRANCH  21  22
ENDBRANCH  18  21
ENDBRANCH   1  17
TORSDOF 6
ENDMDL
