MODEL 1
REMARK VINA RESULT:      -8.9      0.000      0.000
REMARK  2 active torsions:
REMARK  status: ('A' for Active; 'I' for Inactive)
REMARK    1  A    between atoms: O1_2  and  C2_3 
REMARK    2  A    between atoms: C5_6  and  C6_7 
ROOT
HETATM    1  C6  UNL     1      24.189   1.842  52.850  1.00  0.00    -0.009 A 
HETATM    2  C7  UNL     1      24.517   3.083  52.287  1.00  0.00     0.032 A 
HETATM    3  C8  UNL     1      23.545   3.949  51.787  1.00  0.00     0.120 A 
HETATM    4  N1  UNL     1      22.257   3.568  51.855  1.00  0.00    -0.236 NA
HETATM    5  C9  UNL     1      21.885   2.389  52.386  1.00  0.00     0.181 A 
HETATM    6  O2  UNL     1      20.741   1.803  52.567  1.00  0.00    -0.290 OA
HETATM    7  C10 UNL     1      20.891   0.634  53.143  1.00  0.00     0.089 A 
HETATM    8  C11 UNL     1      19.997  -0.339  53.535  1.00  0.00     0.038 A 
HETATM    9  C12 UNL     1      20.443  -1.498  54.136  1.00  0.00     0.003 A 
HETATM   10  C13 UNL     1      21.818  -1.675  54.345  1.00  0.00     0.001 A 
HETATM   11  C14 UNL     1      22.700  -0.697  53.948  1.00  0.00     0.015 A 
HETATM   12  C15 UNL     1      22.233   0.443  53.353  1.00  0.00     0.013 A 
HETATM   13  C16 UNL     1      22.867   1.555  52.871  1.00  0.00     0.041 A 
ENDROOT
BRANCH   1  14
HETATM   14  C5  UNL     1      25.347   1.090  53.243  1.00  0.00    -0.025 A 
HETATM   15  C4  UNL     1      26.129   1.004  54.400  1.00  0.00     0.015 A 
HETATM   16  C3  UNL     1      27.222   0.184  54.514  1.00  0.00     0.037 A 
HETATM   17  C2  UNL     1      27.613  -0.615  53.464  1.00  0.00     0.068 A 
HETATM   18  C18 UNL     1      26.887  -0.576  52.300  1.00  0.00     0.037 A 
HETATM   19  C17 UNL     1      25.778   0.260  52.195  1.00  0.00     0.015 A 
BRANCH  17  20
HETATM   20  O1  UNL     1      28.735  -1.384  53.736  1.00  0.00    -0.356 OA
HETATM   21  C1  UNL     1      30.043  -0.851  53.702  1.00  0.00     0.210 C 
ENDBRANCH  17  20
ENDBRANCH   1  14
TORSDOF 2
ENDMDL
MODEL 2
REMARK VINA RESULT:      -8.5      2.432      6.296
REMARK  2 active torsions:
REMARK  status: ('A' for Active; 'I' for Inactive)
REMARK    1  A    between atoms: O1_2  and  C2_3 
REMARK    2  A    between atoms: C5_6  and  C6_7 
ROOT
HETATM    1  C6  UNL     1      24.296   1.420  52.809  1.00  0.00    -0.009 A 
HETATM    2  C7  UNL     1      23.046   0.786  52.825  1.00  0.00     0.032 A 
HETATM    3  C8  UNL     1      22.832  -0.411  53.509  1.00  0.00     0.120 A 
HETATM    4  N1  UNL     1      23.867  -0.960  54.170  1.00  0.00    -0.236 NA
HETATM    5  C9  UNL     1      25.088  -0.394  54.189  1.00  0.00     0.181 A 
HETATM    6  O2  UNL     1      26.220  -0.711  54.738  1.00  0.00    -0.290 OA
HETATM    7  C10 UNL     1      27.146   0.178  54.469  1.00  0.00     0.089 A 
HETATM    8  C11 UNL     1      28.475   0.281  54.817  1.00  0.00     0.038 A 
HETATM    9  C12 UNL     1      29.231   1.352  54.385  1.00  0.00     0.003 A 
HETATM   10  C13 UNL     1      28.630   2.335  53.587  1.00  0.00     0.001 A 
HETATM   11  C14 UNL     1      27.302   2.220  53.245  1.00  0.00     0.015 A 
HETATM   12  C15 UNL     1      26.575   1.148  53.685  1.00  0.00     0.013 A 
HETATM   13  C16 UNL     1      25.268   0.787  53.504  1.00  0.00     0.041 A 
ENDROOT
BRANCH   1  14
HETATM   14  C5  UNL     1      24.304   2.603  51.994  1.00  0.00    -0.025 A 
HETATM   15  C4  UNL     1      24.732   2.912  50.698  1.00  0.00     0.015 A 
HETATM   16  C3  UNL     1      24.628   4.163  50.147  1.00  0.00     0.037 A 
HETATM   17  C2  UNL     1      24.083   5.203  50.864  1.00  0.00     0.068 A 
HETATM   18  C18 UNL     1      23.644   4.965  52.142  1.00  0.00     0.037 A 
HETATM   19  C17 UNL     1      23.754   3.689  52.693  1.00  0.00     0.015 A 
BRANCH  17  20
HETATM   20  O1  UNL     1      24.049   6.403  50.168  1.00  0.00    -0.356 OA
HETATM   21  C1  UNL     1      23.769   7.635  50.800  1.00  0.00     0.210 C 
ENDBRANCH  17  20
ENDBRANCH   1  14
TORSDOF 2
ENDMDL
MODEL 3
REMARK VINA RESULT:      -8.4      1.923      4.378
REMARK  2 active torsions:
REMARK  status: ('A' for Active; 'I' for Inactive)
REMARK    1  A    between atoms: O1_2  and  C2_3 
REMARK    2  A    between atoms: C5_6  and  C6_7 
ROOT
HETATM    1  C6  UNL     1      24.193   1.173  52.099  1.00  0.00    -0.009 A 
HETATM    2  C7  UNL     1      23.075   0.537  52.658  1.00  0.00     0.032 A 
HETATM    3  C8  UNL     1      21.773   0.950  52.378  1.00  0.00     0.120 A 
HETATM    4  N1  UNL     1      21.601   1.992  51.543  1.00  0.00    -0.236 NA
HETATM    5  C9  UNL     1      22.637   2.638  50.979  1.00  0.00     0.181 A 
HETATM    6  O2  UNL     1      22.737   3.641  50.161  1.00  0.00    -0.290 OA
HETATM    7  C10 UNL     1      23.991   3.909  49.887  1.00  0.00     0.089 A 
HETATM    8  C11 UNL     1      24.594   4.857  49.089  1.00  0.00     0.038 A 
HETATM    9  C12 UNL     1      25.969   4.910  48.981  1.00  0.00     0.003 A 
HETATM   10  C13 UNL     1      26.746   3.986  49.692  1.00  0.00     0.001 A 
HETATM   11  C14 UNL     1      26.133   3.045  50.487  1.00  0.00     0.015 A 
HETATM   12  C15 UNL     1      24.769   3.015  50.578  1.00  0.00     0.013 A 
HETATM   13  C16 UNL     1      23.911   2.206  51.274  1.00  0.00     0.041 A 
ENDROOT
BRANCH   1  14
HETATM   14  C5  UNL     1      25.433   0.624  52.571  1.00  0.00    -0.025 A 
HETATM   15  C4  UNL     1      26.398  -0.245  52.048  1.00  0.00     0.015 A 
HETATM   16  C3  UNL     1      27.522  -0.626  52.733  1.00  0.00     0.037 A 
HETATM   17  C2  UNL     1      27.762  -0.159  54.004  1.00  0.00     0.068 A 
HETATM   18  C18 UNL     1      26.853   0.697  54.575  1.00  0.00     0.037 A 
HETATM   19  C17 UNL     1      25.713   1.079  53.870  1.00  0.00     0.015 A 
BRANCH  17  20
HETATM   20  O1  UNL     1      28.939  -0.636  54.561  1.00  0.00    -0.356 OA
HETATM   21  C1  UNL     1      30.004  -1.127  53.772  1.00  0.00     0.210 C 
ENDBRANCH  17  20
ENDBRANCH   1  14
TORSDOF 2
ENDMDL
MODEL 4
REMARK VINA RESULT:      -8.2      2.764      5.004
REMARK  2 active torsions:
REMARK  status: ('A' for Active; 'I' for Inactive)
REMARK    1  A    between atoms: O1_2  and  C2_3 
REMARK    2  A    between atoms: C5_6  and  C6_7 
ROOT
HETATM    1  C6  UNL     1      26.134   1.412  52.954  1.00  0.00    -0.009 A 
HETATM    2  C7  UNL     1      27.514   1.502  53.189  1.00  0.00     0.032 A 
HETATM    3  C8  UNL     1      28.159   0.697  54.127  1.00  0.00     0.120 A 
HETATM    4  N1  UNL     1      27.420  -0.190  54.820  1.00  0.00    -0.236 NA
HETATM    5  C9  UNL     1      26.094  -0.320  54.634  1.00  0.00     0.181 A 
HETATM    6  O2  UNL     1      25.181  -1.079  55.157  1.00  0.00    -0.290 OA
HETATM    7  C10 UNL     1      24.002  -0.835  54.636  1.00  0.00     0.089 A 
HETATM    8  C11 UNL     1      22.751  -1.370  54.856  1.00  0.00     0.038 A 
HETATM    9  C12 UNL     1      21.660  -0.914  54.145  1.00  0.00     0.003 A 
HETATM   10  C13 UNL     1      21.839   0.100  53.194  1.00  0.00     0.001 A 
HETATM   11  C14 UNL     1      23.093   0.627  52.984  1.00  0.00     0.015 A 
HETATM   12  C15 UNL     1      24.158   0.159  53.703  1.00  0.00     0.013 A 
HETATM   13  C16 UNL     1      25.486   0.489  53.701  1.00  0.00     0.041 A 
ENDROOT
BRANCH   1  14
HETATM   14  C5  UNL     1      25.673   2.375  51.993  1.00  0.00    -0.025 A 
HETATM   15  C4  UNL     1      24.581   3.245  51.905  1.00  0.00     0.015 A 
HETATM   16  C3  UNL     1      24.365   4.081  50.841  1.00  0.00     0.037 A 
HETATM   17  C2  UNL     1      25.238   4.104  49.778  1.00  0.00     0.068 A 
HETATM   18  C18 UNL     1      26.330   3.273  49.803  1.00  0.00     0.037 A 
HETATM   19  C17 UNL     1      26.541   2.427  50.890  1.00  0.00     0.015 A 
BRANCH  17  20
HETATM   20  O1  UNL     1      24.881   5.002  48.782  1.00  0.00    -0.356 OA
HETATM   21  C1  UNL     1      23.556   5.468  48.625  1.00  0.00     0.210 C 
ENDBRANCH  17  20
ENDBRANCH   1  14
TORSDOF 2
ENDMDL
MODEL 5
REMARK VINA RESULT:      -8.2      1.504      3.481
REMARK  2 active torsions:
REMARK  status: ('A' for Active; 'I' for Inactive)
REMARK    1  A    between atoms: O1_2  and  C2_3 
REMARK    2  A    between atoms: C5_6  and  C6_7 
ROOT
HETATM    1  C6  UNL     1      23.766  -0.148  53.601  1.00  0.00    -0.009 A 
HETATM    2  C7  UNL     1      23.257  -0.974  54.612  1.00  0.00     0.032 A 
HETATM    3  C8  UNL     1      21.906  -0.972  54.959  1.00  0.00     0.120 A 
HETATM    4  N1  UNL     1      21.078  -0.147  54.292  1.00  0.00    -0.236 NA
HETATM    5  C9  UNL     1      21.513   0.666  53.312  1.00  0.00     0.181 A 
HETATM    6  O2  UNL     1      20.934   1.531  52.536  1.00  0.00    -0.290 OA
HETATM    7  C10 UNL     1      21.795   2.086  51.716  1.00  0.00     0.089 A 
HETATM    8  C11 UNL     1      21.668   3.037  50.727  1.00  0.00     0.038 A 
HETATM    9  C12 UNL     1      22.769   3.442  50.001  1.00  0.00     0.003 A 
HETATM   10  C13 UNL     1      24.020   2.875  50.280  1.00  0.00     0.001 A 
HETATM   11  C14 UNL     1      24.134   1.927  51.271  1.00  0.00     0.015 A 
HETATM   12  C15 UNL     1      23.028   1.543  51.978  1.00  0.00     0.013 A 
HETATM   13  C16 UNL     1      22.852   0.642  52.993  1.00  0.00     0.041 A 
ENDROOT
BRANCH   1  14
HETATM   14  C5  UNL     1      25.189  -0.268  53.454  1.00  0.00    -0.025 A 
HETATM   15  C4  UNL     1      26.043  -1.012  52.632  1.00  0.00     0.015 A 
HETATM   16  C3  UNL     1      27.410  -0.944  52.704  1.00  0.00     0.037 A 
HETATM   17  C2  UNL     1      28.025  -0.116  53.615  1.00  0.00     0.068 A 
HETATM   18  C18 UNL     1      27.243   0.641  54.451  1.00  0.00     0.037 A 
HETATM   19  C17 UNL     1      25.854   0.564  54.369  1.00  0.00     0.015 A 
BRANCH  17  20
HETATM   20  O1  UNL     1      29.410  -0.160  53.563  1.00  0.00    -0.356 OA
HETATM   21  C1  UNL     1      30.138  -1.347  53.802  1.00  0.00     0.210 C 
ENDBRANCH  17  20
ENDBRANCH   1  14
TORSDOF 2
ENDMDL
MODEL 6
REMARK VINA RESULT:      -8.0      2.427      6.199
REMARK  2 active torsions:
REMARK  status: ('A' for Active; 'I' for Inactive)
REMARK    1  A    between atoms: O1_2  and  C2_3 
REMARK    2  A    between atoms: C5_6  and  C6_7 
ROOT
HETATM    1  C6  UNL     1      22.505   0.306  53.046  1.00  0.00    -0.009 A 
HETATM    2  C7  UNL     1      21.363  -0.160  53.712  1.00  0.00     0.032 A 
HETATM    3  C8  UNL     1      21.446  -0.996  54.826  1.00  0.00     0.120 A 
HETATM    4  N1  UNL     1      22.668  -1.355  55.262  1.00  0.00    -0.236 NA
HETATM    5  C9  UNL     1      23.796  -0.937  54.661  1.00  0.00     0.181 A 
HETATM    6  O2  UNL     1      25.060  -1.132  54.880  1.00  0.00    -0.290 OA
HETATM    7  C10 UNL     1      25.800  -0.494  54.006  1.00  0.00     0.089 A 
HETATM    8  C11 UNL     1      27.163  -0.391  53.828  1.00  0.00     0.038 A 
HETATM    9  C12 UNL     1      27.679   0.371  52.801  1.00  0.00     0.003 A 
HETATM   10  C13 UNL     1      26.801   1.043  51.939  1.00  0.00     0.001 A 
HETATM   11  C14 UNL     1      25.442   0.932  52.126  1.00  0.00     0.015 A 
HETATM   12  C15 UNL     1      24.955   0.169  53.151  1.00  0.00     0.013 A 
HETATM   13  C16 UNL     1      23.681  -0.112  53.564  1.00  0.00     0.041 A 
ENDROOT
BRANCH   1  14
HETATM   14  C5  UNL     1      22.185   1.100  51.892  1.00  0.00    -0.025 A 
HETATM   15  C4  UNL     1      21.952   0.835  50.538  1.00  0.00     0.015 A 
HETATM   16  C3  UNL     1      21.664   1.808  49.616  1.00  0.00     0.037 A 
HETATM   17  C2  UNL     1      21.589   3.130  49.991  1.00  0.00     0.068 A 
HETATM   18  C18 UNL     1      21.807   3.456  51.306  1.00  0.00     0.037 A 
HETATM   19  C17 UNL     1      22.099   2.459  52.235  1.00  0.00     0.015 A 
BRANCH  17  20
HETATM   20  O1  UNL     1      21.289   3.990  48.945  1.00  0.00    -0.356 OA
HETATM   21  C1  UNL     1      22.173   4.199  47.862  1.00  0.00     0.210 C 
ENDBRANCH  17  20
ENDBRANCH   1  14
TORSDOF 2
ENDMDL
MODEL 7
REMARK VINA RESULT:      -7.6      3.321      4.716
REMARK  2 active torsions:
REMARK  status: ('A' for Active; 'I' for Inactive)
REMARK    1  A    between atoms: O1_2  and  C2_3 
REMARK    2  A    between atoms: C5_6  and  C6_7 
ROOT
HETATM    1  C6  UNL     1      22.701   0.209  53.198  1.00  0.00    -0.009 A 
HETATM    2  C7  UNL     1      23.724  -0.249  54.040  1.00  0.00     0.032 A 
HETATM    3  C8  UNL     1      23.505  -1.234  55.002  1.00  0.00     0.120 A 
HETATM    4  N1  UNL     1      22.267  -1.752  55.113  1.00  0.00    -0.236 NA
HETATM    5  C9  UNL     1      21.249  -1.349  54.331  1.00  0.00     0.181 A 
HETATM    6  O2  UNL     1      19.998  -1.682  54.238  1.00  0.00    -0.290 OA
HETATM    7  C10 UNL     1      19.392  -0.998  53.297  1.00  0.00     0.089 A 
HETATM    8  C11 UNL     1      18.095  -0.994  52.829  1.00  0.00     0.038 A 
HETATM    9  C12 UNL     1      17.726  -0.152  51.801  1.00  0.00     0.003 A 
HETATM   10  C13 UNL     1      18.684   0.700  51.236  1.00  0.00     0.001 A 
HETATM   11  C14 UNL     1      19.975   0.688  51.713  1.00  0.00     0.015 A 
HETATM   12  C15 UNL     1      20.316  -0.156  52.734  1.00  0.00     0.013 A 
HETATM   13  C16 UNL     1      21.497  -0.375  53.390  1.00  0.00     0.041 A 
ENDROOT
BRANCH   1  14
HETATM   14  C5  UNL     1      23.135   1.267  52.328  1.00  0.00    -0.025 A 
HETATM   15  C4  UNL     1      23.189   1.452  50.942  1.00  0.00     0.015 A 
HETATM   16  C3  UNL     1      23.671   2.591  50.351  1.00  0.00     0.037 A 
HETATM   17  C2  UNL     1      24.137   3.636  51.115  1.00  0.00     0.068 A 
HETATM   18  C18 UNL     1      24.110   3.516  52.482  1.00  0.00     0.037 A 
HETATM   19  C17 UNL     1      23.619   2.354  53.073  1.00  0.00     0.015 A 
BRANCH  17  20
HETATM   20  O1  UNL     1      24.590   4.714  50.369  1.00  0.00    -0.356 OA
HETATM   21  C1  UNL     1      25.757   4.648  49.576  1.00  0.00     0.210 C 
ENDBRANCH  17  20
ENDBRANCH   1  14
TORSDOF 2
ENDMDL
MODEL 8
REMARK VINA RESULT:      -7.6      2.266      5.901
REMARK  2 active torsions:
REMARK  status: ('A' for Active; 'I' for Inactive)
REMARK    1  A    between atoms: O1_2  and  C2_3 
REMARK    2  A    between atoms: C5_6  and  C6_7 
ROOT
HETATM    1  C6  UNL     1      23.745   2.601  50.894  1.00  0.00    -0.009 A 
HETATM    2  C7  UNL     1      23.630   3.648  49.968  1.00  0.00     0.032 A 
HETATM    3  C8  UNL     1      24.747   4.311  49.460  1.00  0.00     0.120 A 
HETATM    4  N1  UNL     1      25.965   3.922  49.880  1.00  0.00    -0.236 NA
HETATM    5  C9  UNL     1      26.133   2.924  50.767  1.00  0.00     0.181 A 
HETATM    6  O2  UNL     1      27.171   2.371  51.316  1.00  0.00    -0.290 OA
HETATM    7  C10 UNL     1      26.821   1.407  52.134  1.00  0.00     0.089 A 
HETATM    8  C11 UNL     1      27.543   0.546  52.930  1.00  0.00     0.038 A 
HETATM    9  C12 UNL     1      26.899  -0.397  53.705  1.00  0.00     0.003 A 
HETATM   10  C13 UNL     1      25.500  -0.468  53.674  1.00  0.00     0.001 A 
HETATM   11  C14 UNL     1      24.790   0.399  52.875  1.00  0.00     0.015 A 
HETATM   12  C15 UNL     1      25.451   1.325  52.117  1.00  0.00     0.013 A 
HETATM   13  C16 UNL     1      25.011   2.288  51.250  1.00  0.00     0.041 A 
ENDROOT
BRANCH   1  14
HETATM   14  C5  UNL     1      22.468   2.106  51.328  1.00  0.00    -0.025 A 
HETATM   15  C4  UNL     1      21.625   2.353  52.417  1.00  0.00     0.015 A 
HETATM   16  C3  UNL     1      20.425   1.718  52.603  1.00  0.00     0.037 A 
HETATM   17  C2  UNL     1      19.981   0.778  51.701  1.00  0.00     0.068 A 
HETATM   18  C18 UNL     1      20.762   0.490  50.610  1.00  0.00     0.037 A 
HETATM   19  C17 UNL     1      21.981   1.142  50.431  1.00  0.00     0.015 A 
BRANCH  17  20
HETATM   20  O1  UNL     1      18.751   0.227  52.030  1.00  0.00    -0.356 OA
HETATM   21  C1  UNL     1      18.617  -0.806  52.985  1.00  0.00     0.210 C 
ENDBRANCH  17  20
ENDBRANCH   1  14
TORSDOF 2
ENDMDL
MODEL 9
REMARK VINA RESULT:      -7.6      2.601      6.868
REMARK  2 active torsions:
REMARK  status: ('A' for Active; 'I' for Inactive)
REMARK    1  A    between atoms: O1_2  and  C2_3 
REMARK    2  A    between atoms: C5_6  and  C6_7 
ROOT
HETATM    1  C6  UNL     1      23.695   0.736  52.371  1.00  0.00    -0.009 A 
HETATM    2  C7  UNL     1      23.918  -0.264  53.328  1.00  0.00     0.032 A 
HETATM    3  C8  UNL     1      25.201  -0.598  53.763  1.00  0.00     0.120 A 
HETATM    4  N1  UNL     1      26.245   0.070  53.238  1.00  0.00    -0.236 NA
HETATM    5  C9  UNL     1      26.088   1.038  52.317  1.00  0.00     0.181 A 
HETATM    6  O2  UNL     1      26.908   1.812  51.674  1.00  0.00    -0.290 OA
HETATM    7  C10 UNL     1      26.265   2.618  50.864  1.00  0.00     0.089 A 
HETATM    8  C11 UNL     1      26.684   3.600  49.992  1.00  0.00     0.038 A 
HETATM    9  C12 UNL     1      25.766   4.312  49.247  1.00  0.00     0.003 A 
HETATM   10  C13 UNL     1      24.402   4.026  49.387  1.00  0.00     0.001 A 
HETATM   11  C14 UNL     1      23.996   3.043  50.260  1.00  0.00     0.015 A 
HETATM   12  C15 UNL     1      24.925   2.350  50.986  1.00  0.00     0.013 A 
HETATM   13  C16 UNL     1      24.810   1.345  51.908  1.00  0.00     0.041 A 
ENDROOT
BRANCH   1  14
HETATM   14  C5  UNL     1      22.307   0.870  52.027  1.00  0.00    -0.025 A 
HETATM   15  C4  UNL     1      21.460   0.295  51.073  1.00  0.00     0.015 A 
HETATM   16  C3  UNL     1      20.133   0.615  50.949  1.00  0.00     0.037 A 
HETATM   17  C2  UNL     1      19.555   1.546  51.782  1.00  0.00     0.068 A 
HETATM   18  C18 UNL     1      20.332   2.147  52.740  1.00  0.00     0.037 A 
HETATM   19  C17 UNL     1      21.680   1.814  52.857  1.00  0.00     0.015 A 
BRANCH  17  20
HETATM   20  O1  UNL     1      18.207   1.759  51.530  1.00  0.00    -0.356 OA
HETATM   21  C1  UNL     1      17.643   3.053  51.483  1.00  0.00     0.210 C 
ENDBRANCH  17  20
ENDBRANCH   1  14
TORSDOF 2
ENDMDL
