MODEL 1
REMARK VINA RESULT:      -8.0      0.000      0.000
REMARK  8 active torsions:
REMARK  status: ('A' for Active; 'I' for Inactive)
REMARK    1  A    between atoms: C5_7  and  N3_8 
REMARK    2  A    between atoms: N3_8  and  C6_9 
REMARK    3  A    between atoms: C12_16  and  C13_17 
REMARK    4  A    between atoms: C13_17  and  C14_18 
REMARK    5  A    between atoms: C14_18  and  N4_19 
REMARK       I    between atoms: N4_19  and  C15_20 
REMARK    6  A    between atoms: C15_20  and  C16_22 
REMARK    7  A    between atoms: C17_23  and  C18_24 
REMARK    8  A    between atoms: C18_24  and  O3_26 
ROOT
HETATM    1  C1  UNL     1      21.585  -0.474  53.052  1.00  0.00     0.038 C 
HETATM    2  C2  UNL     1      22.614   0.589  53.043  1.00  0.00     0.002 C 
HETATM    3  C3  UNL     1      22.506   1.616  52.214  1.00  0.00     0.076 A 
HETATM    4  N1  UNL     1      21.435   1.693  51.360  1.00  0.00    -0.241 NA
HETATM    5  C4  UNL     1      21.323   2.742  50.512  1.00  0.00     0.236 A 
HETATM    6  N2  UNL     1      22.259   3.705  50.506  1.00  0.00    -0.223 NA
HETATM    7  C5  UNL     1      23.342   3.703  51.314  1.00  0.00     0.150 A 
HETATM    8  C12 UNL     1      23.394   2.633  52.134  1.00  0.00     0.085 A 
ENDROOT
BRANCH   8   9
HETATM    9  C13 UNL     1      24.394   2.522  52.963  1.00  0.00    -0.093 C 
BRANCH   9  10
HETATM   10  C14 UNL     1      25.534   2.613  53.601  1.00  0.00     0.148 C 
BRANCH  10  11
HETATM   11  N4  UNL     1      26.281   1.486  53.909  1.00  0.00    -0.327 N 
HETATM   12  C15 UNL     1      27.513   1.341  53.210  1.00  0.00     0.245 C 
HETATM   13  O1  UNL     1      27.755   2.272  52.396  1.00  0.00    -0.268 OA
HETATM   14  H12 UNL     1      26.004   0.767  54.596  1.00  0.00     0.169 HD
BRANCH  12  15
HETATM   15  C16 UNL     1      28.427   0.239  53.392  1.00  0.00     0.081 C 
HETATM   16  C17 UNL     1      28.063  -1.013  53.213  1.00  0.00     0.086 C 
BRANCH  16  17
HETATM   17  C18 UNL     1      29.023  -2.095  53.409  1.00  0.00     0.165 C 
HETATM   18  O2  UNL     1      30.219  -1.871  53.710  1.00  0.00    -0.647 OA
BRANCH  17  19
HETATM   19  O3  UNL     1      28.676  -3.430  53.274  1.00  0.00    -0.773 OA
HETATM   20  H15 UNL     1      27.859  -3.825  53.751  1.00  0.00     0.167 HD
ENDBRANCH  17  19
ENDBRANCH  16  17
ENDBRANCH  12  15
ENDBRANCH  10  11
ENDBRANCH   9  10
ENDBRANCH   8   9
BRANCH   7  21
HETATM   21  N3  UNL     1      24.344   4.702  51.331  1.00  0.00    -0.340 N 
HETATM   22  H6  UNL     1      24.344   5.337  52.181  1.00  0.00     0.167 HD
BRANCH  21  23
HETATM   23  C6  UNL     1      25.338   4.981  50.388  1.00  0.00     0.035 A 
HETATM   24  C7  UNL     1      26.198   3.987  49.914  1.00  0.00     0.029 A 
HETATM   25  C8  UNL     1      27.184   4.228  48.989  1.00  0.00     0.004 A 
HETATM   26  C9  UNL     1      27.385   5.485  48.464  1.00  0.00     0.019 A 
HETATM   27  C10 UNL     1      26.567   6.507  48.893  1.00  0.00     0.013 A 
HETATM   28 BR1  UNL     1      26.833   8.239  48.181  1.00  0.00    -0.051 Br
HETATM   29  C11 UNL     1      25.600   6.207  49.820  1.00  0.00     0.048 A 
ENDBRANCH  21  23
ENDBRANCH   7  21
TORSDOF 8
ENDMDL
MODEL 2
REMARK VINA RESULT:      -7.8      1.989      2.685
REMARK  8 active torsions:
REMARK  status: ('A' for Active; 'I' for Inactive)
REMARK    1  A    between atoms: C5_7  and  N3_8 
REMARK    2  A    between atoms: N3_8  and  C6_9 
REMARK    3  A    between atoms: C12_16  and  C13_17 
REMARK    4  A    between atoms: C13_17  and  C14_18 
REMARK    5  A    between atoms: C14_18  and  N4_19 
REMARK       I    between atoms: N4_19  and  C15_20 
REMARK    6  A    between atoms: C15_20  and  C16_22 
REMARK    7  A    between atoms: C17_23  and  C18_24 
REMARK    8  A    between atoms: C18_24  and  O3_26 
ROOT
HETATM    1  C1  UNL     1      18.663  -0.508  52.546  1.00  0.00     0.038 C 
HETATM    2  C2  UNL     1      20.090  -0.124  52.616  1.00  0.00     0.002 C 
HETATM    3  C3  UNL     1      20.454   1.134  52.425  1.00  0.00     0.076 A 
HETATM    4  N1  UNL     1      19.502   2.086  52.160  1.00  0.00    -0.241 NA
HETATM    5  C4  UNL     1      19.873   3.373  51.964  1.00  0.00     0.236 A 
HETATM    6  N2  UNL     1      21.169   3.717  52.028  1.00  0.00    -0.223 NA
HETATM    7  C5  UNL     1      22.165   2.841  52.284  1.00  0.00     0.150 A 
HETATM    8  C12 UNL     1      21.732   1.578  52.470  1.00  0.00     0.085 A 
ENDROOT
BRANCH   8   9
HETATM    9  C13 UNL     1      22.602   0.643  52.726  1.00  0.00    -0.093 C 
BRANCH   9  10
HETATM   10  C14 UNL     1      23.521  -0.132  53.246  1.00  0.00     0.148 C 
BRANCH  10  11
HETATM   11  N4  UNL     1      24.871   0.149  53.100  1.00  0.00    -0.327 N 
HETATM   12  C15 UNL     1      25.724  -0.328  54.135  1.00  0.00     0.245 C 
HETATM   13  O1  UNL     1      25.124  -0.948  55.052  1.00  0.00    -0.268 OA
HETATM   14  H12 UNL     1      25.281   0.669  52.309  1.00  0.00     0.169 HD
BRANCH  12  15
HETATM   15  C16 UNL     1      27.155  -0.135  54.164  1.00  0.00     0.081 C 
HETATM   16  C17 UNL     1      27.702   1.060  54.205  1.00  0.00     0.086 C 
BRANCH  16  17
HETATM   17  C18 UNL     1      29.155   1.206  54.233  1.00  0.00     0.165 C 
HETATM   18  O2  UNL     1      29.917   0.300  53.823  1.00  0.00    -0.647 OA
BRANCH  17  19
HETATM   19  O3  UNL     1      29.778   2.347  54.712  1.00  0.00    -0.773 OA
HETATM   20  H15 UNL     1      29.242   3.169  55.009  1.00  0.00     0.167 HD
ENDBRANCH  17  19
ENDBRANCH  16  17
ENDBRANCH  12  15
ENDBRANCH  10  11
ENDBRANCH   9  10
ENDBRANCH   8   9
BRANCH   7  21
HETATM   21  N3  UNL     1      23.540   3.174  52.357  1.00  0.00    -0.340 N 
HETATM   22  H6  UNL     1      23.969   3.136  53.326  1.00  0.00     0.167 HD
BRANCH  21  23
HETATM   23  C6  UNL     1      24.420   3.548  51.338  1.00  0.00     0.035 A 
HETATM   24  C7  UNL     1      25.530   2.769  51.005  1.00  0.00     0.029 A 
HETATM   25  C8  UNL     1      26.413   3.110  50.009  1.00  0.00     0.004 A 
HETATM   26  C9  UNL     1      26.251   4.258  49.266  1.00  0.00     0.019 A 
HETATM   27  C10 UNL     1      25.172   5.067  49.548  1.00  0.00     0.013 A 
HETATM   28 BR1  UNL     1      24.938   6.647  48.536  1.00  0.00    -0.051 Br
HETATM   29  C11 UNL     1      24.324   4.677  50.555  1.00  0.00     0.048 A 
ENDBRANCH  21  23
ENDBRANCH   7  21
TORSDOF 8
ENDMDL
MODEL 3
REMARK VINA RESULT:      -7.8      4.033      6.713
REMARK  8 active torsions:
REMARK  status: ('A' for Active; 'I' for Inactive)
REMARK    1  A    between atoms: C5_7  and  N3_8 
REMARK    2  A    between atoms: N3_8  and  C6_9 
REMARK    3  A    between atoms: C12_16  and  C13_17 
REMARK    4  A    between atoms: C13_17  and  C14_18 
REMARK    5  A    between atoms: C14_18  and  N4_19 
REMARK       I    between atoms: N4_19  and  C15_20 
REMARK    6  A    between atoms: C15_20  and  C16_22 
REMARK    7  A    between atoms: C17_23  and  C18_24 
REMARK    8  A    between atoms: C18_24  and  O3_26 
ROOT
HETATM    1  C1  UNL     1      29.550  -1.720  53.404  1.00  0.00     0.038 C 
HETATM    2  C2  UNL     1      28.177  -1.200  53.587  1.00  0.00     0.002 C 
HETATM    3  C3  UNL     1      27.956   0.104  53.620  1.00  0.00     0.076 A 
HETATM    4  N1  UNL     1      29.005   0.978  53.485  1.00  0.00    -0.241 NA
HETATM    5  C4  UNL     1      28.779   2.312  53.519  1.00  0.00     0.236 A 
HETATM    6  N2  UNL     1      27.532   2.780  53.686  1.00  0.00    -0.223 NA
HETATM    7  C5  UNL     1      26.447   1.987  53.826  1.00  0.00     0.150 A 
HETATM    8  C12 UNL     1      26.737   0.671  53.783  1.00  0.00     0.085 A 
ENDROOT
BRANCH   8   9
HETATM    9  C13 UNL     1      25.770  -0.193  53.905  1.00  0.00    -0.093 C 
BRANCH   9  10
HETATM   10  C14 UNL     1      24.771  -0.936  54.313  1.00  0.00     0.148 C 
BRANCH  10  11
HETATM   11  N4  UNL     1      23.525  -0.865  53.708  1.00  0.00    -0.327 N 
HETATM   12  C15 UNL     1      22.418  -1.267  54.507  1.00  0.00     0.245 C 
HETATM   13  O1  UNL     1      22.730  -1.637  55.671  1.00  0.00    -0.268 OA
HETATM   14  H12 UNL     1      23.358  -0.547  52.740  1.00  0.00     0.169 HD
BRANCH  12  15
HETATM   15  C16 UNL     1      21.045  -1.265  54.058  1.00  0.00     0.081 C 
HETATM   16  C17 UNL     1      20.579  -0.358  53.228  1.00  0.00     0.086 C 
BRANCH  16  17
HETATM   17  C18 UNL     1      19.183  -0.396  52.802  1.00  0.00     0.165 C 
HETATM   18  O2  UNL     1      18.302  -0.980  53.475  1.00  0.00    -0.647 OA
BRANCH  17  19
HETATM   19  O3  UNL     1      18.747   0.205  51.633  1.00  0.00    -0.773 OA
HETATM   20  H15 UNL     1      18.078   0.983  51.643  1.00  0.00     0.167 HD
ENDBRANCH  17  19
ENDBRANCH  16  17
ENDBRANCH  12  15
ENDBRANCH  10  11
ENDBRANCH   9  10
ENDBRANCH   8   9
BRANCH   7  21
HETATM   21  N3  UNL     1      25.121   2.450  54.003  1.00  0.00    -0.340 N 
HETATM   22  H6  UNL     1      24.770   2.466  55.004  1.00  0.00     0.167 HD
BRANCH  21  23
HETATM   23  C6  UNL     1      24.198   2.891  53.049  1.00  0.00     0.035 A 
HETATM   24  C7  UNL     1      23.823   4.233  52.957  1.00  0.00     0.029 A 
HETATM   25  C8  UNL     1      22.920   4.697  52.032  1.00  0.00     0.004 A 
HETATM   26  C9  UNL     1      22.323   3.852  51.124  1.00  0.00     0.019 A 
HETATM   27  C10 UNL     1      22.654   2.516  51.165  1.00  0.00     0.013 A 
HETATM   28 BR1  UNL     1      21.841   1.343  49.923  1.00  0.00    -0.051 Br
HETATM   29  C11 UNL     1      23.562   2.109  52.112  1.00  0.00     0.048 A 
ENDBRANCH  21  23
ENDBRANCH   7  21
TORSDOF 8
ENDMDL
MODEL 4
REMARK VINA RESULT:      -7.6      3.557      6.221
REMARK  8 active torsions:
REMARK  status: ('A' for Active; 'I' for Inactive)
REMARK    1  A    between atoms: C5_7  and  N3_8 
REMARK    2  A    between atoms: N3_8  and  C6_9 
REMARK    3  A    between atoms: C12_16  and  C13_17 
REMARK    4  A    between atoms: C13_17  and  C14_18 
REMARK    5  A    between atoms: C14_18  and  N4_19 
REMARK       I    between atoms: N4_19  and  C15_20 
REMARK    6  A    between atoms: C15_20  and  C16_22 
REMARK    7  A    between atoms: C17_23  and  C18_24 
REMARK    8  A    between atoms: C18_24  and  O3_26 
ROOT
HETATM    1  C1  UNL     1      18.482  -0.803  52.831  1.00  0.00     0.038 C 
HETATM    2  C2  UNL     1      19.743  -0.118  52.470  1.00  0.00     0.002 C 
HETATM    3  C3  UNL     1      20.858  -0.380  53.134  1.00  0.00     0.076 A 
HETATM    4  N1  UNL     1      20.844  -1.289  54.161  1.00  0.00    -0.241 NA
HETATM    5  C4  UNL     1      21.983  -1.557  54.839  1.00  0.00     0.236 A 
HETATM    6  N2  UNL     1      23.126  -0.933  54.509  1.00  0.00    -0.223 NA
HETATM    7  C5  UNL     1      23.224  -0.027  53.513  1.00  0.00     0.150 A 
HETATM    8  C12 UNL     1      22.056   0.195  52.876  1.00  0.00     0.085 A 
ENDROOT
BRANCH   8   9
HETATM    9  C13 UNL     1      22.026   1.050  51.893  1.00  0.00    -0.093 C 
BRANCH   9  10
HETATM   10  C14 UNL     1      22.257   1.763  50.819  1.00  0.00     0.148 C 
BRANCH  10  11
HETATM   11  N4  UNL     1      23.506   2.315  50.573  1.00  0.00    -0.327 N 
HETATM   12  C15 UNL     1      23.579   3.736  50.603  1.00  0.00     0.245 C 
HETATM   13  O1  UNL     1      22.481   4.302  50.853  1.00  0.00    -0.268 OA
HETATM   14  H12 UNL     1      24.360   1.770  50.375  1.00  0.00     0.169 HD
BRANCH  12  15
HETATM   15  C16 UNL     1      24.785   4.495  50.372  1.00  0.00     0.081 C 
HETATM   16  C17 UNL     1      25.517   4.338  49.291  1.00  0.00     0.086 C 
BRANCH  16  17
HETATM   17  C18 UNL     1      26.730   5.128  49.101  1.00  0.00     0.165 C 
HETATM   18  O2  UNL     1      27.730   4.670  48.500  1.00  0.00    -0.647 OA
BRANCH  17  19
HETATM   19  O3  UNL     1      26.853   6.425  49.571  1.00  0.00    -0.773 OA
HETATM   20  H15 UNL     1      26.652   7.236  48.977  1.00  0.00     0.167 HD
ENDBRANCH  17  19
ENDBRANCH  16  17
ENDBRANCH  12  15
ENDBRANCH  10  11
ENDBRANCH   9  10
ENDBRANCH   8   9
BRANCH   7  21
HETATM   21  N3  UNL     1      24.413   0.646  53.141  1.00  0.00    -0.340 N 
HETATM   22  H6  UNL     1      24.282   1.621  52.745  1.00  0.00     0.167 HD
BRANCH  21  23
HETATM   23  C6  UNL     1      25.740   0.214  53.219  1.00  0.00     0.035 A 
HETATM   24  C7  UNL     1      26.124  -1.057  52.786  1.00  0.00     0.029 A 
HETATM   25  C8  UNL     1      27.419  -1.510  52.849  1.00  0.00     0.004 A 
HETATM   26  C9  UNL     1      28.432  -0.724  53.349  1.00  0.00     0.019 A 
HETATM   27  C10 UNL     1      28.115   0.541  53.791  1.00  0.00     0.013 A 
HETATM   28 BR1  UNL     1      29.497   1.631  54.483  1.00  0.00    -0.051 Br
HETATM   29  C11 UNL     1      26.804   0.940  53.705  1.00  0.00     0.048 A 
ENDBRANCH  21  23
ENDBRANCH   7  21
TORSDOF 8
ENDMDL
MODEL 5
REMARK VINA RESULT:      -7.5      3.883      6.013
REMARK  8 active torsions:
REMARK  status: ('A' for Active; 'I' for Inactive)
REMARK    1  A    between atoms: C5_7  and  N3_8 
REMARK    2  A    between atoms: N3_8  and  C6_9 
REMARK    3  A    between atoms: C12_16  and  C13_17 
REMARK    4  A    between atoms: C13_17  and  C14_18 
REMARK    5  A    between atoms: C14_18  and  N4_19 
REMARK       I    between atoms: N4_19  and  C15_20 
REMARK    6  A    between atoms: C15_20  and  C16_22 
REMARK    7  A    between atoms: C17_23  and  C18_24 
REMARK    8  A    between atoms: C18_24  and  O3_26 
ROOT
HETATM    1  C1  UNL     1      25.210  -0.863  55.054  1.00  0.00     0.038 C 
HETATM    2  C2  UNL     1      24.778  -0.117  53.852  1.00  0.00     0.002 C 
HETATM    3  C3  UNL     1      25.623   0.682  53.221  1.00  0.00     0.076 A 
HETATM    4  N1  UNL     1      26.906   0.820  53.686  1.00  0.00    -0.241 NA
HETATM    5  C4  UNL     1      27.772   1.637  53.042  1.00  0.00     0.236 A 
HETATM    6  N2  UNL     1      27.376   2.312  51.951  1.00  0.00    -0.223 NA
HETATM    7  C5  UNL     1      26.131   2.231  51.431  1.00  0.00     0.150 A 
HETATM    8  C12 UNL     1      25.319   1.402  52.117  1.00  0.00     0.085 A 
ENDROOT
BRANCH   8   9
HETATM    9  C13 UNL     1      24.092   1.241  51.708  1.00  0.00    -0.093 C 
BRANCH   9  10
HETATM   10  C14 UNL     1      22.857   1.391  51.299  1.00  0.00     0.148 C 
BRANCH  10  11
HETATM   11  N4  UNL     1      21.859   0.502  51.669  1.00  0.00    -0.327 N 
HETATM   12  C15 UNL     1      20.799   1.041  52.451  1.00  0.00     0.245 C 
HETATM   13  O1  UNL     1      20.916   2.270  52.700  1.00  0.00    -0.268 OA
HETATM   14  H12 UNL     1      21.842  -0.499  51.419  1.00  0.00     0.169 HD
BRANCH  12  15
HETATM   15  C16 UNL     1      19.672   0.277  52.933  1.00  0.00     0.081 C 
HETATM   16  C17 UNL     1      18.718  -0.149  52.133  1.00  0.00     0.086 C 
BRANCH  16  17
HETATM   17  C18 UNL     1      17.598  -0.918  52.667  1.00  0.00     0.165 C 
HETATM   18  O2  UNL     1      16.622  -1.246  51.952  1.00  0.00    -0.647 OA
BRANCH  17  19
HETATM   19  O3  UNL     1      17.542  -1.330  53.988  1.00  0.00    -0.773 OA
HETATM   20  H15 UNL     1      18.279  -1.909  54.404  1.00  0.00     0.167 HD
ENDBRANCH  17  19
ENDBRANCH  16  17
ENDBRANCH  12  15
ENDBRANCH  10  11
ENDBRANCH   9  10
ENDBRANCH   8   9
BRANCH   7  21
HETATM   21  N3  UNL     1      25.684   2.930  50.283  1.00  0.00    -0.340 N 
HETATM   22  H6  UNL     1      24.962   2.426  49.693  1.00  0.00     0.167 HD
BRANCH  21  23
HETATM   23  C6  UNL     1      26.056   4.192  49.810  1.00  0.00     0.035 A 
HETATM   24  C7  UNL     1      27.161   4.364  48.973  1.00  0.00     0.029 A 
HETATM   25  C8  UNL     1      27.552   5.590  48.491  1.00  0.00     0.004 A 
HETATM   26  C9  UNL     1      26.865   6.740  48.809  1.00  0.00     0.019 A 
HETATM   27  C10 UNL     1      25.765   6.633  49.631  1.00  0.00     0.013 A 
HETATM   28 BR1  UNL     1      24.812   8.204  50.077  1.00  0.00    -0.051 Br
HETATM   29  C11 UNL     1      25.421   5.382  50.083  1.00  0.00     0.048 A 
ENDBRANCH  21  23
ENDBRANCH   7  21
TORSDOF 8
ENDMDL
MODEL 6
REMARK VINA RESULT:      -7.5      2.945      5.496
REMARK  8 active torsions:
REMARK  status: ('A' for Active; 'I' for Inactive)
REMARK    1  A    between atoms: C5_7  and  N3_8 
REMARK    2  A    between atoms: N3_8  and  C6_9 
REMARK    3  A    between atoms: C12_16  and  C13_17 
REMARK    4  A    between atoms: C13_17  and  C14_18 
REMARK    5  A    between atoms: C14_18  and  N4_19 
REMARK       I    between atoms: N4_19  and  C15_20 
REMARK    6  A    between atoms: C15_20  and  C16_22 
REMARK    7  A    between atoms: C17_23  and  C18_24 
REMARK    8  A    between atoms: C18_24  and  O3_26 
ROOT
HETATM    1  C1  UNL     1      26.409   4.660  49.134  1.00  0.00     0.038 C 
HETATM    2  C2  UNL     1      25.585   4.164  50.257  1.00  0.00     0.002 C 
HETATM    3  C3  UNL     1      24.264   4.200  50.184  1.00  0.00     0.076 A 
HETATM    4  N1  UNL     1      23.658   4.700  49.060  1.00  0.00    -0.241 NA
HETATM    5  C4  UNL     1      22.307   4.738  48.983  1.00  0.00     0.236 A 
HETATM    6  N2  UNL     1      21.562   4.286  50.006  1.00  0.00    -0.223 NA
HETATM    7  C5  UNL     1      22.082   3.779  51.145  1.00  0.00     0.150 A 
HETATM    8  C12 UNL     1      23.430   3.769  51.159  1.00  0.00     0.085 A 
ENDROOT
BRANCH   8   9
HETATM    9  C13 UNL     1      24.047   3.300  52.206  1.00  0.00    -0.093 C 
BRANCH   9  10
HETATM   10  C14 UNL     1      24.610   2.553  53.123  1.00  0.00     0.148 C 
BRANCH  10  11
HETATM   11  N4  UNL     1      25.421   1.481  52.784  1.00  0.00    -0.327 N 
HETATM   12  C15 UNL     1      26.709   1.455  53.389  1.00  0.00     0.245 C 
HETATM   13  O1  UNL     1      26.935   2.425  54.160  1.00  0.00    -0.268 OA
HETATM   14  H12 UNL     1      25.153   0.723  52.136  1.00  0.00     0.169 HD
BRANCH  12  15
HETATM   15  C16 UNL     1      27.695   0.425  53.161  1.00  0.00     0.081 C 
HETATM   16  C17 UNL     1      27.440  -0.849  53.363  1.00  0.00     0.086 C 
BRANCH  16  17
HETATM   17  C18 UNL     1      28.469  -1.856  53.119  1.00  0.00     0.165 C 
HETATM   18  O2  UNL     1      29.690  -1.585  53.200  1.00  0.00    -0.647 OA
BRANCH  17  19
HETATM   19  O3  UNL     1      28.163  -3.165  52.784  1.00  0.00    -0.773 OA
HETATM   20  H15 UNL     1      28.856  -3.917  52.861  1.00  0.00     0.167 HD
ENDBRANCH  17  19
ENDBRANCH  16  17
ENDBRANCH  12  15
ENDBRANCH  10  11
ENDBRANCH   9  10
ENDBRANCH   8   9
BRANCH   7  21
HETATM   21  N3  UNL     1      21.323   3.296  52.239  1.00  0.00    -0.340 N 
HETATM   22  H6  UNL     1      21.216   3.967  53.053  1.00  0.00     0.167 HD
BRANCH  21  23
HETATM   23  C6  UNL     1      20.692   2.060  52.406  1.00  0.00     0.035 A 
HETATM   24  C7  UNL     1      19.461   1.779  51.809  1.00  0.00     0.029 A 
HETATM   25  C8  UNL     1      18.816   0.575  51.954  1.00  0.00     0.004 A 
HETATM   26  C9  UNL     1      19.355  -0.443  52.709  1.00  0.00     0.019 A 
HETATM   27  C10 UNL     1      20.569  -0.225  53.322  1.00  0.00     0.013 A 
HETATM   28 BR1  UNL     1      21.320  -1.615  54.362  1.00  0.00    -0.051 Br
HETATM   29  C11 UNL     1      21.167   0.998  53.142  1.00  0.00     0.048 A 
ENDBRANCH  21  23
ENDBRANCH   7  21
TORSDOF 8
ENDMDL
MODEL 7
REMARK VINA RESULT:      -7.5      3.254      6.967
REMARK  8 active torsions:
REMARK  status: ('A' for Active; 'I' for Inactive)
REMARK    1  A    between atoms: C5_7  and  N3_8 
REMARK    2  A    between atoms: N3_8  and  C6_9 
REMARK    3  A    between atoms: C12_16  and  C13_17 
REMARK    4  A    between atoms: C13_17  and  C14_18 
REMARK    5  A    between atoms: C14_18  and  N4_19 
REMARK       I    between atoms: N4_19  and  C15_20 
REMARK    6  A    between atoms: C15_20  and  C16_22 
REMARK    7  A    between atoms: C17_23  and  C18_24 
REMARK    8  A    between atoms: C18_24  and  O3_26 
ROOT
HETATM    1  C1  UNL     1      29.550  -0.145  53.761  1.00  0.00     0.038 C 
HETATM    2  C2  UNL     1      28.495   0.690  53.146  1.00  0.00     0.002 C 
HETATM    3  C3  UNL     1      27.222   0.484  53.442  1.00  0.00     0.076 A 
HETATM    4  N1  UNL     1      26.879  -0.511  54.322  1.00  0.00    -0.241 NA
HETATM    5  C4  UNL     1      25.578  -0.723  54.626  1.00  0.00     0.236 A 
HETATM    6  N2  UNL     1      24.623   0.037  54.066  1.00  0.00    -0.223 NA
HETATM    7  C5  UNL     1      24.877   1.034  53.191  1.00  0.00     0.150 A 
HETATM    8  C12 UNL     1      26.191   1.195  52.931  1.00  0.00     0.085 A 
ENDROOT
BRANCH   8   9
HETATM    9  C13 UNL     1      26.560   2.130  52.101  1.00  0.00    -0.093 C 
BRANCH   9  10
HETATM   10  C14 UNL     1      26.867   2.852  51.052  1.00  0.00     0.148 C 
BRANCH  10  11
HETATM   11  N4  UNL     1      26.116   3.961  50.693  1.00  0.00    -0.327 N 
HETATM   12  C15 UNL     1      26.495   4.609  49.484  1.00  0.00     0.245 C 
HETATM   13  O1  UNL     1      27.475   4.074  48.899  1.00  0.00    -0.268 OA
HETATM   14  H12 UNL     1      25.322   4.335  51.238  1.00  0.00     0.169 HD
BRANCH  12  15
HETATM   15  C16 UNL     1      25.838   5.776  48.945  1.00  0.00     0.081 C 
HETATM   16  C17 UNL     1      25.692   6.884  49.640  1.00  0.00     0.086 C 
BRANCH  16  17
HETATM   17  C18 UNL     1      25.021   8.039  49.053  1.00  0.00     0.165 C 
HETATM   18  O2  UNL     1      25.373   8.518  47.950  1.00  0.00    -0.647 OA
BRANCH  17  19
HETATM   19  O3  UNL     1      23.959   8.677  49.675  1.00  0.00    -0.773 OA
HETATM   20  H15 UNL     1      23.071   8.844  49.190  1.00  0.00     0.167 HD
ENDBRANCH  17  19
ENDBRANCH  16  17
ENDBRANCH  12  15
ENDBRANCH  10  11
ENDBRANCH   9  10
ENDBRANCH   8   9
BRANCH   7  21
HETATM   21  N3  UNL     1      23.893   1.852  52.584  1.00  0.00    -0.340 N 
HETATM   22  H6  UNL     1      23.826   2.842  52.958  1.00  0.00     0.167 HD
BRANCH  21  23
HETATM   23  C6  UNL     1      22.992   1.547  51.560  1.00  0.00     0.035 A 
HETATM   24  C7  UNL     1      21.930   0.661  51.758  1.00  0.00     0.029 A 
HETATM   25  C8  UNL     1      21.028   0.342  50.773  1.00  0.00     0.004 A 
HETATM   26  C9  UNL     1      21.118   0.885  49.511  1.00  0.00     0.019 A 
HETATM   27  C10 UNL     1      22.145   1.766  49.255  1.00  0.00     0.013 A 
HETATM   28 BR1  UNL     1      22.282   2.520  47.526  1.00  0.00    -0.051 Br
HETATM   29  C11 UNL     1      23.018   2.048  50.278  1.00  0.00     0.048 A 
ENDBRANCH  21  23
ENDBRANCH   7  21
TORSDOF 8
ENDMDL
MODEL 8
REMARK VINA RESULT:      -7.3      1.940      2.546
REMARK  8 active torsions:
REMARK  status: ('A' for Active; 'I' for Inactive)
REMARK    1  A    between atoms: C5_7  and  N3_8 
REMARK    2  A    between atoms: N3_8  and  C6_9 
REMARK    3  A    between atoms: C12_16  and  C13_17 
REMARK    4  A    between atoms: C13_17  and  C14_18 
REMARK    5  A    between atoms: C14_18  and  N4_19 
REMARK       I    between atoms: N4_19  and  C15_20 
REMARK    6  A    between atoms: C15_20  and  C16_22 
REMARK    7  A    between atoms: C17_23  and  C18_24 
REMARK    8  A    between atoms: C18_24  and  O3_26 
ROOT
HETATM    1  C1  UNL     1      21.395  -1.215  54.482  1.00  0.00     0.038 C 
HETATM    2  C2  UNL     1      22.195  -0.282  53.659  1.00  0.00     0.002 C 
HETATM    3  C3  UNL     1      21.663   0.294  52.592  1.00  0.00     0.076 A 
HETATM    4  N1  UNL     1      20.363   0.023  52.249  1.00  0.00    -0.241 NA
HETATM    5  C4  UNL     1      19.818   0.610  51.159  1.00  0.00     0.236 A 
HETATM    6  N2  UNL     1      20.548   1.457  50.414  1.00  0.00    -0.223 NA
HETATM    7  C5  UNL     1      21.832   1.776  50.685  1.00  0.00     0.150 A 
HETATM    8  C12 UNL     1      22.316   1.159  51.782  1.00  0.00     0.085 A 
ENDROOT
BRANCH   8   9
HETATM    9  C13 UNL     1      23.546   1.390  52.145  1.00  0.00    -0.093 C 
BRANCH   9  10
HETATM   10  C14 UNL     1      24.810   1.727  52.217  1.00  0.00     0.148 C 
BRANCH  10  11
HETATM   11  N4  UNL     1      25.807   0.772  52.341  1.00  0.00    -0.327 N 
HETATM   12  C15 UNL     1      26.588   0.833  53.529  1.00  0.00     0.245 C 
HETATM   13  O1  UNL     1      26.259   1.762  54.314  1.00  0.00    -0.268 OA
HETATM   14  H12 UNL     1      26.010   0.040  51.642  1.00  0.00     0.169 HD
BRANCH  12  15
HETATM   15  C16 UNL     1      27.670  -0.072  53.840  1.00  0.00     0.081 C 
HETATM   16  C17 UNL     1      27.939  -1.126  53.101  1.00  0.00     0.086 C 
BRANCH  16  17
HETATM   17  C18 UNL     1      29.043  -2.013  53.455  1.00  0.00     0.165 C 
HETATM   18  O2  UNL     1      30.171  -1.569  53.775  1.00  0.00    -0.647 OA
BRANCH  17  19
HETATM   19  O3  UNL     1      28.916  -3.392  53.458  1.00  0.00    -0.773 OA
HETATM   20  H15 UNL     1      28.183  -3.865  53.997  1.00  0.00     0.167 HD
ENDBRANCH  17  19
ENDBRANCH  16  17
ENDBRANCH  12  15
ENDBRANCH  10  11
ENDBRANCH   9  10
ENDBRANCH   8   9
BRANCH   7  21
HETATM   21  N3  UNL     1      22.627   2.664  49.920  1.00  0.00    -0.340 N 
HETATM   22  H6  UNL     1      23.219   2.213  49.165  1.00  0.00     0.167 HD
BRANCH  21  23
HETATM   23  C6  UNL     1      22.747   4.053  50.013  1.00  0.00     0.035 A 
HETATM   24  C7  UNL     1      22.096   4.781  51.012  1.00  0.00     0.029 A 
HETATM   25  C8  UNL     1      22.195   6.146  51.129  1.00  0.00     0.004 A 
HETATM   26  C9  UNL     1      22.956   6.890  50.256  1.00  0.00     0.019 A 
HETATM   27  C10 UNL     1      23.623   6.227  49.250  1.00  0.00     0.013 A 
HETATM   28 BR1  UNL     1      24.673   7.237  48.042  1.00  0.00    -0.051 Br
HETATM   29  C11 UNL     1      23.487   4.863  49.180  1.00  0.00     0.048 A 
ENDBRANCH  21  23
ENDBRANCH   7  21
TORSDOF 8
ENDMDL
MODEL 9
REMARK VINA RESULT:      -7.3      4.127      7.435
REMARK  8 active torsions:
REMARK  status: ('A' for Active; 'I' for Inactive)
REMARK    1  A    between atoms: C5_7  and  N3_8 
REMARK    2  A    between atoms: N3_8  and  C6_9 
REMARK    3  A    between atoms: C12_16  and  C13_17 
REMARK    4  A    between atoms: C13_17  and  C14_18 
REMARK    5  A    between atoms: C14_18  and  N4_19 
REMARK       I    between atoms: N4_19  and  C15_20 
REMARK    6  A    between atoms: C15_20  and  C16_22 
REMARK    7  A    between atoms: C17_23  and  C18_24 
REMARK    8  A    between atoms: C18_24  and  O3_26 
ROOT
HETATM    1  C1  UNL     1      22.160   4.733  48.203  1.00  0.00     0.038 C 
HETATM    2  C2  UNL     1      23.558   4.611  48.670  1.00  0.00     0.002 C 
HETATM    3  C3  UNL     1      23.843   3.894  49.746  1.00  0.00     0.076 A 
HETATM    4  N1  UNL     1      22.836   3.262  50.430  1.00  0.00    -0.241 NA
HETATM    5  C4  UNL     1      23.125   2.528  51.530  1.00  0.00     0.236 A 
HETATM    6  N2  UNL     1      24.396   2.420  51.951  1.00  0.00    -0.223 NA
HETATM    7  C5  UNL     1      25.443   3.010  51.334  1.00  0.00     0.150 A 
HETATM    8  C12 UNL     1      25.088   3.725  50.247  1.00  0.00     0.085 A 
ENDROOT
BRANCH   8   9
HETATM    9  C13 UNL     1      26.014   4.340  49.567  1.00  0.00    -0.093 C 
BRANCH   9  10
HETATM   10  C14 UNL     1      27.119   4.713  48.969  1.00  0.00     0.148 C 
BRANCH  10  11
HETATM   11  N4  UNL     1      27.522   6.039  48.958  1.00  0.00    -0.327 N 
HETATM   12  C15 UNL     1      28.783   6.305  48.355  1.00  0.00     0.245 C 
HETATM   13  O1  UNL     1      29.365   5.282  47.907  1.00  0.00    -0.268 OA
HETATM   14  H12 UNL     1      26.977   6.822  49.352  1.00  0.00     0.169 HD
BRANCH  12  15
HETATM   15  C16 UNL     1      29.374   7.618  48.247  1.00  0.00     0.081 C 
HETATM   16  C17 UNL     1      29.316   8.497  49.225  1.00  0.00     0.086 C 
BRANCH  16  17
HETATM   17  C18 UNL     1      29.928   9.813  49.070  1.00  0.00     0.165 C 
HETATM   18  O2  UNL     1      31.119   9.949  48.705  1.00  0.00    -0.647 OA
BRANCH  17  19
HETATM   19  O3  UNL     1      29.236  10.988  49.318  1.00  0.00    -0.773 OA
HETATM   20  H15 UNL     1      28.450  11.022  49.975  1.00  0.00     0.167 HD
ENDBRANCH  17  19
ENDBRANCH  16  17
ENDBRANCH  12  15
ENDBRANCH  10  11
ENDBRANCH   9  10
ENDBRANCH   8   9
BRANCH   7  21
HETATM   21  N3  UNL     1      26.791   2.915  51.754  1.00  0.00    -0.340 N 
HETATM   22  H6  UNL     1      27.414   3.730  51.485  1.00  0.00     0.167 HD
BRANCH  21  23
HETATM   23  C6  UNL     1      27.429   1.899  52.473  1.00  0.00     0.035 A 
HETATM   24  C7  UNL     1      28.372   2.184  53.464  1.00  0.00     0.029 A 
HETATM   25  C8  UNL     1      29.014   1.209  54.188  1.00  0.00     0.004 A 
HETATM   26  C9  UNL     1      28.762  -0.128  53.976  1.00  0.00     0.019 A 
HETATM   27  C10 UNL     1      27.841  -0.470  53.012  1.00  0.00     0.013 A 
HETATM   28 BR1  UNL     1      27.485  -2.303  52.710  1.00  0.00    -0.051 Br
HETATM   29  C11 UNL     1      27.230   0.546  52.319  1.00  0.00     0.048 A 
ENDBRANCH  21  23
ENDBRANCH   7  21
TORSDOF 8
ENDMDL
