MODEL 1
REMARK VINA RESULT:      -8.3      0.000      0.000
REMARK  4 active torsions:
REMARK  status: ('A' for Active; 'I' for Inactive)
REMARK    1  A    between atoms: C3_3  and  C4_4 
REMARK    2  A    between atoms: C4_4  and  C5_6 
REMARK    3  A    between atoms: C5_6  and  C6_7 
REMARK    4  A    between atoms: C9_13  and  C10_14 
ROOT
HETATM    1  C6  UNL     1      26.615  -0.028  53.994  1.00  0.00     0.056 C 
HETATM    2  N1  UNL     1      27.258   0.184  55.201  1.00  0.00    -0.280 N 
HETATM    3  N2  UNL     1      28.567   0.703  55.108  1.00  0.00    -0.170 NA
HETATM    4  C7  UNL     1      28.955   1.121  53.960  1.00  0.00     0.133 C 
HETATM    5  C8  UNL     1      28.072   1.552  53.072  1.00  0.00     0.057 A 
HETATM    6  N3  UNL     1      27.588   2.651  52.310  1.00  0.00    -0.356 N 
HETATM    7  C9  UNL     1      26.483   2.194  51.542  1.00  0.00     0.040 A 
HETATM    8  C16 UNL     1      26.243   0.914  51.761  1.00  0.00     0.020 A 
HETATM    9  C17 UNL     1      27.197   0.364  52.728  1.00  0.00     0.115 A 
HETATM   10  H6  UNL     1      26.791  -0.028  56.107  1.00  0.00     0.189 HD
HETATM   11  H7  UNL     1      28.095   3.547  52.436  1.00  0.00     0.166 HD
ENDROOT
BRANCH   1  12
HETATM   12  C5  UNL     1      25.425  -0.613  53.988  1.00  0.00     0.043 C 
BRANCH  12  13
HETATM   13  C4  UNL     1      24.157  -0.852  54.296  1.00  0.00     0.129 C 
HETATM   14  F1  UNL     1      24.323  -1.181  55.584  1.00  0.00    -0.205 F 
BRANCH  13  15
HETATM   15  C3  UNL     1      23.103  -0.717  53.320  1.00  0.00     0.039 C 
HETATM   16  C2  UNL     1      22.836   0.459  52.736  1.00  0.00    -0.028 C 
HETATM   17  C1  UNL     1      21.749   0.573  51.739  1.00  0.00     0.036 C 
ENDBRANCH  13  15
ENDBRANCH  12  13
ENDBRANCH   1  12
BRANCH   7  18
HETATM   18  C10 UNL     1      25.744   3.072  50.644  1.00  0.00    -0.010 A 
HETATM   19  C11 UNL     1      26.402   4.065  49.960  1.00  0.00     0.013 A 
HETATM   20  C12 UNL     1      25.715   4.908  49.103  1.00  0.00     0.001 A 
HETATM   21  C13 UNL     1      24.356   4.772  48.916  1.00  0.00     0.000 A 
HETATM   22  C14 UNL     1      23.652   3.775  49.592  1.00  0.00     0.001 A 
HETATM   23  C15 UNL     1      24.387   2.968  50.430  1.00  0.00     0.013 A 
ENDBRANCH   7  18
TORSDOF 4
ENDMDL
MODEL 2
REMARK VINA RESULT:      -7.7      3.334      6.974
REMARK  4 active torsions:
REMARK  status: ('A' for Active; 'I' for Inactive)
REMARK    1  A    between atoms: C3_3  and  C4_4 
REMARK    2  A    between atoms: C4_4  and  C5_6 
REMARK    3  A    between atoms: C5_6  and  C6_7 
REMARK    4  A    between atoms: C9_13  and  C10_14 
ROOT
HETATM    1  C6  UNL     1      25.111   4.674  50.500  1.00  0.00     0.056 C 
HETATM    2  N1  UNL     1      24.525   5.797  51.060  1.00  0.00    -0.280 N 
HETATM    3  N2  UNL     1      23.496   5.543  51.991  1.00  0.00    -0.170 NA
HETATM    4  C7  UNL     1      23.343   4.332  52.386  1.00  0.00     0.133 C 
HETATM    5  C8  UNL     1      24.367   3.492  52.375  1.00  0.00     0.057 A 
HETATM    6  N3  UNL     1      25.251   2.682  53.140  1.00  0.00    -0.356 N 
HETATM    7  C9  UNL     1      26.157   2.059  52.240  1.00  0.00     0.040 A 
HETATM    8  C16 UNL     1      25.911   2.409  50.992  1.00  0.00     0.020 A 
HETATM    9  C17 UNL     1      24.774   3.332  50.925  1.00  0.00     0.115 A 
HETATM   10  H6  UNL     1      24.837   6.756  50.802  1.00  0.00     0.189 HD
HETATM   11  H7  UNL     1      25.093   2.684  54.165  1.00  0.00     0.166 HD
ENDROOT
BRANCH   1  12
HETATM   12  C5  UNL     1      26.011   4.826  49.538  1.00  0.00     0.043 C 
BRANCH  12  13
HETATM   13  C4  UNL     1      26.834   5.431  48.691  1.00  0.00     0.129 C 
HETATM   14  F1  UNL     1      25.977   6.332  48.190  1.00  0.00    -0.205 F 
BRANCH  13  15
HETATM   15  C3  UNL     1      28.211   5.024  48.554  1.00  0.00     0.039 C 
HETATM   16  C2  UNL     1      29.143   5.859  48.076  1.00  0.00    -0.028 C 
HETATM   17  C1  UNL     1      30.550   5.418  47.944  1.00  0.00     0.036 C 
ENDBRANCH  13  15
ENDBRANCH  12  13
ENDBRANCH   1  12
BRANCH   7  18
HETATM   18  C10 UNL     1      27.207   1.156  52.695  1.00  0.00    -0.010 A 
HETATM   19  C11 UNL     1      27.047  -0.202  52.569  1.00  0.00     0.013 A 
HETATM   20  C12 UNL     1      28.034  -1.074  52.996  1.00  0.00     0.001 A 
HETATM   21  C13 UNL     1      29.201  -0.600  53.558  1.00  0.00     0.000 A 
HETATM   22  C14 UNL     1      29.401   0.773  53.702  1.00  0.00     0.001 A 
HETATM   23  C15 UNL     1      28.386   1.590  53.260  1.00  0.00     0.013 A 
ENDBRANCH   7  18
TORSDOF 4
ENDMDL
MODEL 3
REMARK VINA RESULT:      -7.6      2.406      5.213
REMARK  4 active torsions:
REMARK  status: ('A' for Active; 'I' for Inactive)
REMARK    1  A    between atoms: C3_3  and  C4_4 
REMARK    2  A    between atoms: C4_4  and  C5_6 
REMARK    3  A    between atoms: C5_6  and  C6_7 
REMARK    4  A    between atoms: C9_13  and  C10_14 
ROOT
HETATM    1  C6  UNL     1      23.260   2.209  50.923  1.00  0.00     0.056 C 
HETATM    2  N1  UNL     1      23.033   2.815  49.699  1.00  0.00    -0.280 N 
HETATM    3  N2  UNL     1      23.696   4.044  49.498  1.00  0.00    -0.170 NA
HETATM    4  C7  UNL     1      24.592   4.377  50.352  1.00  0.00     0.133 C 
HETATM    5  C8  UNL     1      25.241   3.447  51.037  1.00  0.00     0.057 A 
HETATM    6  N3  UNL     1      26.489   2.825  51.313  1.00  0.00    -0.356 N 
HETATM    7  C9  UNL     1      26.260   1.793  52.262  1.00  0.00     0.040 A 
HETATM    8  C16 UNL     1      24.985   1.724  52.597  1.00  0.00     0.020 A 
HETATM    9  C17 UNL     1      24.204   2.739  51.885  1.00  0.00     0.115 A 
HETATM   10  H6  UNL     1      22.413   2.377  48.986  1.00  0.00     0.189 HD
HETATM   11  H7  UNL     1      27.308   3.209  50.804  1.00  0.00     0.166 HD
ENDROOT
BRANCH   1  12
HETATM   12  C5  UNL     1      22.592   1.107  51.234  1.00  0.00     0.043 C 
BRANCH  12  13
HETATM   13  C4  UNL     1      21.588   0.331  51.620  1.00  0.00     0.129 C 
HETATM   14  F1  UNL     1      20.946   0.239  50.447  1.00  0.00    -0.205 F 
BRANCH  13  15
HETATM   15  C3  UNL     1      21.470  -0.135  52.980  1.00  0.00     0.039 C 
HETATM   16  C2  UNL     1      22.497  -0.719  53.611  1.00  0.00    -0.028 C 
HETATM   17  C1  UNL     1      22.352  -1.190  55.007  1.00  0.00     0.036 C 
ENDBRANCH  13  15
ENDBRANCH  12  13
ENDBRANCH   1  12
BRANCH   7  18
HETATM   18  C10 UNL     1      27.335   0.948  52.766  1.00  0.00    -0.010 A 
HETATM   19  C11 UNL     1      28.439   1.517  53.353  1.00  0.00     0.013 A 
HETATM   20  C12 UNL     1      29.469   0.729  53.837  1.00  0.00     0.001 A 
HETATM   21  C13 UNL     1      29.412  -0.646  53.742  1.00  0.00     0.000 A 
HETATM   22  C14 UNL     1      28.307  -1.261  53.153  1.00  0.00     0.001 A 
HETATM   23  C15 UNL     1      27.315  -0.428  52.690  1.00  0.00     0.013 A 
ENDBRANCH   7  18
TORSDOF 4
ENDMDL
MODEL 4
REMARK VINA RESULT:      -7.5      2.011      2.360
REMARK  4 active torsions:
REMARK  status: ('A' for Active; 'I' for Inactive)
REMARK    1  A    between atoms: C3_3  and  C4_4 
REMARK    2  A    between atoms: C4_4  and  C5_6 
REMARK    3  A    between atoms: C5_6  and  C6_7 
REMARK    4  A    between atoms: C9_13  and  C10_14 
ROOT
HETATM    1  C6  UNL     1      24.959  -0.366  54.192  1.00  0.00     0.056 C 
HETATM    2  N1  UNL     1      25.907  -0.493  55.193  1.00  0.00    -0.280 N 
HETATM    3  N2  UNL     1      27.183   0.028  54.891  1.00  0.00    -0.170 NA
HETATM    4  C7  UNL     1      27.292   0.743  53.832  1.00  0.00     0.133 C 
HETATM    5  C8  UNL     1      26.244   1.403  53.360  1.00  0.00     0.057 A 
HETATM    6  N3  UNL     1      25.664   2.669  53.073  1.00  0.00    -0.356 N 
HETATM    7  C9  UNL     1      24.367   2.442  52.539  1.00  0.00     0.040 A 
HETATM    8  C16 UNL     1      24.096   1.152  52.470  1.00  0.00     0.020 A 
HETATM    9  C17 UNL     1      25.223   0.356  52.965  1.00  0.00     0.115 A 
HETATM   10  H6  UNL     1      25.675  -0.944  56.103  1.00  0.00     0.189 HD
HETATM   11  H7  UNL     1      26.253   3.495  53.288  1.00  0.00     0.166 HD
ENDROOT
BRANCH   1  12
HETATM   12  C5  UNL     1      23.768  -0.924  54.353  1.00  0.00     0.043 C 
BRANCH  12  13
HETATM   13  C4  UNL     1      22.638  -1.292  54.944  1.00  0.00     0.129 C 
HETATM   14  F1  UNL     1      23.138  -1.627  56.141  1.00  0.00    -0.205 F 
BRANCH  13  15
HETATM   15  C3  UNL     1      21.372  -1.242  54.253  1.00  0.00     0.039 C 
HETATM   16  C2  UNL     1      20.953  -0.128  53.638  1.00  0.00    -0.028 C 
HETATM   17  C1  UNL     1      19.650  -0.102  52.937  1.00  0.00     0.036 C 
ENDBRANCH  13  15
ENDBRANCH  12  13
ENDBRANCH   1  12
BRANCH   7  18
HETATM   18  C10 UNL     1      23.490   3.534  52.136  1.00  0.00    -0.010 A 
HETATM   19  C11 UNL     1      24.027   4.721  51.702  1.00  0.00     0.013 A 
HETATM   20  C12 UNL     1      23.208   5.769  51.315  1.00  0.00     0.001 A 
HETATM   21  C13 UNL     1      21.835   5.645  51.358  1.00  0.00     0.000 A 
HETATM   22  C14 UNL     1      21.252   4.455  51.792  1.00  0.00     0.001 A 
HETATM   23  C15 UNL     1      22.115   3.450  52.164  1.00  0.00     0.013 A 
ENDBRANCH   7  18
TORSDOF 4
ENDMDL
MODEL 5
REMARK VINA RESULT:      -7.5      2.565      5.607
REMARK  4 active torsions:
REMARK  status: ('A' for Active; 'I' for Inactive)
REMARK    1  A    between atoms: C3_3  and  C4_4 
REMARK    2  A    between atoms: C4_4  and  C5_6 
REMARK    3  A    between atoms: C5_6  and  C6_7 
REMARK    4  A    between atoms: C9_13  and  C10_14 
ROOT
HETATM    1  C6  UNL     1      22.656   0.334  53.047  1.00  0.00     0.056 C 
HETATM    2  N1  UNL     1      21.685   0.593  53.999  1.00  0.00    -0.280 N 
HETATM    3  N2  UNL     1      21.564  -0.373  55.021  1.00  0.00    -0.170 NA
HETATM    4  C7  UNL     1      22.478  -1.269  55.097  1.00  0.00     0.133 C 
HETATM    5  C8  UNL     1      23.699  -1.018  54.646  1.00  0.00     0.057 A 
HETATM    6  N3  UNL     1      25.076  -0.865  54.962  1.00  0.00    -0.356 N 
HETATM    7  C9  UNL     1      25.766  -0.555  53.758  1.00  0.00     0.040 A 
HETATM    8  C16 UNL     1      24.938  -0.505  52.731  1.00  0.00     0.020 A 
HETATM    9  C17 UNL     1      23.565  -0.788  53.155  1.00  0.00     0.115 A 
HETATM   10  H6  UNL     1      21.095   1.450  53.950  1.00  0.00     0.189 HD
HETATM   11  H7  UNL     1      25.330  -0.998  55.958  1.00  0.00     0.166 HD
ENDROOT
BRANCH   1  12
HETATM   12  C5  UNL     1      22.762   1.135  51.996  1.00  0.00     0.043 C 
BRANCH  12  13
HETATM   13  C4  UNL     1      22.891   2.254  51.295  1.00  0.00     0.129 C 
HETATM   14  F1  UNL     1      21.623   2.681  51.368  1.00  0.00    -0.205 F 
BRANCH  13  15
HETATM   15  C3  UNL     1      24.157   2.651  50.728  1.00  0.00     0.039 C 
HETATM   16  C2  UNL     1      25.295   2.567  51.430  1.00  0.00    -0.028 C 
HETATM   17  C1  UNL     1      26.581   2.982  50.827  1.00  0.00     0.036 C 
ENDBRANCH  13  15
ENDBRANCH  12  13
ENDBRANCH   1  12
BRANCH   7  18
HETATM   18  C10 UNL     1      27.206  -0.330  53.723  1.00  0.00    -0.010 A 
HETATM   19  C11 UNL     1      27.718   0.894  54.075  1.00  0.00     0.013 A 
HETATM   20  C12 UNL     1      29.083   1.124  54.047  1.00  0.00     0.001 A 
HETATM   21  C13 UNL     1      29.960   0.131  53.665  1.00  0.00     0.000 A 
HETATM   22  C14 UNL     1      29.478  -1.126  53.301  1.00  0.00     0.001 A 
HETATM   23  C15 UNL     1      28.113  -1.297  53.348  1.00  0.00     0.013 A 
ENDBRANCH   7  18
TORSDOF 4
ENDMDL
MODEL 6
REMARK VINA RESULT:      -7.4      3.410      7.196
REMARK  4 active torsions:
REMARK  status: ('A' for Active; 'I' for Inactive)
REMARK    1  A    between atoms: C3_3  and  C4_4 
REMARK    2  A    between atoms: C4_4  and  C5_6 
REMARK    3  A    between atoms: C5_6  and  C6_7 
REMARK    4  A    between atoms: C9_13  and  C10_14 
ROOT
HETATM    1  C6  UNL     1      25.410   5.498  49.912  1.00  0.00     0.056 C 
HETATM    2  N1  UNL     1      25.365   6.763  50.472  1.00  0.00    -0.280 N 
HETATM    3  N2  UNL     1      24.231   7.037  51.266  1.00  0.00    -0.170 NA
HETATM    4  C7  UNL     1      23.470   6.049  51.566  1.00  0.00     0.133 C 
HETATM    5  C8  UNL     1      23.960   4.819  51.617  1.00  0.00     0.057 A 
HETATM    6  N3  UNL     1      24.246   3.684  52.424  1.00  0.00    -0.356 N 
HETATM    7  C9  UNL     1      24.849   2.701  51.594  1.00  0.00     0.040 A 
HETATM    8  C16 UNL     1      24.960   3.128  50.349  1.00  0.00     0.020 A 
HETATM    9  C17 UNL     1      24.421   4.484  50.214  1.00  0.00     0.115 A 
HETATM   10  H6  UNL     1      26.128   7.454  50.309  1.00  0.00     0.189 HD
HETATM   11  H7  UNL     1      23.979   3.760  53.424  1.00  0.00     0.166 HD
ENDROOT
BRANCH   1  12
HETATM   12  C5  UNL     1      26.385   5.198  49.066  1.00  0.00     0.043 C 
BRANCH  12  13
HETATM   13  C4  UNL     1      27.608   5.121  48.557  1.00  0.00     0.129 C 
HETATM   14  F1  UNL     1      27.749   3.789  48.578  1.00  0.00    -0.205 F 
BRANCH  13  15
HETATM   15  C3  UNL     1      28.346   6.302  48.178  1.00  0.00     0.039 C 
HETATM   16  C2  UNL     1      29.644   6.242  47.853  1.00  0.00    -0.028 C 
HETATM   17  C1  UNL     1      30.379   7.468  47.468  1.00  0.00     0.036 C 
ENDBRANCH  13  15
ENDBRANCH  12  13
ENDBRANCH   1  12
BRANCH   7  18
HETATM   18  C10 UNL     1      25.273   1.404  52.106  1.00  0.00    -0.010 A 
HETATM   19  C11 UNL     1      24.428   0.672  52.904  1.00  0.00     0.013 A 
HETATM   20  C12 UNL     1      24.815  -0.562  53.399  1.00  0.00     0.001 A 
HETATM   21  C13 UNL     1      26.056  -1.085  53.102  1.00  0.00     0.000 A 
HETATM   22  C14 UNL     1      26.942  -0.372  52.294  1.00  0.00     0.001 A 
HETATM   23  C15 UNL     1      26.503   0.848  51.832  1.00  0.00     0.013 A 
ENDBRANCH   7  18
TORSDOF 4
ENDMDL
MODEL 7
REMARK VINA RESULT:      -7.4      2.675      5.992
REMARK  4 active torsions:
REMARK  status: ('A' for Active; 'I' for Inactive)
REMARK    1  A    between atoms: C3_3  and  C4_4 
REMARK    2  A    between atoms: C4_4  and  C5_6 
REMARK    3  A    between atoms: C5_6  and  C6_7 
REMARK    4  A    between atoms: C9_13  and  C10_14 
ROOT
HETATM    1  C6  UNL     1      25.210   1.216  52.021  1.00  0.00     0.056 C 
HETATM    2  N1  UNL     1      26.321   0.396  51.926  1.00  0.00    -0.280 N 
HETATM    3  N2  UNL     1      26.533  -0.469  53.021  1.00  0.00    -0.170 NA
HETATM    4  C7  UNL     1      25.589  -0.570  53.883  1.00  0.00     0.133 C 
HETATM    5  C8  UNL     1      24.333  -0.342  53.529  1.00  0.00     0.057 A 
HETATM    6  N3  UNL     1      23.026  -0.878  53.365  1.00  0.00    -0.356 N 
HETATM    7  C9  UNL     1      22.189   0.161  52.875  1.00  0.00     0.040 A 
HETATM    8  C16 UNL     1      22.862   1.286  52.723  1.00  0.00     0.020 A 
HETATM    9  C17 UNL     1      24.264   1.112  53.112  1.00  0.00     0.115 A 
HETATM   10  H6  UNL     1      26.947   0.428  51.094  1.00  0.00     0.189 HD
HETATM   11  H7  UNL     1      22.912  -1.877  53.618  1.00  0.00     0.166 HD
ENDROOT
BRANCH   1  12
HETATM   12  C5  UNL     1      25.000   2.132  51.087  1.00  0.00     0.043 C 
BRANCH  12  13
HETATM   13  C4  UNL     1      25.168   3.235  50.368  1.00  0.00     0.129 C 
HETATM   14  F1  UNL     1      23.944   3.760  50.520  1.00  0.00    -0.205 F 
BRANCH  13  15
HETATM   15  C3  UNL     1      26.420   3.529  49.715  1.00  0.00     0.039 C 
HETATM   16  C2  UNL     1      26.664   4.731  49.177  1.00  0.00    -0.028 C 
HETATM   17  C1  UNL     1      27.956   5.009  48.512  1.00  0.00     0.036 C 
ENDBRANCH  13  15
ENDBRANCH  12  13
ENDBRANCH   1  12
BRANCH   7  18
HETATM   18  C10 UNL     1      20.775  -0.049  52.592  1.00  0.00    -0.010 A 
HETATM   19  C11 UNL     1      19.993  -0.745  53.481  1.00  0.00     0.013 A 
HETATM   20  C12 UNL     1      18.648  -0.953  53.228  1.00  0.00     0.001 A 
HETATM   21  C13 UNL     1      18.062  -0.467  52.078  1.00  0.00     0.000 A 
HETATM   22  C14 UNL     1      18.822   0.245  51.152  1.00  0.00     0.001 A 
HETATM   23  C15 UNL     1      20.153   0.421  51.456  1.00  0.00     0.013 A 
ENDBRANCH   7  18
TORSDOF 4
ENDMDL
MODEL 8
REMARK VINA RESULT:      -7.4      2.768      5.407
REMARK  4 active torsions:
REMARK  status: ('A' for Active; 'I' for Inactive)
REMARK    1  A    between atoms: C3_3  and  C4_4 
REMARK    2  A    between atoms: C4_4  and  C5_6 
REMARK    3  A    between atoms: C5_6  and  C6_7 
REMARK    4  A    between atoms: C9_13  and  C10_14 
ROOT
HETATM    1  C6  UNL     1      22.142   0.610  53.270  1.00  0.00     0.056 C 
HETATM    2  N1  UNL     1      21.144   0.388  54.205  1.00  0.00    -0.280 N 
HETATM    3  N2  UNL     1      21.227  -0.836  54.902  1.00  0.00    -0.170 NA
HETATM    4  C7  UNL     1      22.304  -1.519  54.768  1.00  0.00     0.133 C 
HETATM    5  C8  UNL     1      23.446  -0.915  54.472  1.00  0.00     0.057 A 
HETATM    6  N3  UNL     1      24.766  -0.593  54.890  1.00  0.00    -0.356 N 
HETATM    7  C9  UNL     1      25.371   0.179  53.862  1.00  0.00     0.040 A 
HETATM    8  C16 UNL     1      24.544   0.361  52.849  1.00  0.00     0.020 A 
HETATM    9  C17 UNL     1      23.259  -0.295  53.102  1.00  0.00     0.115 A 
HETATM   10  H6  UNL     1      20.392   1.089  54.370  1.00  0.00     0.189 HD
HETATM   11  H7  UNL     1      25.047  -0.957  55.819  1.00  0.00     0.166 HD
ENDROOT
BRANCH   1  12
HETATM   12  C5  UNL     1      22.077   1.685  52.497  1.00  0.00     0.043 C 
BRANCH  12  13
HETATM   13  C4  UNL     1      22.480   2.732  51.788  1.00  0.00     0.129 C 
HETATM   14  F1  UNL     1      22.956   3.481  52.792  1.00  0.00    -0.205 F 
BRANCH  13  15
HETATM   15  C3  UNL     1      22.324   2.780  50.355  1.00  0.00     0.039 C 
HETATM   16  C2  UNL     1      22.234   1.663  49.622  1.00  0.00    -0.028 C 
HETATM   17  C1  UNL     1      22.075   1.739  48.153  1.00  0.00     0.036 C 
ENDBRANCH  13  15
ENDBRANCH  12  13
ENDBRANCH   1  12
BRANCH   7  18
HETATM   18  C10 UNL     1      26.735   0.682  53.968  1.00  0.00    -0.010 A 
HETATM   19  C11 UNL     1      27.707  -0.089  54.558  1.00  0.00     0.013 A 
HETATM   20  C12 UNL     1      29.007   0.373  54.667  1.00  0.00     0.001 A 
HETATM   21  C13 UNL     1      29.358   1.617  54.186  1.00  0.00     0.000 A 
HETATM   22  C14 UNL     1      28.400   2.429  53.579  1.00  0.00     0.001 A 
HETATM   23  C15 UNL     1      27.125   1.917  53.500  1.00  0.00     0.013 A 
ENDBRANCH   7  18
TORSDOF 4
ENDMDL
MODEL 9
REMARK VINA RESULT:      -7.3      2.652      5.573
REMARK  4 active torsions:
REMARK  status: ('A' for Active; 'I' for Inactive)
REMARK    1  A    between atoms: C3_3  and  C4_4 
REMARK    2  A    between atoms: C4_4  and  C5_6 
REMARK    3  A    between atoms: C5_6  and  C6_7 
REMARK    4  A    between atoms: C9_13  and  C10_14 
ROOT
HETATM    1  C6  UNL     1      25.380   3.093  51.308  1.00  0.00     0.056 C 
HETATM    2  N1  UNL     1      26.679   2.811  50.923  1.00  0.00    -0.280 N 
HETATM    3  N2  UNL     1      27.541   2.389  51.958  1.00  0.00    -0.170 NA
HETATM    4  C7  UNL     1      27.009   2.106  53.089  1.00  0.00     0.133 C 
HETATM    5  C8  UNL     1      25.748   1.703  53.153  1.00  0.00     0.057 A 
HETATM    6  N3  UNL     1      24.850   0.651  53.480  1.00  0.00    -0.356 N 
HETATM    7  C9  UNL     1      23.531   1.105  53.205  1.00  0.00     0.040 A 
HETATM    8  C16 UNL     1      23.537   2.340  52.740  1.00  0.00     0.020 A 
HETATM    9  C17 UNL     1      24.905   2.859  52.656  1.00  0.00     0.115 A 
HETATM   10  H6  UNL     1      26.982   2.907  49.931  1.00  0.00     0.189 HD
HETATM   11  H7  UNL     1      25.283  -0.218  53.844  1.00  0.00     0.166 HD
ENDROOT
BRANCH   1  12
HETATM   12  C5  UNL     1      24.536   3.597  50.419  1.00  0.00     0.043 C 
BRANCH  12  13
HETATM   13  C4  UNL     1      23.930   3.798  49.256  1.00  0.00     0.129 C 
HETATM   14  F1  UNL     1      24.799   4.670  48.727  1.00  0.00    -0.205 F 
BRANCH  13  15
HETATM   15  C3  UNL     1      22.695   3.132  48.921  1.00  0.00     0.039 C 
HETATM   16  C2  UNL     1      22.442   1.880  49.326  1.00  0.00    -0.028 C 
HETATM   17  C1  UNL     1      21.167   1.218  48.969  1.00  0.00     0.036 C 
ENDBRANCH  13  15
ENDBRANCH  12  13
ENDBRANCH   1  12
BRANCH   7  18
HETATM   18  C10 UNL     1      22.359   0.268  53.427  1.00  0.00    -0.010 A 
HETATM   19  C11 UNL     1      21.178   0.557  52.787  1.00  0.00     0.013 A 
HETATM   20  C12 UNL     1      20.055  -0.228  52.987  1.00  0.00     0.001 A 
HETATM   21  C13 UNL     1      20.095  -1.317  53.832  1.00  0.00     0.000 A 
HETATM   22  C14 UNL     1      21.276  -1.643  54.500  1.00  0.00     0.001 A 
HETATM   23  C15 UNL     1      22.359  -0.827  54.263  1.00  0.00     0.013 A 
ENDBRANCH   7  18
TORSDOF 4
ENDMDL
