MODEL 1
REMARK VINA RESULT:      -8.2      0.000      0.000
REMARK  4 active torsions:
REMARK  status: ('A' for Active; 'I' for Inactive)
REMARK    1  A    between atoms: C3_3  and  C15_20 
REMARK    2  A    between atoms: C4_4  and  C5_5 
REMARK    3  A    between atoms: C8_10  and  N3_11 
REMARK    4  A    between atoms: N3_11  and  C9_12 
ROOT
HETATM    1  C1  UNL     1      21.649   1.013  50.389  1.00  0.00     0.018 C 
HETATM    2  C2  UNL     1      22.272   1.123  51.435  1.00  0.00    -0.077 C 
HETATM    3  C3  UNL     1      22.983   1.260  52.674  1.00  0.00     0.024 C 
HETATM    4  C4  UNL     1      23.774   2.272  52.982  1.00  0.00     0.038 C 
ENDROOT
BRANCH   3   5
HETATM    5  C15 UNL     1      22.783   0.182  53.624  1.00  0.00    -0.031 A 
HETATM    6  C16 UNL     1      23.718  -0.692  53.969  1.00  0.00     0.045 A 
HETATM    7  O1  UNL     1      22.223  -0.685  54.543  1.00  0.00     0.000 OA
HETATM    8  C17 UNL     1      21.090  -1.497  54.200  1.00  0.00     0.000 C 
ENDBRANCH   3   5
BRANCH   4   9
HETATM    9  C5  UNL     1      24.061   3.412  52.123  1.00  0.00     0.029 A 
HETATM   10  C6  UNL     1      23.342   4.572  52.297  1.00  0.00     0.133 A 
HETATM   11  N1  UNL     1      23.540   5.685  51.560  1.00  0.00    -0.253 NA
HETATM   12  C7  UNL     1      24.500   5.601  50.624  1.00  0.00     0.234 A 
HETATM   13  N2  UNL     1      25.208   4.480  50.441  1.00  0.00    -0.224 NA
HETATM   14  C8  UNL     1      25.056   3.347  51.139  1.00  0.00     0.141 A 
BRANCH  14  15
HETATM   15  N3  UNL     1      25.812   2.162  50.938  1.00  0.00    -0.340 N 
HETATM   16  H5  UNL     1      25.709   1.735  49.991  1.00  0.00     0.167 HD
BRANCH  15  17
HETATM   17  C9  UNL     1      26.670   1.505  51.858  1.00  0.00     0.035 A 
HETATM   18  C10 UNL     1      27.547   2.128  52.718  1.00  0.00     0.032 A 
HETATM   19  C11 UNL     1      28.373   1.436  53.591  1.00  0.00     0.046 A 
HETATM   20  C12 UNL     1      28.276   0.064  53.562  1.00  0.00     0.138 A 
HETATM   21  F1  UNL     1      29.071  -0.678  54.406  1.00  0.00    -0.204 F 
HETATM   22  C13 UNL     1      27.418  -0.662  52.729  1.00  0.00     0.074 A 
HETATM   23 CL1  UNL     1      27.324  -2.391  52.723  1.00  0.00    -0.081 Cl
HETATM   24  C14 UNL     1      26.649   0.133  51.908  1.00  0.00     0.056 A 
ENDBRANCH  15  17
ENDBRANCH  14  15
ENDBRANCH   4   9
TORSDOF 4
ENDMDL
MODEL 2
REMARK VINA RESULT:      -8.0      3.128      5.387
REMARK  4 active torsions:
REMARK  status: ('A' for Active; 'I' for Inactive)
REMARK    1  A    between atoms: C3_3  and  C15_20 
REMARK    2  A    between atoms: C4_4  and  C5_5 
REMARK    3  A    between atoms: C8_10  and  N3_11 
REMARK    4  A    between atoms: N3_11  and  C9_12 
ROOT
HETATM    1  C1  UNL     1      24.463   6.877  50.647  1.00  0.00     0.018 C 
HETATM    2  C2  UNL     1      25.207   6.097  50.068  1.00  0.00    -0.077 C 
HETATM    3  C3  UNL     1      26.067   5.187  49.368  1.00  0.00     0.024 C 
HETATM    4  C4  UNL     1      25.921   3.875  49.347  1.00  0.00     0.038 C 
ENDROOT
BRANCH   3   5
HETATM    5  C15 UNL     1      27.164   5.805  48.647  1.00  0.00    -0.031 A 
HETATM    6  C16 UNL     1      28.340   5.229  48.439  1.00  0.00     0.045 A 
HETATM    7  O1  UNL     1      27.941   6.695  47.929  1.00  0.00     0.000 OA
HETATM    8  C17 UNL     1      28.270   7.987  48.460  1.00  0.00     0.000 C 
ENDBRANCH   3   5
BRANCH   4   9
HETATM    9  C5  UNL     1      24.871   3.131  50.026  1.00  0.00     0.029 A 
HETATM   10  C6  UNL     1      23.678   2.920  49.374  1.00  0.00     0.133 A 
HETATM   11  N1  UNL     1      22.648   2.234  49.913  1.00  0.00    -0.253 NA
HETATM   12  C7  UNL     1      22.852   1.756  51.153  1.00  0.00     0.234 A 
HETATM   13  N2  UNL     1      24.005   1.953  51.802  1.00  0.00    -0.224 NA
HETATM   14  C8  UNL     1      25.060   2.624  51.319  1.00  0.00     0.141 A 
BRANCH  14  15
HETATM   15  N3  UNL     1      26.280   2.829  52.015  1.00  0.00    -0.340 N 
HETATM   16  H5  UNL     1      26.560   3.829  52.119  1.00  0.00     0.167 HD
BRANCH  15  17
HETATM   17  C9  UNL     1      27.145   1.850  52.570  1.00  0.00     0.035 A 
HETATM   18  C10 UNL     1      28.291   2.112  53.287  1.00  0.00     0.032 A 
HETATM   19  C11 UNL     1      29.109   1.116  53.799  1.00  0.00     0.046 A 
HETATM   20  C12 UNL     1      28.716  -0.180  53.556  1.00  0.00     0.138 A 
HETATM   21  F1  UNL     1      29.487  -1.212  54.040  1.00  0.00    -0.204 F 
HETATM   22  C13 UNL     1      27.570  -0.550  52.842  1.00  0.00     0.074 A 
HETATM   23 CL1  UNL     1      27.109  -2.194  52.558  1.00  0.00    -0.081 Cl
HETATM   24  C14 UNL     1      26.840   0.524  52.384  1.00  0.00     0.056 A 
ENDBRANCH  15  17
ENDBRANCH  14  15
ENDBRANCH   4   9
TORSDOF 4
ENDMDL
MODEL 3
REMARK VINA RESULT:      -7.9      3.676      5.337
REMARK  4 active torsions:
REMARK  status: ('A' for Active; 'I' for Inactive)
REMARK    1  A    between atoms: C3_3  and  C15_20 
REMARK    2  A    between atoms: C4_4  and  C5_5 
REMARK    3  A    between atoms: C8_10  and  N3_11 
REMARK    4  A    between atoms: N3_11  and  C9_12 
ROOT
HETATM    1  C1  UNL     1      23.324   4.230  52.931  1.00  0.00     0.018 C 
HETATM    2  C2  UNL     1      23.434   3.087  52.509  1.00  0.00    -0.077 C 
HETATM    3  C3  UNL     1      23.555   1.739  52.034  1.00  0.00     0.024 C 
HETATM    4  C4  UNL     1      24.671   1.032  52.043  1.00  0.00     0.038 C 
ENDROOT
BRANCH   3   5
HETATM    5  C15 UNL     1      22.332   1.155  51.516  1.00  0.00    -0.031 A 
HETATM    6  C16 UNL     1      21.872   1.351  50.288  1.00  0.00     0.045 A 
HETATM    7  O1  UNL     1      21.155   0.441  51.395  1.00  0.00     0.000 OA
HETATM    8  C17 UNL     1      20.029   0.718  52.241  1.00  0.00     0.000 C 
ENDBRANCH   3   5
BRANCH   4   9
HETATM    9  C5  UNL     1      25.961   1.497  52.531  1.00  0.00     0.029 A 
HETATM   10  C6  UNL     1      26.297   1.266  53.845  1.00  0.00     0.133 A 
HETATM   11  N1  UNL     1      27.472   1.647  54.388  1.00  0.00    -0.253 NA
HETATM   12  C7  UNL     1      28.319   2.280  53.560  1.00  0.00     0.234 A 
HETATM   13  N2  UNL     1      28.008   2.514  52.279  1.00  0.00    -0.224 NA
HETATM   14  C8  UNL     1      26.860   2.160  51.685  1.00  0.00     0.141 A 
BRANCH  14  15
HETATM   15  N3  UNL     1      26.538   2.413  50.326  1.00  0.00    -0.340 N 
HETATM   16  H5  UNL     1      26.512   1.563  49.719  1.00  0.00     0.167 HD
BRANCH  15  17
HETATM   17  C9  UNL     1      26.258   3.660  49.710  1.00  0.00     0.035 A 
HETATM   18  C10 UNL     1      25.009   4.230  49.592  1.00  0.00     0.032 A 
HETATM   19  C11 UNL     1      24.789   5.449  48.969  1.00  0.00     0.046 A 
HETATM   20  C12 UNL     1      25.899   6.084  48.462  1.00  0.00     0.138 A 
HETATM   21  F1  UNL     1      25.743   7.297  47.832  1.00  0.00    -0.204 F 
HETATM   22  C13 UNL     1      27.206   5.590  48.531  1.00  0.00     0.074 A 
HETATM   23 CL1  UNL     1      28.579   6.420  47.880  1.00  0.00    -0.081 Cl
HETATM   24  C14 UNL     1      27.299   4.374  49.171  1.00  0.00     0.056 A 
ENDBRANCH  15  17
ENDBRANCH  14  15
ENDBRANCH   4   9
TORSDOF 4
ENDMDL
MODEL 4
REMARK VINA RESULT:      -7.9      3.654      5.921
REMARK  4 active torsions:
REMARK  status: ('A' for Active; 'I' for Inactive)
REMARK    1  A    between atoms: C3_3  and  C15_20 
REMARK    2  A    between atoms: C4_4  and  C5_5 
REMARK    3  A    between atoms: C8_10  and  N3_11 
REMARK    4  A    between atoms: N3_11  and  C9_12 
ROOT
HETATM    1  C1  UNL     1      24.184   3.364  53.490  1.00  0.00     0.018 C 
HETATM    2  C2  UNL     1      24.917   3.024  52.571  1.00  0.00    -0.077 C 
HETATM    3  C3  UNL     1      25.760   2.610  51.488  1.00  0.00     0.024 C 
HETATM    4  C4  UNL     1      26.796   1.799  51.605  1.00  0.00     0.038 C 
ENDROOT
BRANCH   3   5
HETATM    5  C15 UNL     1      25.406   3.149  50.188  1.00  0.00    -0.031 A 
HETATM    6  C16 UNL     1      26.261   3.743  49.368  1.00  0.00     0.045 A 
HETATM    7  O1  UNL     1      24.705   3.525  49.058  1.00  0.00     0.000 OA
HETATM    8  C17 UNL     1      23.602   4.441  49.141  1.00  0.00     0.000 C 
ENDBRANCH   3   5
BRANCH   4   9
HETATM    9  C5  UNL     1      27.258   1.192  52.845  1.00  0.00     0.029 A 
HETATM   10  C6  UNL     1      28.373   1.709  53.462  1.00  0.00     0.133 A 
HETATM   11  N1  UNL     1      28.873   1.225  54.619  1.00  0.00    -0.253 NA
HETATM   12  C7  UNL     1      28.208   0.184  55.150  1.00  0.00     0.234 A 
HETATM   13  N2  UNL     1      27.123  -0.332  54.562  1.00  0.00    -0.224 NA
HETATM   14  C8  UNL     1      26.582   0.106  53.417  1.00  0.00     0.141 A 
BRANCH  14  15
HETATM   15  N3  UNL     1      25.430  -0.448  52.800  1.00  0.00    -0.340 N 
HETATM   16  H5  UNL     1      25.608  -0.918  51.885  1.00  0.00     0.167 HD
BRANCH  15  17
HETATM   17  C9  UNL     1      24.092  -0.432  53.272  1.00  0.00     0.035 A 
HETATM   18  C10 UNL     1      23.686  -0.804  54.535  1.00  0.00     0.032 A 
HETATM   19  C11 UNL     1      22.361  -0.781  54.943  1.00  0.00     0.046 A 
HETATM   20  C12 UNL     1      21.443  -0.358  54.009  1.00  0.00     0.138 A 
HETATM   21  F1  UNL     1      20.112  -0.314  54.355  1.00  0.00    -0.204 F 
HETATM   22  C13 UNL     1      21.753   0.040  52.704  1.00  0.00     0.074 A 
HETATM   23 CL1  UNL     1      20.569   0.566  51.556  1.00  0.00    -0.081 Cl
HETATM   24  C14 UNL     1      23.098  -0.026  52.416  1.00  0.00     0.056 A 
ENDBRANCH  15  17
ENDBRANCH  14  15
ENDBRANCH   4   9
TORSDOF 4
ENDMDL
MODEL 5
REMARK VINA RESULT:      -7.8      2.794      4.547
REMARK  4 active torsions:
REMARK  status: ('A' for Active; 'I' for Inactive)
REMARK    1  A    between atoms: C3_3  and  C15_20 
REMARK    2  A    between atoms: C4_4  and  C5_5 
REMARK    3  A    between atoms: C8_10  and  N3_11 
REMARK    4  A    between atoms: N3_11  and  C9_12 
ROOT
HETATM    1  C1  UNL     1      23.782   4.204  53.408  1.00  0.00     0.018 C 
HETATM    2  C2  UNL     1      23.679   3.436  52.461  1.00  0.00    -0.077 C 
HETATM    3  C3  UNL     1      23.536   2.545  51.346  1.00  0.00     0.024 C 
HETATM    4  C4  UNL     1      23.151   1.285  51.430  1.00  0.00     0.038 C 
ENDROOT
BRANCH   3   5
HETATM    5  C15 UNL     1      23.850   3.121  50.051  1.00  0.00    -0.031 A 
HETATM    6  C16 UNL     1      25.078   3.395  49.634  1.00  0.00     0.045 A 
HETATM    7  O1  UNL     1      23.747   3.653  48.780  1.00  0.00     0.000 OA
HETATM    8  C17 UNL     1      23.015   4.864  48.541  1.00  0.00     0.000 C 
ENDBRANCH   3   5
BRANCH   4   9
HETATM    9  C5  UNL     1      22.809   0.587  52.661  1.00  0.00     0.029 A 
HETATM   10  C6  UNL     1      21.548   0.745  53.187  1.00  0.00     0.133 A 
HETATM   11  N1  UNL     1      21.132   0.133  54.316  1.00  0.00    -0.253 NA
HETATM   12  C7  UNL     1      22.036  -0.659  54.916  1.00  0.00     0.234 A 
HETATM   13  N2  UNL     1      23.268  -0.823  54.419  1.00  0.00    -0.224 NA
HETATM   14  C8  UNL     1      23.736  -0.243  53.306  1.00  0.00     0.141 A 
BRANCH  14  15
HETATM   15  N3  UNL     1      25.045  -0.423  52.786  1.00  0.00    -0.340 N 
HETATM   16  H5  UNL     1      25.112  -1.112  52.004  1.00  0.00     0.167 HD
BRANCH  15  17
HETATM   17  C9  UNL     1      26.246   0.209  53.201  1.00  0.00     0.035 A 
HETATM   18  C10 UNL     1      26.377   1.541  53.524  1.00  0.00     0.032 A 
HETATM   19  C11 UNL     1      27.580   2.112  53.913  1.00  0.00     0.046 A 
HETATM   20  C12 UNL     1      28.665   1.268  53.967  1.00  0.00     0.138 A 
HETATM   21  F1  UNL     1      29.886   1.776  54.348  1.00  0.00    -0.204 F 
HETATM   22  C13 UNL     1      28.635  -0.097  53.661  1.00  0.00     0.074 A 
HETATM   23 CL1  UNL     1      30.024  -1.127  53.742  1.00  0.00    -0.081 Cl
HETATM   24  C14 UNL     1      27.389  -0.548  53.288  1.00  0.00     0.056 A 
ENDBRANCH  15  17
ENDBRANCH  14  15
ENDBRANCH   4   9
TORSDOF 4
ENDMDL
MODEL 6
REMARK VINA RESULT:      -7.6      2.972      5.324
REMARK  4 active torsions:
REMARK  status: ('A' for Active; 'I' for Inactive)
REMARK    1  A    between atoms: C3_3  and  C15_20 
REMARK    2  A    between atoms: C4_4  and  C5_5 
REMARK    3  A    between atoms: C8_10  and  N3_11 
REMARK    4  A    between atoms: N3_11  and  C9_12 
ROOT
HETATM    1  C1  UNL     1      28.648   2.580  53.581  1.00  0.00     0.018 C 
HETATM    2  C2  UNL     1      27.893   1.775  53.053  1.00  0.00    -0.077 C 
HETATM    3  C3  UNL     1      27.025   0.826  52.418  1.00  0.00     0.024 C 
HETATM    4  C4  UNL     1      26.072   1.133  51.555  1.00  0.00     0.038 C 
ENDROOT
BRANCH   3   5
HETATM    5  C15 UNL     1      27.250  -0.560  52.784  1.00  0.00    -0.031 A 
HETATM    6  C16 UNL     1      26.497  -1.238  53.638  1.00  0.00     0.045 A 
HETATM    7  O1  UNL     1      27.773  -1.836  52.875  1.00  0.00     0.000 OA
HETATM    8  C17 UNL     1      29.115  -2.056  53.335  1.00  0.00     0.000 C 
ENDBRANCH   3   5
BRANCH   4   9
HETATM    9  C5  UNL     1      25.742   2.477  51.105  1.00  0.00     0.029 A 
HETATM   10  C6  UNL     1      26.456   3.024  50.065  1.00  0.00     0.133 A 
HETATM   11  N1  UNL     1      26.219   4.257  49.569  1.00  0.00    -0.253 NA
HETATM   12  C7  UNL     1      25.224   4.941  50.158  1.00  0.00     0.234 A 
HETATM   13  N2  UNL     1      24.520   4.424  51.172  1.00  0.00    -0.224 NA
HETATM   14  C8  UNL     1      24.709   3.210  51.706  1.00  0.00     0.141 A 
BRANCH  14  15
HETATM   15  N3  UNL     1      23.956   2.670  52.781  1.00  0.00    -0.340 N 
HETATM   16  H5  UNL     1      24.339   2.880  53.730  1.00  0.00     0.167 HD
BRANCH  15  17
HETATM   17  C9  UNL     1      22.772   1.891  52.716  1.00  0.00     0.035 A 
HETATM   18  C10 UNL     1      21.602   2.266  52.093  1.00  0.00     0.032 A 
HETATM   19  C11 UNL     1      20.467   1.471  52.068  1.00  0.00     0.046 A 
HETATM   20  C12 UNL     1      20.560   0.257  52.710  1.00  0.00     0.138 A 
HETATM   21  F1  UNL     1      19.465  -0.577  52.720  1.00  0.00    -0.204 F 
HETATM   22  C13 UNL     1      21.700  -0.215  53.370  1.00  0.00     0.074 A 
HETATM   23 CL1  UNL     1      21.778  -1.751  54.166  1.00  0.00    -0.081 Cl
HETATM   24  C14 UNL     1      22.761   0.661  53.327  1.00  0.00     0.056 A 
ENDBRANCH  15  17
ENDBRANCH  14  15
ENDBRANCH   4   9
TORSDOF 4
ENDMDL
MODEL 7
REMARK VINA RESULT:      -7.5      2.838      4.777
REMARK  4 active torsions:
REMARK  status: ('A' for Active; 'I' for Inactive)
REMARK    1  A    between atoms: C3_3  and  C15_20 
REMARK    2  A    between atoms: C4_4  and  C5_5 
REMARK    3  A    between atoms: C8_10  and  N3_11 
REMARK    4  A    between atoms: N3_11  and  C9_12 
ROOT
HETATM    1  C1  UNL     1      23.017   4.897  52.585  1.00  0.00     0.018 C 
HETATM    2  C2  UNL     1      23.558   4.137  51.794  1.00  0.00    -0.077 C 
HETATM    3  C3  UNL     1      24.178   3.253  50.850  1.00  0.00     0.024 C 
HETATM    4  C4  UNL     1      23.903   1.967  50.726  1.00  0.00     0.038 C 
ENDROOT
BRANCH   3   5
HETATM    5  C15 UNL     1      25.173   3.866  49.991  1.00  0.00    -0.031 A 
HETATM    6  C16 UNL     1      26.403   3.401  49.822  1.00  0.00     0.045 A 
HETATM    7  O1  UNL     1      25.819   4.710  49.107  1.00  0.00     0.000 OA
HETATM    8  C17 UNL     1      26.006   6.100  49.414  1.00  0.00     0.000 C 
ENDBRANCH   3   5
BRANCH   4   9
HETATM    9  C5  UNL     1      22.932   1.230  51.522  1.00  0.00     0.029 A 
HETATM   10  C6  UNL     1      21.711   0.926  50.966  1.00  0.00     0.133 A 
HETATM   11  N1  UNL     1      20.749   0.238  51.618  1.00  0.00    -0.253 NA
HETATM   12  C7  UNL     1      21.053  -0.144  52.870  1.00  0.00     0.234 A 
HETATM   13  N2  UNL     1      22.235   0.145  53.426  1.00  0.00    -0.224 NA
HETATM   14  C8  UNL     1      23.226   0.823  52.830  1.00  0.00     0.141 A 
BRANCH  14  15
HETATM   15  N3  UNL     1      24.477   1.125  53.428  1.00  0.00    -0.340 N 
HETATM   16  H5  UNL     1      24.481   1.985  54.021  1.00  0.00     0.167 HD
BRANCH  15  17
HETATM   17  C9  UNL     1      25.697   0.409  53.314  1.00  0.00     0.035 A 
HETATM   18  C10 UNL     1      25.832  -0.864  52.804  1.00  0.00     0.032 A 
HETATM   19  C11 UNL     1      27.050  -1.523  52.725  1.00  0.00     0.046 A 
HETATM   20  C12 UNL     1      28.147  -0.834  53.188  1.00  0.00     0.138 A 
HETATM   21  F1  UNL     1      29.383  -1.437  53.135  1.00  0.00    -0.204 F 
HETATM   22  C13 UNL     1      28.115   0.459  53.721  1.00  0.00     0.074 A 
HETATM   23 CL1  UNL     1      29.520   1.294  54.293  1.00  0.00    -0.081 Cl
HETATM   24  C14 UNL     1      26.853   1.010  53.748  1.00  0.00     0.056 A 
ENDBRANCH  15  17
ENDBRANCH  14  15
ENDBRANCH   4   9
TORSDOF 4
ENDMDL
MODEL 8
REMARK VINA RESULT:      -7.3      3.856      6.211
REMARK  4 active torsions:
REMARK  status: ('A' for Active; 'I' for Inactive)
REMARK    1  A    between atoms: C3_3  and  C15_20 
REMARK    2  A    between atoms: C4_4  and  C5_5 
REMARK    3  A    between atoms: C8_10  and  N3_11 
REMARK    4  A    between atoms: N3_11  and  C9_12 
ROOT
HETATM    1  C1  UNL     1      26.404   3.215  50.019  1.00  0.00     0.018 C 
HETATM    2  C2  UNL     1      25.539   3.371  50.870  1.00  0.00    -0.077 C 
HETATM    3  C3  UNL     1      24.537   3.573  51.876  1.00  0.00     0.024 C 
HETATM    4  C4  UNL     1      24.443   2.881  52.998  1.00  0.00     0.038 C 
ENDROOT
BRANCH   3   5
HETATM    5  C15 UNL     1      23.579   4.625  51.593  1.00  0.00    -0.031 A 
HETATM    6  C16 UNL     1      22.432   4.439  50.955  1.00  0.00     0.045 A 
HETATM    7  O1  UNL     1      22.944   5.850  51.514  1.00  0.00     0.000 OA
HETATM    8  C17 UNL     1      23.553   6.957  50.831  1.00  0.00     0.000 C 
ENDBRANCH   3   5
BRANCH   4   9
HETATM    9  C5  UNL     1      25.333   1.803  53.402  1.00  0.00     0.029 A 
HETATM   10  C6  UNL     1      26.447   2.106  54.150  1.00  0.00     0.133 A 
HETATM   11  N1  UNL     1      27.326   1.178  54.583  1.00  0.00    -0.253 NA
HETATM   12  C7  UNL     1      27.051  -0.091  54.236  1.00  0.00     0.234 A 
HETATM   13  N2  UNL     1      25.973  -0.403  53.508  1.00  0.00    -0.224 NA
HETATM   14  C8  UNL     1      25.067   0.473  53.052  1.00  0.00     0.141 A 
BRANCH  14  15
HETATM   15  N3  UNL     1      23.926   0.132  52.280  1.00  0.00    -0.340 N 
HETATM   16  H5  UNL     1      24.090   0.099  51.249  1.00  0.00     0.167 HD
BRANCH  15  17
HETATM   17  C9  UNL     1      22.615  -0.159  52.738  1.00  0.00     0.035 A 
HETATM   18  C10 UNL     1      22.305  -0.820  53.906  1.00  0.00     0.032 A 
HETATM   19  C11 UNL     1      21.003  -1.089  54.303  1.00  0.00     0.046 A 
HETATM   20  C12 UNL     1      20.008  -0.655  53.459  1.00  0.00     0.138 A 
HETATM   21  F1  UNL     1      18.695  -0.893  53.798  1.00  0.00    -0.204 F 
HETATM   22  C13 UNL     1      20.218   0.024  52.253  1.00  0.00     0.074 A 
HETATM   23 CL1  UNL     1      18.936   0.554  51.217  1.00  0.00    -0.081 Cl
HETATM   24  C14 UNL     1      21.548   0.233  51.967  1.00  0.00     0.056 A 
ENDBRANCH  15  17
ENDBRANCH  14  15
ENDBRANCH   4   9
TORSDOF 4
ENDMDL
MODEL 9
REMARK VINA RESULT:      -7.3      3.667      5.568
REMARK  4 active torsions:
REMARK  status: ('A' for Active; 'I' for Inactive)
REMARK    1  A    between atoms: C3_3  and  C15_20 
REMARK    2  A    between atoms: C4_4  and  C5_5 
REMARK    3  A    between atoms: C8_10  and  N3_11 
REMARK    4  A    between atoms: N3_11  and  C9_12 
ROOT
HETATM    1  C1  UNL     1      23.759   4.592  53.217  1.00  0.00     0.018 C 
HETATM    2  C2  UNL     1      24.153   3.434  53.196  1.00  0.00    -0.077 C 
HETATM    3  C3  UNL     1      24.625   2.081  53.149  1.00  0.00     0.024 C 
HETATM    4  C4  UNL     1      23.891   1.036  52.809  1.00  0.00     0.038 C 
ENDROOT
BRANCH   3   5
HETATM    5  C15 UNL     1      26.018   1.899  53.513  1.00  0.00    -0.031 A 
HETATM    6  C16 UNL     1      27.037   2.110  52.693  1.00  0.00     0.045 A 
HETATM    7  O1  UNL     1      27.178   1.621  54.211  1.00  0.00     0.000 OA
HETATM    8  C17 UNL     1      27.423   0.313  54.750  1.00  0.00     0.000 C 
ENDBRANCH   3   5
BRANCH   4   9
HETATM    9  C5  UNL     1      22.488   1.079  52.426  1.00  0.00     0.029 A 
HETATM   10  C6  UNL     1      21.532   0.780  53.370  1.00  0.00     0.133 A 
HETATM   11  N1  UNL     1      20.206   0.802  53.117  1.00  0.00    -0.253 NA
HETATM   12  C7  UNL     1      19.858   1.140  51.864  1.00  0.00     0.234 A 
HETATM   13  N2  UNL     1      20.775   1.432  50.933  1.00  0.00    -0.224 NA
HETATM   14  C8  UNL     1      22.101   1.427  51.125  1.00  0.00     0.141 A 
BRANCH  14  15
HETATM   15  N3  UNL     1      23.066   1.739  50.132  1.00  0.00    -0.340 N 
HETATM   16  H5  UNL     1      23.481   0.909  49.652  1.00  0.00     0.167 HD
BRANCH  15  17
HETATM   17  C9  UNL     1      23.522   3.020  49.728  1.00  0.00     0.035 A 
HETATM   18  C10 UNL     1      22.720   4.107  49.460  1.00  0.00     0.032 A 
HETATM   19  C11 UNL     1      23.218   5.337  49.056  1.00  0.00     0.046 A 
HETATM   20  C12 UNL     1      24.585   5.428  48.932  1.00  0.00     0.138 A 
HETATM   21  F1  UNL     1      25.139   6.624  48.535  1.00  0.00    -0.204 F 
HETATM   22  C13 UNL     1      25.485   4.385  49.180  1.00  0.00     0.074 A 
HETATM   23 CL1  UNL     1      27.201   4.541  49.012  1.00  0.00    -0.081 Cl
HETATM   24  C14 UNL     1      24.873   3.216  49.574  1.00  0.00     0.056 A 
ENDBRANCH  15  17
ENDBRANCH  14  15
ENDBRANCH   4   9
TORSDOF 4
ENDMDL
