MODEL 1
REMARK VINA RESULT:      -7.3      0.000      0.000
REMARK  8 active torsions:
REMARK  status: ('A' for Active; 'I' for Inactive)
REMARK    1  A    between atoms: C2_2  and  O1_4 
REMARK    2  A    between atoms: O1_4  and  C4_5 
REMARK    3  A    between atoms: C4_5  and  N1_7 
REMARK    4  A    between atoms: N1_7  and  C6_8 
REMARK    5  A    between atoms: C7_9  and  C8_10 
REMARK    6  A    between atoms: C8_10  and  O2_11 
REMARK    7  A    between atoms: O2_11  and  C9_12 
REMARK    8  A    between atoms: C12_15  and  O3_16 
ROOT
HETATM    1  C9  UNL     1      22.949   3.562  51.174  1.00  0.00     0.146 C 
HETATM    2  C10 UNL     1      21.709   4.364  51.418  1.00  0.00     0.093 C 
HETATM    3  C11 UNL     1      22.217   5.683  51.880  1.00  0.00     0.034 C 
HETATM    4  C12 UNL     1      23.521   5.825  51.549  1.00  0.00     0.141 C 
HETATM    5  N2  UNL     1      23.917   4.605  50.857  1.00  0.00    -0.294 N 
HETATM    6  C13 UNL     1      25.126   4.753  50.081  1.00  0.00     0.046 A 
HETATM    7  C14 UNL     1      25.018   6.045  49.605  1.00  0.00     0.030 A 
HETATM    8  C15 UNL     1      26.090   6.455  48.836  1.00  0.00     0.002 A 
HETATM    9  C16 UNL     1      27.167   5.593  48.590  1.00  0.00     0.001 A 
HETATM   10  C17 UNL     1      27.199   4.295  49.109  1.00  0.00     0.010 A 
HETATM   11  C18 UNL     1      26.140   3.828  49.896  1.00  0.00    -0.022 A 
HETATM   12  C19 UNL     1      26.486   2.437  50.263  1.00  0.00     0.114 C 
HETATM   13  S1  UNL     1      26.088   2.050  51.978  1.00  0.00    -0.164 SA
HETATM   14  C20 UNL     1      24.904   3.205  52.685  1.00  0.00     0.079 C 
HETATM   15  C21 UNL     1      23.461   2.839  52.413  1.00  0.00     0.072 C 
ENDROOT
BRANCH   1  16
HETATM   16  O2  UNL     1      22.857   2.621  50.172  1.00  0.00    -0.356 OA
BRANCH  16  17
HETATM   17  C8  UNL     1      22.600   1.337  50.569  1.00  0.00     0.200 C 
BRANCH  17  18
HETATM   18  C7  UNL     1      21.187   0.938  50.227  1.00  0.00     0.016 C 
HETATM   19  C6  UNL     1      20.189   0.796  51.085  1.00  0.00     0.083 C 
BRANCH  19  20
HETATM   20  N1  UNL     1      20.459   1.037  52.451  1.00  0.00    -0.374 N 
HETATM   21  H12 UNL     1      20.760   1.936  52.849  1.00  0.00     0.161 HD
BRANCH  20  22
HETATM   22  C4  UNL     1      20.303  -0.072  53.376  1.00  0.00     0.216 C 
HETATM   23  C5  UNL     1      18.992  -0.747  53.110  1.00  0.00     0.063 C 
BRANCH  22  24
HETATM   24  O1  UNL     1      21.346  -0.966  53.307  1.00  0.00    -0.363 OA
BRANCH  24  25
HETATM   25  C2  UNL     1      22.397  -0.540  54.087  1.00  0.00     0.116 C 
HETATM   26  C1  UNL     1      23.728  -0.648  53.333  1.00  0.00     0.039 C 
HETATM   27  C3  UNL     1      22.554  -1.410  55.321  1.00  0.00     0.039 C 
ENDBRANCH  24  25
ENDBRANCH  22  24
ENDBRANCH  20  22
ENDBRANCH  19  20
ENDBRANCH  17  18
ENDBRANCH  16  17
ENDBRANCH   1  16
BRANCH   4  28
HETATM   28  O3  UNL     1      24.363   6.942  51.817  1.00  0.00    -0.346 OA
HETATM   29  H20 UNL     1      24.084   7.646  52.492  1.00  0.00     0.219 HD
ENDBRANCH   4  28
TORSDOF 8
ENDMDL
MODEL 2
REMARK VINA RESULT:      -7.2      2.934      5.369
REMARK  8 active torsions:
REMARK  status: ('A' for Active; 'I' for Inactive)
REMARK    1  A    between atoms: C2_2  and  O1_4 
REMARK    2  A    between atoms: O1_4  and  C4_5 
REMARK    3  A    between atoms: C4_5  and  N1_7 
REMARK    4  A    between atoms: N1_7  and  C6_8 
REMARK    5  A    between atoms: C7_9  and  C8_10 
REMARK    6  A    between atoms: C8_10  and  O2_11 
REMARK    7  A    between atoms: O2_11  and  C9_12 
REMARK    8  A    between atoms: C12_15  and  O3_16 
ROOT
HETATM    1  C9  UNL     1      24.567   5.612  49.424  1.00  0.00     0.146 C 
HETATM    2  C10 UNL     1      25.179   6.649  50.312  1.00  0.00     0.093 C 
HETATM    3  C11 UNL     1      24.161   6.859  51.377  1.00  0.00     0.034 C 
HETATM    4  C12 UNL     1      23.290   5.824  51.402  1.00  0.00     0.141 C 
HETATM    5  N2  UNL     1      23.704   4.897  50.356  1.00  0.00    -0.294 N 
HETATM    6  C13 UNL     1      23.155   3.571  50.516  1.00  0.00     0.046 A 
HETATM    7  C14 UNL     1      23.153   3.413  51.888  1.00  0.00     0.030 A 
HETATM    8  C15 UNL     1      22.636   2.205  52.316  1.00  0.00     0.002 A 
HETATM    9  C16 UNL     1      22.169   1.258  51.396  1.00  0.00     0.001 A 
HETATM   10  C17 UNL     1      22.208   1.496  50.018  1.00  0.00     0.010 A 
HETATM   11  C18 UNL     1      22.721   2.702  49.528  1.00  0.00    -0.022 A 
HETATM   12  C19 UNL     1      22.625   2.618  48.055  1.00  0.00     0.114 C 
HETATM   13  S1  UNL     1      22.079   4.164  47.303  1.00  0.00    -0.164 SA
HETATM   14  C20 UNL     1      22.289   5.573  48.402  1.00  0.00     0.079 C 
HETATM   15  C21 UNL     1      23.669   6.191  48.338  1.00  0.00     0.072 C 
ENDROOT
BRANCH   1  16
HETATM   16  O2  UNL     1      25.459   4.770  48.797  1.00  0.00    -0.356 OA
BRANCH  16  17
HETATM   17  C8  UNL     1      26.505   4.320  49.555  1.00  0.00     0.200 C 
BRANCH  17  18
HETATM   18  C7  UNL     1      26.457   2.820  49.705  1.00  0.00     0.016 C 
HETATM   19  C6  UNL     1      26.648   2.144  50.826  1.00  0.00     0.083 C 
BRANCH  19  20
HETATM   20  N1  UNL     1      26.920   2.882  52.000  1.00  0.00    -0.374 N 
HETATM   21  H12 UNL     1      26.937   3.908  52.069  1.00  0.00     0.161 HD
BRANCH  20  22
HETATM   22  C4  UNL     1      27.203   2.138  53.214  1.00  0.00     0.216 C 
HETATM   23  C5  UNL     1      25.912   1.846  53.919  1.00  0.00     0.063 C 
BRANCH  22  24
HETATM   24  O1  UNL     1      27.910   0.983  52.973  1.00  0.00    -0.363 OA
BRANCH  24  25
HETATM   25  C2  UNL     1      28.773   0.721  54.013  1.00  0.00     0.116 C 
HETATM   26  C1  UNL     1      29.528   1.987  54.440  1.00  0.00     0.039 C 
HETATM   27  C3  UNL     1      29.843  -0.274  53.602  1.00  0.00     0.039 C 
ENDBRANCH  24  25
ENDBRANCH  22  24
ENDBRANCH  20  22
ENDBRANCH  19  20
ENDBRANCH  17  18
ENDBRANCH  16  17
ENDBRANCH   1  16
BRANCH   4  28
HETATM   28  O3  UNL     1      22.177   5.654  52.273  1.00  0.00    -0.346 OA
HETATM   29  H20 UNL     1      22.100   4.826  52.854  1.00  0.00     0.219 HD
ENDBRANCH   4  28
TORSDOF 8
ENDMDL
MODEL 3
REMARK VINA RESULT:      -7.0      2.230      4.386
REMARK  8 active torsions:
REMARK  status: ('A' for Active; 'I' for Inactive)
REMARK    1  A    between atoms: C2_2  and  O1_4 
REMARK    2  A    between atoms: O1_4  and  C4_5 
REMARK    3  A    between atoms: C4_5  and  N1_7 
REMARK    4  A    between atoms: N1_7  and  C6_8 
REMARK    5  A    between atoms: C7_9  and  C8_10 
REMARK    6  A    between atoms: C8_10  and  O2_11 
REMARK    7  A    between atoms: O2_11  and  C9_12 
REMARK    8  A    between atoms: C12_15  and  O3_16 
ROOT
HETATM    1  C9  UNL     1      23.054   2.914  51.691  1.00  0.00     0.146 C 
HETATM    2  C10 UNL     1      21.774   3.598  52.057  1.00  0.00     0.093 C 
HETATM    3  C11 UNL     1      22.202   4.953  52.499  1.00  0.00     0.034 C 
HETATM    4  C12 UNL     1      23.454   5.215  52.059  1.00  0.00     0.141 C 
HETATM    5  N2  UNL     1      23.893   4.043  51.312  1.00  0.00    -0.294 N 
HETATM    6  C13 UNL     1      25.012   4.308  50.437  1.00  0.00     0.046 A 
HETATM    7  C14 UNL     1      24.748   5.591  49.997  1.00  0.00     0.030 A 
HETATM    8  C15 UNL     1      25.708   6.104  49.146  1.00  0.00     0.002 A 
HETATM    9  C16 UNL     1      26.831   5.345  48.792  1.00  0.00     0.001 A 
HETATM   10  C17 UNL     1      27.024   4.049  49.281  1.00  0.00     0.010 A 
HETATM   11  C18 UNL     1      26.083   3.480  50.147  1.00  0.00    -0.022 A 
HETATM   12  C19 UNL     1      26.582   2.122  50.456  1.00  0.00     0.114 C 
HETATM   13  S1  UNL     1      26.372   1.681  52.192  1.00  0.00    -0.164 SA
HETATM   14  C20 UNL     1      25.157   2.717  53.021  1.00  0.00     0.079 C 
HETATM   15  C21 UNL     1      23.734   2.226  52.867  1.00  0.00     0.072 C 
ENDROOT
BRANCH   1  16
HETATM   16  O2  UNL     1      22.957   1.980  50.684  1.00  0.00    -0.356 OA
BRANCH  16  17
HETATM   17  C8  UNL     1      21.722   1.823  50.118  1.00  0.00     0.200 C 
BRANCH  17  18
HETATM   18  C7  UNL     1      21.837   1.423  48.669  1.00  0.00     0.016 C 
HETATM   19  C6  UNL     1      22.216   2.208  47.673  1.00  0.00     0.083 C 
BRANCH  19  20
HETATM   20  N1  UNL     1      22.546   3.546  47.981  1.00  0.00    -0.374 N 
HETATM   21  H12 UNL     1      23.074   3.855  48.808  1.00  0.00     0.161 HD
BRANCH  20  22
HETATM   22  C4  UNL     1      22.105   4.579  47.060  1.00  0.00     0.216 C 
HETATM   23  C5  UNL     1      21.878   3.965  45.712  1.00  0.00     0.063 C 
BRANCH  22  24
HETATM   24  O1  UNL     1      20.981   5.236  47.503  1.00  0.00    -0.363 OA
BRANCH  24  25
HETATM   25  C2  UNL     1      21.034   5.414  48.867  1.00  0.00     0.116 C 
HETATM   26  C1  UNL     1      19.664   5.174  49.514  1.00  0.00     0.039 C 
HETATM   27  C3  UNL     1      21.408   6.843  49.220  1.00  0.00     0.039 C 
ENDBRANCH  24  25
ENDBRANCH  22  24
ENDBRANCH  20  22
ENDBRANCH  19  20
ENDBRANCH  17  18
ENDBRANCH  16  17
ENDBRANCH   1  16
BRANCH   4  28
HETATM   28  O3  UNL     1      24.214   6.400  52.275  1.00  0.00    -0.346 OA
HETATM   29  H20 UNL     1      25.042   6.380  52.860  1.00  0.00     0.219 HD
ENDBRANCH   4  28
TORSDOF 8
ENDMDL
MODEL 4
REMARK VINA RESULT:      -6.7      1.543      1.902
REMARK  8 active torsions:
REMARK  status: ('A' for Active; 'I' for Inactive)
REMARK    1  A    between atoms: C2_2  and  O1_4 
REMARK    2  A    between atoms: O1_4  and  C4_5 
REMARK    3  A    between atoms: C4_5  and  N1_7 
REMARK    4  A    between atoms: N1_7  and  C6_8 
REMARK    5  A    between atoms: C7_9  and  C8_10 
REMARK    6  A    between atoms: C8_10  and  O2_11 
REMARK    7  A    between atoms: O2_11  and  C9_12 
REMARK    8  A    between atoms: C12_15  and  O3_16 
ROOT
HETATM    1  C9  UNL     1      22.546   5.579  49.938  1.00  0.00     0.146 C 
HETATM    2  C10 UNL     1      21.762   6.840  49.748  1.00  0.00     0.093 C 
HETATM    3  C11 UNL     1      22.671   7.908  50.243  1.00  0.00     0.034 C 
HETATM    4  C12 UNL     1      23.943   7.451  50.301  1.00  0.00     0.141 C 
HETATM    5  N2  UNL     1      23.916   6.067  49.846  1.00  0.00    -0.294 N 
HETATM    6  C13 UNL     1      25.213   5.568  49.451  1.00  0.00     0.046 A 
HETATM    7  C14 UNL     1      25.796   6.679  48.873  1.00  0.00     0.030 A 
HETATM    8  C15 UNL     1      27.086   6.471  48.426  1.00  0.00     0.002 A 
HETATM    9  C16 UNL     1      27.702   5.222  48.571  1.00  0.00     0.001 A 
HETATM   10  C17 UNL     1      27.041   4.144  49.169  1.00  0.00     0.010 A 
HETATM   11  C18 UNL     1      25.732   4.298  49.640  1.00  0.00    -0.022 A 
HETATM   12  C19 UNL     1      25.339   2.983  50.192  1.00  0.00     0.114 C 
HETATM   13  S1  UNL     1      24.421   3.123  51.737  1.00  0.00    -0.164 SA
HETATM   14  C20 UNL     1      23.731   4.767  51.980  1.00  0.00     0.079 C 
HETATM   15  C21 UNL     1      22.383   4.963  51.322  1.00  0.00     0.072 C 
ENDROOT
BRANCH   1  16
HETATM   16  O2  UNL     1      22.290   4.581  49.025  1.00  0.00    -0.356 OA
BRANCH  16  17
HETATM   17  C8  UNL     1      21.434   3.592  49.429  1.00  0.00     0.200 C 
BRANCH  17  18
HETATM   18  C7  UNL     1      21.886   2.246  48.924  1.00  0.00     0.016 C 
HETATM   19  C6  UNL     1      21.558   1.072  49.439  1.00  0.00     0.083 C 
BRANCH  19  20
HETATM   20  N1  UNL     1      20.705   1.065  50.566  1.00  0.00    -0.374 N 
HETATM   21  H12 UNL     1      19.677   1.095  50.537  1.00  0.00     0.161 HD
BRANCH  20  22
HETATM   22  C4  UNL     1      21.323   1.013  51.879  1.00  0.00     0.216 C 
HETATM   23  C5  UNL     1      20.530   1.863  52.825  1.00  0.00     0.063 C 
BRANCH  22  24
HETATM   24  O1  UNL     1      21.449  -0.273  52.353  1.00  0.00    -0.363 OA
BRANCH  24  25
HETATM   25  C2  UNL     1      22.037  -0.271  53.597  1.00  0.00     0.116 C 
HETATM   26  C1  UNL     1      23.542  -0.549  53.501  1.00  0.00     0.039 C 
HETATM   27  C3  UNL     1      21.472  -1.374  54.474  1.00  0.00     0.039 C 
ENDBRANCH  24  25
ENDBRANCH  22  24
ENDBRANCH  20  22
ENDBRANCH  19  20
ENDBRANCH  17  18
ENDBRANCH  16  17
ENDBRANCH   1  16
BRANCH   4  28
HETATM   28  O3  UNL     1      25.099   8.168  50.724  1.00  0.00    -0.346 OA
HETATM   29  H20 UNL     1      26.024   7.775  50.590  1.00  0.00     0.219 HD
ENDBRANCH   4  28
TORSDOF 8
ENDMDL
MODEL 5
REMARK VINA RESULT:      -6.7      2.991      4.425
REMARK  8 active torsions:
REMARK  status: ('A' for Active; 'I' for Inactive)
REMARK    1  A    between atoms: C2_2  and  O1_4 
REMARK    2  A    between atoms: O1_4  and  C4_5 
REMARK    3  A    between atoms: C4_5  and  N1_7 
REMARK    4  A    between atoms: N1_7  and  C6_8 
REMARK    5  A    between atoms: C7_9  and  C8_10 
REMARK    6  A    between atoms: C8_10  and  O2_11 
REMARK    7  A    between atoms: O2_11  and  C9_12 
REMARK    8  A    between atoms: C12_15  and  O3_16 
ROOT
HETATM    1  C9  UNL     1      24.399   3.208  50.697  1.00  0.00     0.146 C 
HETATM    2  C10 UNL     1      25.746   2.587  50.896  1.00  0.00     0.093 C 
HETATM    3  C11 UNL     1      26.613   3.282  49.908  1.00  0.00     0.034 C 
HETATM    4  C12 UNL     1      26.027   4.430  49.496  1.00  0.00     0.141 C 
HETATM    5  N2  UNL     1      24.755   4.531  50.199  1.00  0.00    -0.294 N 
HETATM    6  C13 UNL     1      24.205   5.867  50.201  1.00  0.00     0.046 A 
HETATM    7  C14 UNL     1      25.336   6.654  50.301  1.00  0.00     0.030 A 
HETATM    8  C15 UNL     1      25.081   8.011  50.295  1.00  0.00     0.002 A 
HETATM    9  C16 UNL     1      23.770   8.494  50.195  1.00  0.00     0.001 A 
HETATM   10  C17 UNL     1      22.676   7.628  50.098  1.00  0.00     0.010 A 
HETATM   11  C18 UNL     1      22.876   6.243  50.099  1.00  0.00    -0.022 A 
HETATM   12  C19 UNL     1      21.531   5.636  49.998  1.00  0.00     0.114 C 
HETATM   13  S1  UNL     1      21.489   4.219  48.882  1.00  0.00    -0.164 SA
HETATM   14  C20 UNL     1      23.125   3.539  48.575  1.00  0.00     0.079 C 
HETATM   15  C21 UNL     1      23.569   2.531  49.614  1.00  0.00     0.072 C 
ENDROOT
BRANCH   1  16
HETATM   16  O2  UNL     1      23.607   3.275  51.823  1.00  0.00    -0.356 OA
BRANCH  16  17
HETATM   17  C8  UNL     1      24.050   2.585  52.918  1.00  0.00     0.200 C 
BRANCH  17  18
HETATM   18  C7  UNL     1      23.202   1.364  53.167  1.00  0.00     0.016 C 
HETATM   19  C6  UNL     1      23.633   0.114  53.213  1.00  0.00     0.083 C 
BRANCH  19  20
HETATM   20  N1  UNL     1      25.013  -0.112  53.012  1.00  0.00    -0.374 N 
HETATM   21  H12 UNL     1      25.497  -0.083  52.105  1.00  0.00     0.161 HD
BRANCH  20  22
HETATM   22  C4  UNL     1      25.824  -0.414  54.179  1.00  0.00     0.216 C 
HETATM   23  C5  UNL     1      24.950  -1.016  55.237  1.00  0.00     0.063 C 
BRANCH  22  24
HETATM   24  O1  UNL     1      26.886  -1.238  53.884  1.00  0.00    -0.363 OA
BRANCH  24  25
HETATM   25  C2  UNL     1      28.011  -0.492  53.616  1.00  0.00     0.116 C 
HETATM   26  C1  UNL     1      29.212  -1.393  53.297  1.00  0.00     0.039 C 
HETATM   27  C3  UNL     1      28.426   0.331  54.822  1.00  0.00     0.039 C 
ENDBRANCH  24  25
ENDBRANCH  22  24
ENDBRANCH  20  22
ENDBRANCH  19  20
ENDBRANCH  17  18
ENDBRANCH  16  17
ENDBRANCH   1  16
BRANCH   4  28
HETATM   28  O3  UNL     1      26.538   5.372  48.558  1.00  0.00    -0.346 OA
HETATM   29  H20 UNL     1      26.462   6.367  48.735  1.00  0.00     0.219 HD
ENDBRANCH   4  28
TORSDOF 8
ENDMDL
MODEL 6
REMARK VINA RESULT:      -6.7     10.190     13.260
REMARK  8 active torsions:
REMARK  status: ('A' for Active; 'I' for Inactive)
REMARK    1  A    between atoms: C2_2  and  O1_4 
REMARK    2  A    between atoms: O1_4  and  C4_5 
REMARK    3  A    between atoms: C4_5  and  N1_7 
REMARK    4  A    between atoms: N1_7  and  C6_8 
REMARK    5  A    between atoms: C7_9  and  C8_10 
REMARK    6  A    between atoms: C8_10  and  O2_11 
REMARK    7  A    between atoms: O2_11  and  C9_12 
REMARK    8  A    between atoms: C12_15  and  O3_16 
ROOT
HETATM    1  C9  UNL     1      33.857   7.545  47.606  1.00  0.00     0.146 C 
HETATM    2  C10 UNL     1      35.234   8.110  47.764  1.00  0.00     0.093 C 
HETATM    3  C11 UNL     1      35.888   7.199  48.742  1.00  0.00     0.034 C 
HETATM    4  C12 UNL     1      35.206   6.034  48.826  1.00  0.00     0.141 C 
HETATM    5  N2  UNL     1      34.080   6.137  47.906  1.00  0.00    -0.294 N 
HETATM    6  C13 UNL     1      33.503   4.858  47.562  1.00  0.00     0.046 A 
HETATM    7  C14 UNL     1      34.611   4.034  47.516  1.00  0.00     0.030 A 
HETATM    8  C15 UNL     1      34.322   2.715  47.227  1.00  0.00     0.002 A 
HETATM    9  C16 UNL     1      33.002   2.302  47.007  1.00  0.00     0.001 A 
HETATM   10  C17 UNL     1      31.933   3.202  47.069  1.00  0.00     0.010 A 
HETATM   11  C18 UNL     1      32.168   4.551  47.359  1.00  0.00    -0.022 A 
HETATM   12  C19 UNL     1      30.844   5.210  47.336  1.00  0.00     0.114 C 
HETATM   13  S1  UNL     1      30.639   6.407  48.669  1.00  0.00    -0.164 SA
HETATM   14  C20 UNL     1      32.210   6.923  49.376  1.00  0.00     0.079 C 
HETATM   15  C21 UNL     1      32.863   8.069  48.635  1.00  0.00     0.072 C 
ENDROOT
BRANCH   1  16
HETATM   16  O2  UNL     1      33.282   7.726  46.368  1.00  0.00    -0.356 OA
BRANCH  16  17
HETATM   17  C8  UNL     1      33.701   8.819  45.658  1.00  0.00     0.200 C 
BRANCH  17  18
HETATM   18  C7  UNL     1      33.320   8.698  44.205  1.00  0.00     0.016 C 
HETATM   19  C6  UNL     1      33.719   7.750  43.372  1.00  0.00     0.083 C 
BRANCH  19  20
HETATM   20  N1  UNL     1      34.581   6.752  43.878  1.00  0.00    -0.374 N 
HETATM   21  H12 UNL     1      35.279   6.888  44.621  1.00  0.00     0.161 HD
BRANCH  20  22
HETATM   22  C4  UNL     1      34.483   5.421  43.305  1.00  0.00     0.216 C 
HETATM   23  C5  UNL     1      33.337   4.698  43.947  1.00  0.00     0.063 C 
BRANCH  22  24
HETATM   24  O1  UNL     1      34.352   5.444  41.936  1.00  0.00    -0.363 OA
BRANCH  24  25
HETATM   25  C2  UNL     1      33.378   4.559  41.532  1.00  0.00     0.116 C 
HETATM   26  C1  UNL     1      33.968   3.447  40.654  1.00  0.00     0.039 C 
HETATM   27  C3  UNL     1      32.332   5.246  40.673  1.00  0.00     0.039 C 
ENDBRANCH  24  25
ENDBRANCH  22  24
ENDBRANCH  20  22
ENDBRANCH  19  20
ENDBRANCH  17  18
ENDBRANCH  16  17
ENDBRANCH   1  16
BRANCH   4  28
HETATM   28  O3  UNL     1      35.511   4.913  49.648  1.00  0.00    -0.346 OA
HETATM   29  H20 UNL     1      34.886   4.115  49.682  1.00  0.00     0.219 HD
ENDBRANCH   4  28
TORSDOF 8
ENDMDL
MODEL 7
REMARK VINA RESULT:      -6.6      2.477      4.132
REMARK  8 active torsions:
REMARK  status: ('A' for Active; 'I' for Inactive)
REMARK    1  A    between atoms: C2_2  and  O1_4 
REMARK    2  A    between atoms: O1_4  and  C4_5 
REMARK    3  A    between atoms: C4_5  and  N1_7 
REMARK    4  A    between atoms: N1_7  and  C6_8 
REMARK    5  A    between atoms: C7_9  and  C8_10 
REMARK    6  A    between atoms: C8_10  and  O2_11 
REMARK    7  A    between atoms: O2_11  and  C9_12 
REMARK    8  A    between atoms: C12_15  and  O3_16 
ROOT
HETATM    1  C9  UNL     1      21.672   4.779  50.059  1.00  0.00     0.146 C 
HETATM    2  C10 UNL     1      20.826   3.578  50.346  1.00  0.00     0.093 C 
HETATM    3  C11 UNL     1      21.270   2.575  49.341  1.00  0.00     0.034 C 
HETATM    4  C12 UNL     1      22.472   2.924  48.830  1.00  0.00     0.141 C 
HETATM    5  N2  UNL     1      22.862   4.169  49.481  1.00  0.00    -0.294 N 
HETATM    6  C13 UNL     1      24.274   4.455  49.370  1.00  0.00     0.046 A 
HETATM    7  C14 UNL     1      24.840   3.198  49.452  1.00  0.00     0.030 A 
HETATM    8  C15 UNL     1      26.217   3.191  49.341  1.00  0.00     0.002 A 
HETATM    9  C16 UNL     1      26.928   4.385  49.163  1.00  0.00     0.001 A 
HETATM   10  C17 UNL     1      26.277   5.621  49.091  1.00  0.00     0.010 A 
HETATM   11  C18 UNL     1      24.883   5.687  49.197  1.00  0.00    -0.022 A 
HETATM   12  C19 UNL     1      24.533   7.120  49.092  1.00  0.00     0.114 C 
HETATM   13  S1  UNL     1      23.069   7.408  48.079  1.00  0.00    -0.164 SA
HETATM   14  C20 UNL     1      22.073   5.923  47.877  1.00  0.00     0.079 C 
HETATM   15  C21 UNL     1      21.082   5.700  48.998  1.00  0.00     0.072 C 
ENDROOT
BRANCH   1  16
HETATM   16  O2  UNL     1      21.971   5.566  51.149  1.00  0.00    -0.356 OA
BRANCH  16  17
HETATM   17  C8  UNL     1      21.989   4.937  52.364  1.00  0.00     0.200 C 
BRANCH  17  18
HETATM   18  C7  UNL     1      23.401   4.772  52.867  1.00  0.00     0.016 C 
HETATM   19  C6  UNL     1      24.051   3.627  52.998  1.00  0.00     0.083 C 
BRANCH  19  20
HETATM   20  N1  UNL     1      23.372   2.442  52.636  1.00  0.00    -0.374 N 
HETATM   21  H12 UNL     1      22.464   2.397  52.154  1.00  0.00     0.161 HD
BRANCH  20  22
HETATM   22  C4  UNL     1      24.000   1.176  52.971  1.00  0.00     0.216 C 
HETATM   23  C5  UNL     1      22.945   0.114  53.048  1.00  0.00     0.063 C 
BRANCH  22  24
HETATM   24  O1  UNL     1      24.991   0.827  52.083  1.00  0.00    -0.363 OA
BRANCH  24  25
HETATM   25  C2  UNL     1      26.159   0.546  52.754  1.00  0.00     0.116 C 
HETATM   26  C1  UNL     1      27.216   1.631  52.509  1.00  0.00     0.039 C 
HETATM   27  C3  UNL     1      26.780  -0.748  52.258  1.00  0.00     0.039 C 
ENDBRANCH  24  25
ENDBRANCH  22  24
ENDBRANCH  20  22
ENDBRANCH  19  20
ENDBRANCH  17  18
ENDBRANCH  16  17
ENDBRANCH   1  16
BRANCH   4  28
HETATM   28  O3  UNL     1      23.228   2.226  47.846  1.00  0.00    -0.346 OA
HETATM   29  H20 UNL     1      23.383   2.635  46.931  1.00  0.00     0.219 HD
ENDBRANCH   4  28
TORSDOF 8
ENDMDL
MODEL 8
REMARK VINA RESULT:      -6.5      7.396     11.851
REMARK  8 active torsions:
REMARK  status: ('A' for Active; 'I' for Inactive)
REMARK    1  A    between atoms: C2_2  and  O1_4 
REMARK    2  A    between atoms: O1_4  and  C4_5 
REMARK    3  A    between atoms: C4_5  and  N1_7 
REMARK    4  A    between atoms: N1_7  and  C6_8 
REMARK    5  A    between atoms: C7_9  and  C8_10 
REMARK    6  A    between atoms: C8_10  and  O2_11 
REMARK    7  A    between atoms: O2_11  and  C9_12 
REMARK    8  A    between atoms: C12_15  and  O3_16 
ROOT
HETATM    1  C9  UNL     1      31.629   7.964  47.377  1.00  0.00     0.146 C 
HETATM    2  C10 UNL     1      32.887   7.153  47.350  1.00  0.00     0.093 C 
HETATM    3  C11 UNL     1      32.800   6.310  48.572  1.00  0.00     0.034 C 
HETATM    4  C12 UNL     1      31.526   6.271  49.024  1.00  0.00     0.141 C 
HETATM    5  N2  UNL     1      30.729   7.087  48.116  1.00  0.00    -0.294 N 
HETATM    6  C13 UNL     1      29.312   6.822  48.201  1.00  0.00     0.046 A 
HETATM    7  C14 UNL     1      29.277   5.460  48.428  1.00  0.00     0.030 A 
HETATM    8  C15 UNL     1      28.004   4.945  48.579  1.00  0.00     0.002 A 
HETATM    9  C16 UNL     1      26.880   5.778  48.498  1.00  0.00     0.001 A 
HETATM   10  C17 UNL     1      27.001   7.151  48.263  1.00  0.00     0.010 A 
HETATM   11  C18 UNL     1      28.267   7.726  48.103  1.00  0.00    -0.022 A 
HETATM   12  C19 UNL     1      28.034   9.167  47.863  1.00  0.00     0.114 C 
HETATM   13  S1  UNL     1      29.209  10.218  48.738  1.00  0.00    -0.164 SA
HETATM   14  C20 UNL     1      30.684   9.322  49.247  1.00  0.00     0.079 C 
HETATM   15  C21 UNL     1      31.753   9.254  48.178  1.00  0.00     0.072 C 
ENDROOT
BRANCH   1  16
HETATM   16  O2  UNL     1      31.120   8.307  46.145  1.00  0.00    -0.356 OA
BRANCH  16  17
HETATM   17  C8  UNL     1      31.633   9.438  45.569  1.00  0.00     0.200 C 
BRANCH  17  18
HETATM   18  C7  UNL     1      31.587   9.348  44.065  1.00  0.00     0.016 C 
HETATM   19  C6  UNL     1      32.412   8.650  43.301  1.00  0.00     0.083 C 
BRANCH  19  20
HETATM   20  N1  UNL     1      33.435   7.915  43.942  1.00  0.00    -0.374 N 
HETATM   21  H12 UNL     1      34.073   8.283  44.660  1.00  0.00     0.161 HD
BRANCH  20  22
HETATM   22  C4  UNL     1      33.609   6.525  43.559  1.00  0.00     0.216 C 
HETATM   23  C5  UNL     1      34.029   6.465  42.121  1.00  0.00     0.063 C 
BRANCH  22  24
HETATM   24  O1  UNL     1      34.505   5.864  44.366  1.00  0.00    -0.363 OA
BRANCH  24  25
HETATM   25  C2  UNL     1      34.150   4.540  44.494  1.00  0.00     0.116 C 
HETATM   26  C1  UNL     1      32.806   4.394  45.219  1.00  0.00     0.039 C 
HETATM   27  C3  UNL     1      35.156   3.781  45.341  1.00  0.00     0.039 C 
ENDBRANCH  24  25
ENDBRANCH  22  24
ENDBRANCH  20  22
ENDBRANCH  19  20
ENDBRANCH  17  18
ENDBRANCH  16  17
ENDBRANCH   1  16
BRANCH   4  28
HETATM   28  O3  UNL     1      31.036   5.575  50.166  1.00  0.00    -0.346 OA
HETATM   29  H20 UNL     1      30.225   5.918  50.668  1.00  0.00     0.219 HD
ENDBRANCH   4  28
TORSDOF 8
ENDMDL
MODEL 9
REMARK VINA RESULT:      -6.4      2.840      5.380
REMARK  8 active torsions:
REMARK  status: ('A' for Active; 'I' for Inactive)
REMARK    1  A    between atoms: C2_2  and  O1_4 
REMARK    2  A    between atoms: O1_4  and  C4_5 
REMARK    3  A    between atoms: C4_5  and  N1_7 
REMARK    4  A    between atoms: N1_7  and  C6_8 
REMARK    5  A    between atoms: C7_9  and  C8_10 
REMARK    6  A    between atoms: C8_10  and  O2_11 
REMARK    7  A    between atoms: O2_11  and  C9_12 
REMARK    8  A    between atoms: C12_15  and  O3_16 
ROOT
HETATM    1  C9  UNL     1      23.309   2.997  50.027  1.00  0.00     0.146 C 
HETATM    2  C10 UNL     1      24.582   3.373  49.335  1.00  0.00     0.093 C 
HETATM    3  C11 UNL     1      25.564   3.527  50.442  1.00  0.00     0.034 C 
HETATM    4  C12 UNL     1      25.107   2.918  51.560  1.00  0.00     0.141 C 
HETATM    5  N2  UNL     1      23.810   2.341  51.229  1.00  0.00    -0.294 N 
HETATM    6  C13 UNL     1      23.384   1.320  52.156  1.00  0.00     0.046 A 
HETATM    7  C14 UNL     1      24.572   0.696  52.480  1.00  0.00     0.030 A 
HETATM    8  C15 UNL     1      24.441  -0.328  53.398  1.00  0.00     0.002 A 
HETATM    9  C16 UNL     1      23.186  -0.664  53.922  1.00  0.00     0.001 A 
HETATM   10  C17 UNL     1      22.027   0.018  53.540  1.00  0.00     0.010 A 
HETATM   11  C18 UNL     1      22.101   1.065  52.614  1.00  0.00    -0.022 A 
HETATM   12  C19 UNL     1      20.716   1.548  52.431  1.00  0.00     0.114 C 
HETATM   13  S1  UNL     1      20.611   3.347  52.347  1.00  0.00    -0.164 SA
HETATM   14  C20 UNL     1      22.195   4.109  51.965  1.00  0.00     0.079 C 
HETATM   15  C21 UNL     1      22.486   4.195  50.483  1.00  0.00     0.072 C 
ENDROOT
BRANCH   1  16
HETATM   16  O2  UNL     1      22.464   2.182  49.308  1.00  0.00    -0.356 OA
BRANCH  16  17
HETATM   17  C8  UNL     1      22.668   2.138  47.956  1.00  0.00     0.200 C 
BRANCH  17  18
HETATM   18  C7  UNL     1      21.704   3.046  47.234  1.00  0.00     0.016 C 
HETATM   19  C6  UNL     1      20.387   3.048  47.369  1.00  0.00     0.083 C 
BRANCH  19  20
HETATM   20  N1  UNL     1      19.819   2.119  48.269  1.00  0.00    -0.374 N 
HETATM   21  H12 UNL     1      20.049   1.117  48.318  1.00  0.00     0.161 HD
BRANCH  20  22
HETATM   22  C4  UNL     1      18.824   2.610  49.206  1.00  0.00     0.216 C 
HETATM   23  C5  UNL     1      18.462   4.017  48.840  1.00  0.00     0.063 C 
BRANCH  22  24
HETATM   24  O1  UNL     1      17.708   1.807  49.259  1.00  0.00    -0.363 OA
BRANCH  24  25
HETATM   25  C2  UNL     1      17.449   1.430  50.557  1.00  0.00     0.116 C 
HETATM   26  C1  UNL     1      17.709  -0.067  50.764  1.00  0.00     0.039 C 
HETATM   27  C3  UNL     1      15.988   1.644  50.910  1.00  0.00     0.039 C 
ENDBRANCH  24  25
ENDBRANCH  22  24
ENDBRANCH  20  22
ENDBRANCH  19  20
ENDBRANCH  17  18
ENDBRANCH  16  17
ENDBRANCH   1  16
BRANCH   4  28
HETATM   28  O3  UNL     1      25.754   2.843  52.827  1.00  0.00    -0.346 OA
HETATM   29  H20 UNL     1      25.255   2.495  53.639  1.00  0.00     0.219 HD
ENDBRANCH   4  28
TORSDOF 8
ENDMDL
