MODEL 1
REMARK VINA RESULT:      -8.2      0.000      0.000
REMARK  7 active torsions:
REMARK  status: ('A' for Active; 'I' for Inactive)
REMARK    1  A    between atoms: C2_3  and  C10_13 
REMARK    2  A    between atoms: C3_4  and  C4_5 
REMARK    3  A    between atoms: C7_8  and  O1_9 
REMARK    4  A    between atoms: C8_10  and  O2_11 
REMARK    5  A    between atoms: C10_13  and  N2_14 
REMARK    6  A    between atoms: N2_14  and  C11_15 
REMARK    7  A    between atoms: C16_20  and  O3_21 
ROOT
HETATM    1  N1  UNL     1      23.276   4.611  52.697  1.00  0.00    -0.192 NA
HETATM    2  C1  UNL     1      23.872   3.641  52.539  1.00  0.00     0.097 C 
HETATM    3  C2  UNL     1      24.603   2.425  52.350  1.00  0.00     0.041 C 
HETATM    4  C3  UNL     1      24.035   1.245  52.460  1.00  0.00     0.031 C 
ENDROOT
BRANCH   3   5
HETATM    5  C10 UNL     1      26.049   2.466  52.012  1.00  0.00     0.170 C 
BRANCH   5   6
HETATM    6  N2  UNL     1      26.915   2.311  53.149  1.00  0.00    -0.383 N 
HETATM    7  H9  UNL     1      26.961   3.044  53.877  1.00  0.00     0.160 HD
BRANCH   6   8
HETATM    8  C11 UNL     1      27.726   1.138  53.290  1.00  0.00     0.061 A 
HETATM    9  C12 UNL     1      27.241  -0.088  52.832  1.00  0.00     0.032 A 
HETATM   10  C13 UNL     1      28.037  -1.231  52.960  1.00  0.00     0.002 A 
HETATM   11  C14 UNL     1      29.286  -1.093  53.543  1.00  0.00     0.003 A 
HETATM   12  C15 UNL     1      29.765   0.098  53.993  1.00  0.00     0.039 A 
HETATM   13  C16 UNL     1      28.997   1.234  53.874  1.00  0.00     0.092 A 
BRANCH  13  14
HETATM   14  O3  UNL     1      29.456   2.471  54.324  1.00  0.00    -0.358 OA
HETATM   15  H14 UNL     1      29.511   3.294  53.724  1.00  0.00     0.217 HD
ENDBRANCH  13  14
ENDBRANCH   6   8
ENDBRANCH   5   6
ENDBRANCH   3   5
BRANCH   4  16
HETATM   16  C4  UNL     1      22.762   0.610  52.744  1.00  0.00    -0.032 A 
HETATM   17  C5  UNL     1      21.501   0.774  52.214  1.00  0.00     0.014 A 
HETATM   18  C6  UNL     1      20.476   0.013  52.724  1.00  0.00     0.040 A 
HETATM   19  C7  UNL     1      20.629  -0.908  53.737  1.00  0.00     0.098 A 
HETATM   20  C8  UNL     1      21.905  -1.083  54.280  1.00  0.00     0.099 A 
HETATM   21  C9  UNL     1      22.958  -0.314  53.770  1.00  0.00     0.051 A 
BRANCH  19  22
HETATM   22  O1  UNL     1      19.483  -1.597  54.135  1.00  0.00    -0.358 OA
HETATM   23  H4  UNL     1      19.558  -2.613  54.257  1.00  0.00     0.217 HD
ENDBRANCH  19  22
BRANCH  20  24
HETATM   24  O2  UNL     1      21.985  -2.021  55.291  1.00  0.00    -0.358 OA
HETATM   25  H5  UNL     1      22.102  -1.693  56.232  1.00  0.00     0.217 HD
ENDBRANCH  20  24
ENDBRANCH   4  16
TORSDOF 7
ENDMDL
MODEL 2
REMARK VINA RESULT:      -8.0      2.196      6.627
REMARK  7 active torsions:
REMARK  status: ('A' for Active; 'I' for Inactive)
REMARK    1  A    between atoms: C2_3  and  C10_13 
REMARK    2  A    between atoms: C3_4  and  C4_5 
REMARK    3  A    between atoms: C7_8  and  O1_9 
REMARK    4  A    between atoms: C8_10  and  O2_11 
REMARK    5  A    between atoms: C10_13  and  N2_14 
REMARK    6  A    between atoms: N2_14  and  C11_15 
REMARK    7  A    between atoms: C16_20  and  O3_21 
ROOT
HETATM    1  N1  UNL     1      26.791   3.204  50.181  1.00  0.00    -0.192 NA
HETATM    2  C1  UNL     1      26.154   2.505  50.835  1.00  0.00     0.097 C 
HETATM    3  C2  UNL     1      25.373   1.626  51.652  1.00  0.00     0.041 C 
HETATM    4  C3  UNL     1      25.926   0.756  52.468  1.00  0.00     0.031 C 
ENDROOT
BRANCH   3   5
HETATM    5  C10 UNL     1      23.889   1.679  51.602  1.00  0.00     0.170 C 
BRANCH   5   6
HETATM    6  N2  UNL     1      23.267   1.749  52.897  1.00  0.00    -0.383 N 
HETATM    7  H9  UNL     1      23.455   2.548  53.525  1.00  0.00     0.160 HD
BRANCH   6   8
HETATM    8  C11 UNL     1      22.380   0.713  53.334  1.00  0.00     0.061 A 
HETATM    9  C12 UNL     1      22.911  -0.464  53.864  1.00  0.00     0.032 A 
HETATM   10  C13 UNL     1      22.044  -1.471  54.300  1.00  0.00     0.002 A 
HETATM   11  C14 UNL     1      20.681  -1.253  54.185  1.00  0.00     0.003 A 
HETATM   12  C15 UNL     1      20.156  -0.108  53.669  1.00  0.00     0.039 A 
HETATM   13  C16 UNL     1      20.993   0.894  53.235  1.00  0.00     0.092 A 
BRANCH  13  14
HETATM   14  O3  UNL     1      20.490   2.079  52.701  1.00  0.00    -0.358 OA
HETATM   15  H14 UNL     1      20.752   2.428  51.779  1.00  0.00     0.217 HD
ENDBRANCH  13  14
ENDBRANCH   6   8
ENDBRANCH   5   6
ENDBRANCH   3   5
BRANCH   4  16
HETATM   16  C4  UNL     1      27.217   0.274  52.923  1.00  0.00    -0.032 A 
HETATM   17  C5  UNL     1      28.326   0.917  53.426  1.00  0.00     0.014 A 
HETATM   18  C6  UNL     1      29.424   0.159  53.757  1.00  0.00     0.040 A 
HETATM   19  C7  UNL     1      29.488  -1.209  53.616  1.00  0.00     0.098 A 
HETATM   20  C8  UNL     1      28.367  -1.871  53.106  1.00  0.00     0.099 A 
HETATM   21  C9  UNL     1      27.242  -1.112  52.765  1.00  0.00     0.051 A 
BRANCH  19  22
HETATM   22  O1  UNL     1      30.680  -1.823  54.001  1.00  0.00    -0.358 OA
HETATM   23  H4  UNL     1      30.787  -2.823  53.795  1.00  0.00     0.217 HD
ENDBRANCH  19  22
BRANCH  20  24
HETATM   24  O2  UNL     1      28.501  -3.242  52.992  1.00  0.00    -0.358 OA
HETATM   25  H5  UNL     1      28.226  -3.673  52.128  1.00  0.00     0.217 HD
ENDBRANCH  20  24
ENDBRANCH   4  16
TORSDOF 7
ENDMDL
MODEL 3
REMARK VINA RESULT:      -8.0      2.762      8.134
REMARK  7 active torsions:
REMARK  status: ('A' for Active; 'I' for Inactive)
REMARK    1  A    between atoms: C2_3  and  C10_13 
REMARK    2  A    between atoms: C3_4  and  C4_5 
REMARK    3  A    between atoms: C7_8  and  O1_9 
REMARK    4  A    between atoms: C8_10  and  O2_11 
REMARK    5  A    between atoms: C10_13  and  N2_14 
REMARK    6  A    between atoms: N2_14  and  C11_15 
REMARK    7  A    between atoms: C16_20  and  O3_21 
ROOT
HETATM    1  N1  UNL     1      22.429  -1.895  55.325  1.00  0.00    -0.192 NA
HETATM    2  C1  UNL     1      22.463  -1.079  54.515  1.00  0.00     0.097 C 
HETATM    3  C2  UNL     1      22.519  -0.061  53.510  1.00  0.00     0.041 C 
HETATM    4  C3  UNL     1      23.660   0.401  53.048  1.00  0.00     0.031 C 
ENDROOT
BRANCH   3   5
HETATM    5  C10 UNL     1      21.266   0.507  52.948  1.00  0.00     0.170 C 
BRANCH   5   6
HETATM    6  N2  UNL     1      20.079  -0.199  53.350  1.00  0.00    -0.383 N 
HETATM    7  H9  UNL     1      20.035  -0.671  54.268  1.00  0.00     0.160 HD
BRANCH   6   8
HETATM    8  C11 UNL     1      18.941  -0.259  52.481  1.00  0.00     0.061 A 
HETATM    9  C12 UNL     1      19.032   0.281  51.196  1.00  0.00     0.032 A 
HETATM   10  C13 UNL     1      17.925   0.212  50.345  1.00  0.00     0.002 A 
HETATM   11  C14 UNL     1      16.774  -0.394  50.820  1.00  0.00     0.003 A 
HETATM   12  C15 UNL     1      16.678  -0.921  52.071  1.00  0.00     0.039 A 
HETATM   13  C16 UNL     1      17.757  -0.865  52.922  1.00  0.00     0.092 A 
BRANCH  13  14
HETATM   14  O3  UNL     1      17.694  -1.395  54.210  1.00  0.00    -0.358 OA
HETATM   15  H14 UNL     1      18.492  -1.832  54.670  1.00  0.00     0.217 HD
ENDBRANCH  13  14
ENDBRANCH   6   8
ENDBRANCH   5   6
ENDBRANCH   3   5
BRANCH   4  16
HETATM   16  C4  UNL     1      25.096   0.252  53.190  1.00  0.00    -0.032 A 
HETATM   17  C5  UNL     1      25.937  -0.831  53.059  1.00  0.00     0.014 A 
HETATM   18  C6  UNL     1      27.280  -0.642  53.280  1.00  0.00     0.040 A 
HETATM   19  C7  UNL     1      27.844   0.565  53.627  1.00  0.00     0.098 A 
HETATM   20  C8  UNL     1      26.998   1.671  53.761  1.00  0.00     0.099 A 
HETATM   21  C9  UNL     1      25.628   1.493  53.539  1.00  0.00     0.051 A 
BRANCH  19  22
HETATM   22  O1  UNL     1      29.226   0.582  53.814  1.00  0.00    -0.358 OA
HETATM   23  H4  UNL     1      29.806   0.934  53.043  1.00  0.00     0.217 HD
ENDBRANCH  19  22
BRANCH  20  24
HETATM   24  O2  UNL     1      27.630   2.849  54.110  1.00  0.00    -0.358 OA
HETATM   25  H5  UNL     1      28.614   2.816  54.309  1.00  0.00     0.217 HD
ENDBRANCH  20  24
ENDBRANCH   4  16
TORSDOF 7
ENDMDL
MODEL 4
REMARK VINA RESULT:      -7.8      3.019      3.922
REMARK  7 active torsions:
REMARK  status: ('A' for Active; 'I' for Inactive)
REMARK    1  A    between atoms: C2_3  and  C10_13 
REMARK    2  A    between atoms: C3_4  and  C4_5 
REMARK    3  A    between atoms: C7_8  and  O1_9 
REMARK    4  A    between atoms: C8_10  and  O2_11 
REMARK    5  A    between atoms: C10_13  and  N2_14 
REMARK    6  A    between atoms: N2_14  and  C11_15 
REMARK    7  A    between atoms: C16_20  and  O3_21 
ROOT
HETATM    1  N1  UNL     1      22.370  -1.611  55.172  1.00  0.00    -0.192 NA
HETATM    2  C1  UNL     1      22.878  -0.924  54.402  1.00  0.00     0.097 C 
HETATM    3  C2  UNL     1      23.497  -0.071  53.434  1.00  0.00     0.041 C 
HETATM    4  C3  UNL     1      22.829   0.440  52.425  1.00  0.00     0.031 C 
ENDROOT
BRANCH   3   5
HETATM    5  C10 UNL     1      24.939   0.270  53.551  1.00  0.00     0.170 C 
BRANCH   5   6
HETATM    6  N2  UNL     1      25.813  -0.869  53.460  1.00  0.00    -0.383 N 
HETATM    7  H9  UNL     1      25.424  -1.821  53.354  1.00  0.00     0.160 HD
BRANCH   6   8
HETATM    8  C11 UNL     1      27.235  -0.700  53.517  1.00  0.00     0.061 A 
HETATM    9  C12 UNL     1      27.762   0.507  53.981  1.00  0.00     0.032 A 
HETATM   10  C13 UNL     1      29.149   0.668  54.046  1.00  0.00     0.002 A 
HETATM   11  C14 UNL     1      29.948  -0.390  53.642  1.00  0.00     0.003 A 
HETATM   12  C15 UNL     1      29.441  -1.568  53.188  1.00  0.00     0.039 A 
HETATM   13  C16 UNL     1      28.078  -1.745  53.118  1.00  0.00     0.092 A 
BRANCH  13  14
HETATM   14  O3  UNL     1      27.525  -2.939  52.658  1.00  0.00    -0.358 OA
HETATM   15  H14 UNL     1      27.325  -3.116  51.674  1.00  0.00     0.217 HD
ENDBRANCH  13  14
ENDBRANCH   6   8
ENDBRANCH   5   6
ENDBRANCH   3   5
BRANCH   4  16
HETATM   16  C4  UNL     1      21.506   0.474  51.828  1.00  0.00    -0.032 A 
HETATM   17  C5  UNL     1      20.265   0.103  52.294  1.00  0.00     0.014 A 
HETATM   18  C6  UNL     1      19.185   0.249  51.457  1.00  0.00     0.040 A 
HETATM   19  C7  UNL     1      19.264   0.742  50.174  1.00  0.00     0.098 A 
HETATM   20  C8  UNL     1      20.520   1.122  49.691  1.00  0.00     0.099 A 
HETATM   21  C9  UNL     1      21.629   0.979  50.533  1.00  0.00     0.051 A 
BRANCH  19  22
HETATM   22  O1  UNL     1      18.069   0.824  49.459  1.00  0.00    -0.358 OA
HETATM   23  H4  UNL     1      18.117   0.723  48.439  1.00  0.00     0.217 HD
ENDBRANCH  19  22
BRANCH  20  24
HETATM   24  O2  UNL     1      20.525   1.607  48.398  1.00  0.00    -0.358 OA
HETATM   25  H5  UNL     1      20.452   2.600  48.266  1.00  0.00     0.217 HD
ENDBRANCH  20  24
ENDBRANCH   4  16
TORSDOF 7
ENDMDL
MODEL 5
REMARK VINA RESULT:      -7.7      2.525      7.509
REMARK  7 active torsions:
REMARK  status: ('A' for Active; 'I' for Inactive)
REMARK    1  A    between atoms: C2_3  and  C10_13 
REMARK    2  A    between atoms: C3_4  and  C4_5 
REMARK    3  A    between atoms: C7_8  and  O1_9 
REMARK    4  A    between atoms: C8_10  and  O2_11 
REMARK    5  A    between atoms: C10_13  and  N2_14 
REMARK    6  A    between atoms: N2_14  and  C11_15 
REMARK    7  A    between atoms: C16_20  and  O3_21 
ROOT
HETATM    1  N1  UNL     1      23.240  -1.259  55.085  1.00  0.00    -0.192 NA
HETATM    2  C1  UNL     1      23.484  -0.643  54.145  1.00  0.00     0.097 C 
HETATM    3  C2  UNL     1      23.802   0.126  52.980  1.00  0.00     0.041 C 
HETATM    4  C3  UNL     1      25.042   0.343  52.604  1.00  0.00     0.031 C 
ENDROOT
BRANCH   3   5
HETATM    5  C10 UNL     1      22.717   0.704  52.146  1.00  0.00     0.170 C 
BRANCH   5   6
HETATM    6  N2  UNL     1      21.530   1.037  52.888  1.00  0.00    -0.383 N 
HETATM    7  H9  UNL     1      21.579   1.688  53.690  1.00  0.00     0.160 HD
BRANCH   6   8
HETATM    8  C11 UNL     1      20.264   0.472  52.526  1.00  0.00     0.061 A 
HETATM    9  C12 UNL     1      19.693   0.807  51.297  1.00  0.00     0.032 A 
HETATM   10  C13 UNL     1      18.462   0.247  50.939  1.00  0.00     0.002 A 
HETATM   11  C14 UNL     1      17.858  -0.624  51.832  1.00  0.00     0.003 A 
HETATM   12  C15 UNL     1      18.409  -0.954  53.031  1.00  0.00     0.039 A 
HETATM   13  C16 UNL     1      19.620  -0.414  53.400  1.00  0.00     0.092 A 
BRANCH  13  14
HETATM   14  O3  UNL     1      20.213  -0.729  54.621  1.00  0.00    -0.358 OA
HETATM   15  H14 UNL     1      20.722  -0.048  55.184  1.00  0.00     0.217 HD
ENDBRANCH  13  14
ENDBRANCH   6   8
ENDBRANCH   5   6
ENDBRANCH   3   5
BRANCH   4  16
HETATM   16  C4  UNL     1      26.417   0.061  52.976  1.00  0.00    -0.032 A 
HETATM   17  C5  UNL     1      27.433   0.855  53.459  1.00  0.00     0.014 A 
HETATM   18  C6  UNL     1      28.654   0.273  53.702  1.00  0.00     0.040 A 
HETATM   19  C7  UNL     1      28.930  -1.059  53.490  1.00  0.00     0.098 A 
HETATM   20  C8  UNL     1      27.905  -1.874  53.001  1.00  0.00     0.099 A 
HETATM   21  C9  UNL     1      26.656  -1.295  52.749  1.00  0.00     0.051 A 
BRANCH  19  22
HETATM   22  O1  UNL     1      30.224  -1.486  53.790  1.00  0.00    -0.358 OA
HETATM   23  H4  UNL     1      30.400  -1.842  54.737  1.00  0.00     0.217 HD
ENDBRANCH  19  22
BRANCH  20  24
HETATM   24  O2  UNL     1      28.252  -3.198  52.813  1.00  0.00    -0.358 OA
HETATM   25  H5  UNL     1      27.726  -3.734  52.146  1.00  0.00     0.217 HD
ENDBRANCH  20  24
ENDBRANCH   4  16
TORSDOF 7
ENDMDL
MODEL 6
REMARK VINA RESULT:      -7.6      3.111      4.353
REMARK  7 active torsions:
REMARK  status: ('A' for Active; 'I' for Inactive)
REMARK    1  A    between atoms: C2_3  and  C10_13 
REMARK    2  A    between atoms: C3_4  and  C4_5 
REMARK    3  A    between atoms: C7_8  and  O1_9 
REMARK    4  A    between atoms: C8_10  and  O2_11 
REMARK    5  A    between atoms: C10_13  and  N2_14 
REMARK    6  A    between atoms: N2_14  and  C11_15 
REMARK    7  A    between atoms: C16_20  and  O3_21 
ROOT
HETATM    1  N1  UNL     1      21.011  -0.240  54.218  1.00  0.00    -0.192 NA
HETATM    2  C1  UNL     1      22.058   0.058  53.848  1.00  0.00     0.097 C 
HETATM    3  C2  UNL     1      23.356   0.439  53.380  1.00  0.00     0.041 C 
HETATM    4  C3  UNL     1      23.579   1.602  52.811  1.00  0.00     0.031 C 
ENDROOT
BRANCH   3   5
HETATM    5  C10 UNL     1      24.508  -0.487  53.533  1.00  0.00     0.170 C 
BRANCH   5   6
HETATM    6  N2  UNL     1      25.745   0.174  53.853  1.00  0.00    -0.383 N 
HETATM    7  H9  UNL     1      25.743   1.139  54.222  1.00  0.00     0.160 HD
BRANCH   6   8
HETATM    8  C11 UNL     1      26.997  -0.497  53.665  1.00  0.00     0.061 A 
HETATM    9  C12 UNL     1      27.029  -1.701  52.958  1.00  0.00     0.032 A 
HETATM   10  C13 UNL     1      28.252  -2.350  52.765  1.00  0.00     0.002 A 
HETATM   11  C14 UNL     1      29.391  -1.762  53.292  1.00  0.00     0.003 A 
HETATM   12  C15 UNL     1      29.368  -0.590  53.982  1.00  0.00     0.039 A 
HETATM   13  C16 UNL     1      28.174   0.063  54.181  1.00  0.00     0.092 A 
BRANCH  13  14
HETATM   14  O3  UNL     1      28.113   1.266  54.883  1.00  0.00    -0.358 OA
HETATM   15  H14 UNL     1      27.239   1.762  55.060  1.00  0.00     0.217 HD
ENDBRANCH  13  14
ENDBRANCH   6   8
ENDBRANCH   5   6
ENDBRANCH   3   5
BRANCH   4  16
HETATM   16  C4  UNL     1      22.913   2.829  52.417  1.00  0.00    -0.032 A 
HETATM   17  C5  UNL     1      21.653   3.088  51.922  1.00  0.00     0.014 A 
HETATM   18  C6  UNL     1      21.325   4.389  51.625  1.00  0.00     0.040 A 
HETATM   19  C7  UNL     1      22.178   5.457  51.788  1.00  0.00     0.098 A 
HETATM   20  C8  UNL     1      23.459   5.205  52.290  1.00  0.00     0.099 A 
HETATM   21  C9  UNL     1      23.807   3.885  52.597  1.00  0.00     0.051 A 
BRANCH  19  22
HETATM   22  O1  UNL     1      21.684   6.713  51.437  1.00  0.00    -0.358 OA
HETATM   23  H4  UNL     1      22.218   7.259  50.751  1.00  0.00     0.217 HD
ENDBRANCH  19  22
BRANCH  20  24
HETATM   24  O2  UNL     1      24.261   6.322  52.428  1.00  0.00    -0.358 OA
HETATM   25  H5  UNL     1      23.965   7.173  51.984  1.00  0.00     0.217 HD
ENDBRANCH  20  24
ENDBRANCH   4  16
TORSDOF 7
ENDMDL
MODEL 7
REMARK VINA RESULT:      -7.5      2.926      6.585
REMARK  7 active torsions:
REMARK  status: ('A' for Active; 'I' for Inactive)
REMARK    1  A    between atoms: C2_3  and  C10_13 
REMARK    2  A    between atoms: C3_4  and  C4_5 
REMARK    3  A    between atoms: C7_8  and  O1_9 
REMARK    4  A    between atoms: C8_10  and  O2_11 
REMARK    5  A    between atoms: C10_13  and  N2_14 
REMARK    6  A    between atoms: N2_14  and  C11_15 
REMARK    7  A    between atoms: C16_20  and  O3_21 
ROOT
HETATM    1  N1  UNL     1      22.585  -1.567  55.385  1.00  0.00    -0.192 NA
HETATM    2  C1  UNL     1      22.663  -0.850  54.489  1.00  0.00     0.097 C 
HETATM    3  C2  UNL     1      22.774   0.046  53.378  1.00  0.00     0.041 C 
HETATM    4  C3  UNL     1      23.938   0.405  52.885  1.00  0.00     0.031 C 
ENDROOT
BRANCH   3   5
HETATM    5  C10 UNL     1      21.553   0.598  52.737  1.00  0.00     0.170 C 
BRANCH   5   6
HETATM    6  N2  UNL     1      21.755   1.878  52.111  1.00  0.00    -0.383 N 
HETATM    7  H9  UNL     1      21.742   2.744  52.675  1.00  0.00     0.160 HD
BRANCH   6   8
HETATM    8  C11 UNL     1      21.976   1.968  50.699  1.00  0.00     0.061 A 
HETATM    9  C12 UNL     1      21.228   1.164  49.836  1.00  0.00     0.032 A 
HETATM   10  C13 UNL     1      21.437   1.260  48.457  1.00  0.00     0.002 A 
HETATM   11  C14 UNL     1      22.388   2.159  48.003  1.00  0.00     0.003 A 
HETATM   12  C15 UNL     1      23.121   2.945  48.837  1.00  0.00     0.039 A 
HETATM   13  C16 UNL     1      22.929   2.866  50.197  1.00  0.00     0.092 A 
BRANCH  13  14
HETATM   14  O3  UNL     1      23.662   3.656  51.081  1.00  0.00    -0.358 OA
HETATM   15  H14 UNL     1      24.344   3.271  51.735  1.00  0.00     0.217 HD
ENDBRANCH  13  14
ENDBRANCH   6   8
ENDBRANCH   5   6
ENDBRANCH   3   5
BRANCH   4  16
HETATM   16  C4  UNL     1      25.366   0.213  53.064  1.00  0.00    -0.032 A 
HETATM   17  C5  UNL     1      26.177  -0.895  52.953  1.00  0.00     0.014 A 
HETATM   18  C6  UNL     1      27.519  -0.746  53.210  1.00  0.00     0.040 A 
HETATM   19  C7  UNL     1      28.108   0.443  53.576  1.00  0.00     0.098 A 
HETATM   20  C8  UNL     1      27.293   1.573  53.692  1.00  0.00     0.099 A 
HETATM   21  C9  UNL     1      25.924   1.437  53.432  1.00  0.00     0.051 A 
BRANCH  19  22
HETATM   22  O1  UNL     1      29.485   0.418  53.800  1.00  0.00    -0.358 OA
HETATM   23  H4  UNL     1      30.040  -0.266  53.272  1.00  0.00     0.217 HD
ENDBRANCH  19  22
BRANCH  20  24
HETATM   24  O2  UNL     1      27.950   2.731  54.062  1.00  0.00    -0.358 OA
HETATM   25  H5  UNL     1      27.597   3.605  53.716  1.00  0.00     0.217 HD
ENDBRANCH  20  24
ENDBRANCH   4  16
TORSDOF 7
ENDMDL
MODEL 8
REMARK VINA RESULT:      -7.5      3.391      6.522
REMARK  7 active torsions:
REMARK  status: ('A' for Active; 'I' for Inactive)
REMARK    1  A    between atoms: C2_3  and  C10_13 
REMARK    2  A    between atoms: C3_4  and  C4_5 
REMARK    3  A    between atoms: C7_8  and  O1_9 
REMARK    4  A    between atoms: C8_10  and  O2_11 
REMARK    5  A    between atoms: C10_13  and  N2_14 
REMARK    6  A    between atoms: N2_14  and  C11_15 
REMARK    7  A    between atoms: C16_20  and  O3_21 
ROOT
HETATM    1  N1  UNL     1      22.654   0.784  53.329  1.00  0.00    -0.192 NA
HETATM    2  C1  UNL     1      23.363   1.379  52.647  1.00  0.00     0.097 C 
HETATM    3  C2  UNL     1      24.257   2.115  51.805  1.00  0.00     0.041 C 
HETATM    4  C3  UNL     1      25.541   1.840  51.741  1.00  0.00     0.031 C 
ENDROOT
BRANCH   3   5
HETATM    5  C10 UNL     1      23.746   3.227  50.962  1.00  0.00     0.170 C 
BRANCH   5   6
HETATM    6  N2  UNL     1      24.176   4.529  51.397  1.00  0.00    -0.383 N 
HETATM    7  H9  UNL     1      23.881   4.898  52.316  1.00  0.00     0.160 HD
BRANCH   6   8
HETATM    8  C11 UNL     1      25.019   5.332  50.561  1.00  0.00     0.061 A 
HETATM    9  C12 UNL     1      25.793   4.715  49.576  1.00  0.00     0.032 A 
HETATM   10  C13 UNL     1      26.608   5.499  48.754  1.00  0.00     0.002 A 
HETATM   11  C14 UNL     1      26.611   6.870  48.957  1.00  0.00     0.003 A 
HETATM   12  C15 UNL     1      25.861   7.477  49.916  1.00  0.00     0.039 A 
HETATM   13  C16 UNL     1      25.053   6.722  50.734  1.00  0.00     0.092 A 
BRANCH  13  14
HETATM   14  O3  UNL     1      24.271   7.311  51.726  1.00  0.00    -0.358 OA
HETATM   15  H14 UNL     1      23.957   6.809  52.557  1.00  0.00     0.217 HD
ENDBRANCH  13  14
ENDBRANCH   6   8
ENDBRANCH   5   6
ENDBRANCH   3   5
BRANCH   4  16
HETATM   16  C4  UNL     1      26.547   0.942  52.278  1.00  0.00    -0.032 A 
HETATM   17  C5  UNL     1      26.647  -0.431  52.311  1.00  0.00     0.014 A 
HETATM   18  C6  UNL     1      27.744  -0.989  52.923  1.00  0.00     0.040 A 
HETATM   19  C7  UNL     1      28.753  -0.260  53.512  1.00  0.00     0.098 A 
HETATM   20  C8  UNL     1      28.660   1.134  53.483  1.00  0.00     0.099 A 
HETATM   21  C9  UNL     1      27.549   1.716  52.862  1.00  0.00     0.051 A 
BRANCH  19  22
HETATM   22  O1  UNL     1      29.795  -0.986  54.089  1.00  0.00    -0.358 OA
HETATM   23  H4  UNL     1      30.700  -0.514  54.198  1.00  0.00     0.217 HD
ENDBRANCH  19  22
BRANCH  20  24
HETATM   24  O2  UNL     1      29.707   1.801  54.091  1.00  0.00    -0.358 OA
HETATM   25  H5  UNL     1      30.383   1.257  54.597  1.00  0.00     0.217 HD
ENDBRANCH  20  24
ENDBRANCH   4  16
TORSDOF 7
ENDMDL
MODEL 9
REMARK VINA RESULT:      -7.5      3.924      6.627
REMARK  7 active torsions:
REMARK  status: ('A' for Active; 'I' for Inactive)
REMARK    1  A    between atoms: C2_3  and  C10_13 
REMARK    2  A    between atoms: C3_4  and  C4_5 
REMARK    3  A    between atoms: C7_8  and  O1_9 
REMARK    4  A    between atoms: C8_10  and  O2_11 
REMARK    5  A    between atoms: C10_13  and  N2_14 
REMARK    6  A    between atoms: N2_14  and  C11_15 
REMARK    7  A    between atoms: C16_20  and  O3_21 
ROOT
HETATM    1  N1  UNL     1      23.393   3.683  52.502  1.00  0.00    -0.192 NA
HETATM    2  C1  UNL     1      24.156   3.466  51.669  1.00  0.00     0.097 C 
HETATM    3  C2  UNL     1      25.115   3.189  50.643  1.00  0.00     0.041 C 
HETATM    4  C3  UNL     1      26.113   2.354  50.827  1.00  0.00     0.031 C 
ENDROOT
BRANCH   3   5
HETATM    5  C10 UNL     1      25.002   3.849  49.316  1.00  0.00     0.170 C 
BRANCH   5   6
HETATM    6  N2  UNL     1      25.297   5.256  49.342  1.00  0.00    -0.383 N 
HETATM    7  H9  UNL     1      24.621   5.926  49.745  1.00  0.00     0.160 HD
BRANCH   6   8
HETATM    8  C11 UNL     1      26.533   5.749  48.808  1.00  0.00     0.061 A 
HETATM    9  C12 UNL     1      27.627   4.887  48.709  1.00  0.00     0.032 A 
HETATM   10  C13 UNL     1      28.829   5.366  48.179  1.00  0.00     0.002 A 
HETATM   11  C14 UNL     1      28.881   6.689  47.772  1.00  0.00     0.003 A 
HETATM   12  C15 UNL     1      27.820   7.535  47.867  1.00  0.00     0.039 A 
HETATM   13  C16 UNL     1      26.628   7.082  48.385  1.00  0.00     0.092 A 
BRANCH  13  14
HETATM   14  O3  UNL     1      25.520   7.920  48.497  1.00  0.00    -0.358 OA
HETATM   15  H14 UNL     1      25.556   8.830  48.957  1.00  0.00     0.217 HD
ENDBRANCH  13  14
ENDBRANCH   6   8
ENDBRANCH   5   6
ENDBRANCH   3   5
BRANCH   4  16
HETATM   16  C4  UNL     1      26.701   1.475  51.821  1.00  0.00    -0.032 A 
HETATM   17  C5  UNL     1      26.566   0.127  52.067  1.00  0.00     0.014 A 
HETATM   18  C6  UNL     1      27.264  -0.415  53.121  1.00  0.00     0.040 A 
HETATM   19  C7  UNL     1      28.092   0.307  53.951  1.00  0.00     0.098 A 
HETATM   20  C8  UNL     1      28.235   1.676  53.708  1.00  0.00     0.099 A 
HETATM   21  C9  UNL     1      27.531   2.241  52.639  1.00  0.00     0.051 A 
BRANCH  19  22
HETATM   22  O1  UNL     1      28.725  -0.400  54.973  1.00  0.00    -0.358 OA
HETATM   23  H4  UNL     1      29.553  -0.954  54.726  1.00  0.00     0.217 HD
ENDBRANCH  19  22
BRANCH  20  24
HETATM   24  O2  UNL     1      29.080   2.337  54.579  1.00  0.00    -0.358 OA
HETATM   25  H5  UNL     1      29.806   1.807  55.027  1.00  0.00     0.217 HD
ENDBRANCH  20  24
ENDBRANCH   4  16
TORSDOF 7
ENDMDL
