MODEL 1
REMARK VINA RESULT:      -8.0      0.000      0.000
REMARK  3 active torsions:
REMARK  status: ('A' for Active; 'I' for Inactive)
REMARK    1  A    between atoms: C1_2  and  C2_3 
REMARK    2  A    between atoms: C8_12  and  N4_13 
REMARK    3  A    between atoms: N4_13  and  C9_14 
ROOT
HETATM    1  C2  UNL     1      23.982   2.517  52.424  1.00  0.00     0.052 C 
HETATM    2  C3  UNL     1      23.837   3.851  53.036  1.00  0.00    -0.017 C 
HETATM    3  C4  UNL     1      23.128   4.833  52.444  1.00  0.00     0.015 C 
HETATM    4  C5  UNL     1      22.423   4.713  51.147  1.00  0.00     0.113 C 
HETATM    5  N1  UNL     1      22.876   3.998  50.211  1.00  0.00    -0.273 NA
HETATM    6  C6  UNL     1      24.017   3.139  49.956  1.00  0.00     0.242 A 
HETATM    7  N2  UNL     1      24.882   3.927  49.141  1.00  0.00    -0.254 NA
HETATM    8  C7  UNL     1      26.094   4.142  49.336  1.00  0.00     0.231 A 
HETATM    9  N3  UNL     1      26.731   3.568  50.461  1.00  0.00    -0.229 NA
HETATM   10  C8  UNL     1      26.089   2.821  51.293  1.00  0.00     0.110 A 
HETATM   11  C16 UNL     1      24.678   2.511  51.088  1.00  0.00     0.111 A 
ENDROOT
BRANCH  10  12
HETATM   12  N4  UNL     1      26.842   2.308  52.385  1.00  0.00    -0.367 N 
HETATM   13  H9  UNL     1      26.825   2.886  53.278  1.00  0.00     0.161 HD
BRANCH  12  14
HETATM   14  C9  UNL     1      27.604   1.083  52.357  1.00  0.00     0.129 C 
HETATM   15  C10 UNL     1      28.643   1.130  53.414  1.00  0.00     0.002 C 
HETATM   16  C11 UNL     1      29.449   0.256  53.997  1.00  0.00     0.001 C 
HETATM   17  C12 UNL     1      29.444  -1.174  53.618  1.00  0.00     0.042 C 
HETATM   18  C13 UNL     1      28.419  -1.889  53.118  1.00  0.00     0.116 C 
HETATM   19  F2  UNL     1      28.678  -3.192  52.854  1.00  0.00    -0.206 F 
HETATM   20  C14 UNL     1      27.063  -1.359  52.849  1.00  0.00     0.040 C 
HETATM   21  C15 UNL     1      26.742  -0.114  52.533  1.00  0.00     0.005 C 
ENDBRANCH  12  14
ENDBRANCH  10  12
BRANCH   1  22
HETATM   22  C1  UNL     1      22.624   1.859  52.363  1.00  0.00     0.231 C 
HETATM   23  F1  UNL     1      22.715   0.611  51.730  1.00  0.00    -0.255 F 
ENDBRANCH   1  22
TORSDOF 3
ENDMDL
MODEL 2
REMARK VINA RESULT:      -8.0      2.936      4.252
REMARK  3 active torsions:
REMARK  status: ('A' for Active; 'I' for Inactive)
REMARK    1  A    between atoms: C1_2  and  C2_3 
REMARK    2  A    between atoms: C8_12  and  N4_13 
REMARK    3  A    between atoms: N4_13  and  C9_14 
ROOT
HETATM    1  C2  UNL     1      22.838   2.079  51.766  1.00  0.00     0.052 C 
HETATM    2  C3  UNL     1      22.405   1.359  50.555  1.00  0.00    -0.017 C 
HETATM    3  C4  UNL     1      21.138   0.924  50.398  1.00  0.00     0.015 C 
HETATM    4  C5  UNL     1      20.047   1.103  51.383  1.00  0.00     0.113 C 
HETATM    5  N1  UNL     1      20.269   1.090  52.626  1.00  0.00    -0.273 NA
HETATM    6  C6  UNL     1      21.396   0.935  53.526  1.00  0.00     0.242 A 
HETATM    7  N2  UNL     1      21.288  -0.402  54.007  1.00  0.00    -0.254 NA
HETATM    8  C7  UNL     1      22.187  -1.266  54.009  1.00  0.00     0.231 A 
HETATM    9  N3  UNL     1      23.466  -0.941  53.499  1.00  0.00    -0.229 NA
HETATM   10  C8  UNL     1      23.730   0.232  53.033  1.00  0.00     0.110 A 
HETATM   11  C16 UNL     1      22.722   1.287  53.043  1.00  0.00     0.111 A 
ENDROOT
BRANCH  10  12
HETATM   12  N4  UNL     1      25.051   0.431  52.547  1.00  0.00    -0.367 N 
HETATM   13  H9  UNL     1      25.164   0.436  51.489  1.00  0.00     0.161 HD
BRANCH  12  14
HETATM   14  C9  UNL     1      26.214   0.624  53.378  1.00  0.00     0.129 C 
HETATM   15  C10 UNL     1      27.191  -0.460  53.113  1.00  0.00     0.002 C 
HETATM   16  C11 UNL     1      28.468  -0.680  53.382  1.00  0.00     0.001 C 
HETATM   17  C12 UNL     1      29.281   0.304  54.132  1.00  0.00     0.042 C 
HETATM   18  C13 UNL     1      29.112   1.638  54.188  1.00  0.00     0.116 C 
HETATM   19  F2  UNL     1      30.001   2.316  54.952  1.00  0.00    -0.206 F 
HETATM   20  C14 UNL     1      28.049   2.391  53.485  1.00  0.00     0.040 C 
HETATM   21  C15 UNL     1      26.844   1.952  53.155  1.00  0.00     0.005 C 
ENDBRANCH  12  14
ENDBRANCH  10  12
BRANCH   1  22
HETATM   22  C1  UNL     1      22.098   3.394  51.842  1.00  0.00     0.231 C 
HETATM   23  F1  UNL     1      22.737   4.262  52.739  1.00  0.00    -0.255 F 
ENDBRANCH   1  22
TORSDOF 3
ENDMDL
MODEL 3
REMARK VINA RESULT:      -7.5      2.046      3.209
REMARK  3 active torsions:
REMARK  status: ('A' for Active; 'I' for Inactive)
REMARK    1  A    between atoms: C1_2  and  C2_3 
REMARK    2  A    between atoms: C8_12  and  N4_13 
REMARK    3  A    between atoms: N4_13  and  C9_14 
ROOT
HETATM    1  C2  UNL     1      22.412   1.095  51.008  1.00  0.00     0.052 C 
HETATM    2  C3  UNL     1      22.203   0.584  52.375  1.00  0.00    -0.017 C 
HETATM    3  C4  UNL     1      21.136   0.945  53.115  1.00  0.00     0.015 C 
HETATM    4  C5  UNL     1      20.067   1.870  52.675  1.00  0.00     0.113 C 
HETATM    5  N1  UNL     1      20.308   2.847  51.913  1.00  0.00    -0.273 NA
HETATM    6  C6  UNL     1      21.446   3.440  51.236  1.00  0.00     0.242 A 
HETATM    7  N2  UNL     1      21.778   4.579  52.026  1.00  0.00    -0.254 NA
HETATM    8  C7  UNL     1      22.904   4.870  52.475  1.00  0.00     0.231 A 
HETATM    9  N3  UNL     1      24.003   4.021  52.203  1.00  0.00    -0.229 NA
HETATM   10  C8  UNL     1      23.871   2.952  51.494  1.00  0.00     0.110 A 
HETATM   11  C16 UNL     1      22.582   2.589  50.915  1.00  0.00     0.111 A 
ENDROOT
BRANCH  10  12
HETATM   12  N4  UNL     1      25.050   2.183  51.294  1.00  0.00    -0.367 N 
HETATM   13  H9  UNL     1      25.352   2.044  50.283  1.00  0.00     0.161 HD
BRANCH  12  14
HETATM   14  C9  UNL     1      25.843   1.600  52.349  1.00  0.00     0.129 C 
HETATM   15  C10 UNL     1      26.056   0.160  52.062  1.00  0.00     0.002 C 
HETATM   16  C11 UNL     1      26.853  -0.794  52.516  1.00  0.00     0.001 C 
HETATM   17  C12 UNL     1      27.844  -0.533  53.584  1.00  0.00     0.042 C 
HETATM   18  C13 UNL     1      28.456   0.631  53.870  1.00  0.00     0.116 C 
HETATM   19  F2  UNL     1      29.329   0.603  54.905  1.00  0.00    -0.206 F 
HETATM   20  C14 UNL     1      28.245   1.905  53.144  1.00  0.00     0.040 C 
HETATM   21  C15 UNL     1      27.147   2.292  52.515  1.00  0.00     0.005 C 
ENDBRANCH  12  14
ENDBRANCH  10  12
BRANCH   1  22
HETATM   22  C1  UNL     1      21.297   0.592  50.122  1.00  0.00     0.231 C 
HETATM   23  F1  UNL     1      21.659   0.700  48.772  1.00  0.00    -0.255 F 
ENDBRANCH   1  22
TORSDOF 3
ENDMDL
MODEL 4
REMARK VINA RESULT:      -7.3      2.379      3.567
REMARK  3 active torsions:
REMARK  status: ('A' for Active; 'I' for Inactive)
REMARK    1  A    between atoms: C1_2  and  C2_3 
REMARK    2  A    between atoms: C8_12  and  N4_13 
REMARK    3  A    between atoms: N4_13  and  C9_14 
ROOT
HETATM    1  C2  UNL     1      24.512   3.416  50.603  1.00  0.00     0.052 C 
HETATM    2  C3  UNL     1      24.032   2.878  49.317  1.00  0.00    -0.017 C 
HETATM    3  C4  UNL     1      22.796   3.144  48.850  1.00  0.00     0.015 C 
HETATM    4  C5  UNL     1      21.787   3.983  49.537  1.00  0.00     0.113 C 
HETATM    5  N1  UNL     1      21.698   4.013  50.796  1.00  0.00    -0.273 NA
HETATM    6  C6  UNL     1      22.348   3.412  51.945  1.00  0.00     0.242 A 
HETATM    7  N2  UNL     1      21.447   2.395  52.374  1.00  0.00    -0.254 NA
HETATM    8  C7  UNL     1      21.724   1.199  52.592  1.00  0.00     0.231 A 
HETATM    9  N3  UNL     1      23.054   0.750  52.416  1.00  0.00    -0.229 NA
HETATM   10  C8  UNL     1      23.993   1.549  52.037  1.00  0.00     0.110 A 
HETATM   11  C16 UNL     1      23.725   2.965  51.806  1.00  0.00     0.111 A 
ENDROOT
BRANCH  10  12
HETATM   12  N4  UNL     1      25.285   0.974  51.894  1.00  0.00    -0.367 N 
HETATM   13  H9  UNL     1      25.492   0.517  50.955  1.00  0.00     0.161 HD
BRANCH  12  14
HETATM   14  C9  UNL     1      26.306   0.975  52.913  1.00  0.00     0.129 C 
HETATM   15  C10 UNL     1      27.125  -0.255  52.787  1.00  0.00     0.002 C 
HETATM   16  C11 UNL     1      28.286  -0.679  53.261  1.00  0.00     0.001 C 
HETATM   17  C12 UNL     1      29.107   0.159  54.162  1.00  0.00     0.042 C 
HETATM   18  C13 UNL     1      29.148   1.502  54.225  1.00  0.00     0.116 C 
HETATM   19  F2  UNL     1      29.992   2.027  55.146  1.00  0.00    -0.206 F 
HETATM   20  C14 UNL     1      28.355   2.419  53.374  1.00  0.00     0.040 C 
HETATM   21  C15 UNL     1      27.170   2.182  52.835  1.00  0.00     0.005 C 
ENDBRANCH  12  14
ENDBRANCH  10  12
BRANCH   1  22
HETATM   22  C1  UNL     1      24.589   4.921  50.504  1.00  0.00     0.231 C 
HETATM   23  F1  UNL     1      25.301   5.298  49.357  1.00  0.00    -0.255 F 
ENDBRANCH   1  22
TORSDOF 3
ENDMDL
MODEL 5
REMARK VINA RESULT:      -7.2      1.585      2.207
REMARK  3 active torsions:
REMARK  status: ('A' for Active; 'I' for Inactive)
REMARK    1  A    between atoms: C1_2  and  C2_3 
REMARK    2  A    between atoms: C8_12  and  N4_13 
REMARK    3  A    between atoms: N4_13  and  C9_14 
ROOT
HETATM    1  C2  UNL     1      22.142   1.989  52.088  1.00  0.00     0.052 C 
HETATM    2  C3  UNL     1      21.565   3.316  52.377  1.00  0.00    -0.017 C 
HETATM    3  C4  UNL     1      20.955   4.050  51.425  1.00  0.00     0.015 C 
HETATM    4  C5  UNL     1      20.786   3.643  50.012  1.00  0.00     0.113 C 
HETATM    5  N1  UNL     1      21.655   2.950  49.413  1.00  0.00    -0.273 NA
HETATM    6  C6  UNL     1      22.941   2.342  49.696  1.00  0.00     0.242 A 
HETATM    7  N2  UNL     1      23.890   3.211  49.083  1.00  0.00    -0.254 NA
HETATM    8  C7  UNL     1      24.900   3.706  49.620  1.00  0.00     0.231 A 
HETATM    9  N3  UNL     1      25.186   3.408  50.973  1.00  0.00    -0.229 NA
HETATM   10  C8  UNL     1      24.428   2.630  51.668  1.00  0.00     0.110 A 
HETATM   11  C16 UNL     1      23.256   1.996  51.073  1.00  0.00     0.111 A 
ENDROOT
BRANCH  10  12
HETATM   12  N4  UNL     1      24.822   2.411  53.017  1.00  0.00    -0.367 N 
HETATM   13  H9  UNL     1      24.337   3.012  53.749  1.00  0.00     0.161 HD
BRANCH  12  14
HETATM   14  C9  UNL     1      25.811   1.450  53.442  1.00  0.00     0.129 C 
HETATM   15  C10 UNL     1      25.810   0.301  52.504  1.00  0.00     0.002 C 
HETATM   16  C11 UNL     1      26.609  -0.724  52.252  1.00  0.00     0.001 C 
HETATM   17  C12 UNL     1      27.867  -0.927  53.004  1.00  0.00     0.042 C 
HETATM   18  C13 UNL     1      28.635   0.009  53.590  1.00  0.00     0.116 C 
HETATM   19  F2  UNL     1      29.746  -0.443  54.220  1.00  0.00    -0.206 F 
HETATM   20  C14 UNL     1      28.355   1.463  53.588  1.00  0.00     0.040 C 
HETATM   21  C15 UNL     1      27.169   2.047  53.526  1.00  0.00     0.005 C 
ENDBRANCH  12  14
ENDBRANCH  10  12
BRANCH   1  22
HETATM   22  C1  UNL     1      21.027   1.046  51.704  1.00  0.00     0.231 C 
HETATM   23  F1  UNL     1      21.550  -0.198  51.324  1.00  0.00    -0.255 F 
ENDBRANCH   1  22
TORSDOF 3
ENDMDL
MODEL 6
REMARK VINA RESULT:      -7.1      3.026      6.050
REMARK  3 active torsions:
REMARK  status: ('A' for Active; 'I' for Inactive)
REMARK    1  A    between atoms: C1_2  and  C2_3 
REMARK    2  A    between atoms: C8_12  and  N4_13 
REMARK    3  A    between atoms: N4_13  and  C9_14 
ROOT
HETATM    1  C2  UNL     1      23.360   3.228  51.150  1.00  0.00     0.052 C 
HETATM    2  C3  UNL     1      22.765   2.040  50.511  1.00  0.00    -0.017 C 
HETATM    3  C4  UNL     1      22.362   0.972  51.228  1.00  0.00     0.015 C 
HETATM    4  C5  UNL     1      22.457   0.849  52.701  1.00  0.00     0.113 C 
HETATM    5  N1  UNL     1      23.412   1.363  53.348  1.00  0.00    -0.273 NA
HETATM    6  C6  UNL     1      24.608   2.139  53.083  1.00  0.00     0.242 A 
HETATM    7  N2  UNL     1      25.673   1.196  53.174  1.00  0.00    -0.254 NA
HETATM    8  C7  UNL     1      26.571   1.006  52.331  1.00  0.00     0.231 A 
HETATM    9  N3  UNL     1      26.588   1.777  51.145  1.00  0.00    -0.229 NA
HETATM   10  C8  UNL     1      25.697   2.680  50.914  1.00  0.00     0.110 A 
HETATM   11  C16 UNL     1      24.647   2.965  51.888  1.00  0.00     0.111 A 
ENDROOT
BRANCH  10  12
HETATM   12  N4  UNL     1      25.822   3.385  49.685  1.00  0.00    -0.367 N 
HETATM   13  H9  UNL     1      25.517   2.859  48.812  1.00  0.00     0.161 HD
BRANCH  12  14
HETATM   14  C9  UNL     1      26.320   4.732  49.555  1.00  0.00     0.129 C 
HETATM   15  C10 UNL     1      27.600   4.710  48.806  1.00  0.00     0.002 C 
HETATM   16  C11 UNL     1      28.368   5.605  48.206  1.00  0.00     0.001 C 
HETATM   17  C12 UNL     1      28.009   7.041  48.179  1.00  0.00     0.042 C 
HETATM   18  C13 UNL     1      26.777   7.580  48.230  1.00  0.00     0.116 C 
HETATM   19  F2  UNL     1      26.721   8.933  48.188  1.00  0.00    -0.206 F 
HETATM   20  C14 UNL     1      25.515   6.813  48.322  1.00  0.00     0.040 C 
HETATM   21  C15 UNL     1      25.342   5.625  48.879  1.00  0.00     0.005 C 
ENDBRANCH  12  14
ENDBRANCH  10  12
BRANCH   1  22
HETATM   22  C1  UNL     1      22.322   3.882  52.030  1.00  0.00     0.231 C 
HETATM   23  F1  UNL     1      22.865   4.999  52.679  1.00  0.00    -0.255 F 
ENDBRANCH   1  22
TORSDOF 3
ENDMDL
MODEL 7
REMARK VINA RESULT:      -7.0      3.162      4.828
REMARK  3 active torsions:
REMARK  status: ('A' for Active; 'I' for Inactive)
REMARK    1  A    between atoms: C1_2  and  C2_3 
REMARK    2  A    between atoms: C8_12  and  N4_13 
REMARK    3  A    between atoms: N4_13  and  C9_14 
ROOT
HETATM    1  C2  UNL     1      23.405   3.781  50.399  1.00  0.00     0.052 C 
HETATM    2  C3  UNL     1      23.655   5.108  50.991  1.00  0.00    -0.017 C 
HETATM    3  C4  UNL     1      24.692   5.878  50.605  1.00  0.00     0.015 C 
HETATM    4  C5  UNL     1      25.686   5.511  49.571  1.00  0.00     0.113 C 
HETATM    5  N1  UNL     1      26.058   4.316  49.403  1.00  0.00    -0.273 NA
HETATM    6  C6  UNL     1      25.793   3.008  49.971  1.00  0.00     0.242 A 
HETATM    7  N2  UNL     1      26.919   2.747  50.807  1.00  0.00    -0.254 NA
HETATM    8  C7  UNL     1      26.891   2.392  52.001  1.00  0.00     0.231 A 
HETATM    9  N3  UNL     1      25.644   2.211  52.645  1.00  0.00    -0.229 NA
HETATM   10  C8  UNL     1      24.529   2.400  52.024  1.00  0.00     0.110 A 
HETATM   11  C16 UNL     1      24.510   2.779  50.615  1.00  0.00     0.111 A 
ENDROOT
BRANCH  10  12
HETATM   12  N4  UNL     1      23.346   2.188  52.783  1.00  0.00    -0.367 N 
HETATM   13  H9  UNL     1      22.967   3.034  53.305  1.00  0.00     0.161 HD
BRANCH  12  14
HETATM   14  C9  UNL     1      22.645   0.931  52.883  1.00  0.00     0.129 C 
HETATM   15  C10 UNL     1      23.298   0.087  53.913  1.00  0.00     0.002 C 
HETATM   16  C11 UNL     1      22.987  -1.014  54.579  1.00  0.00     0.001 C 
HETATM   17  C12 UNL     1      21.700  -1.712  54.365  1.00  0.00     0.042 C 
HETATM   18  C13 UNL     1      20.532  -1.178  53.964  1.00  0.00     0.116 C 
HETATM   19  F2  UNL     1      19.495  -2.041  53.845  1.00  0.00    -0.206 F 
HETATM   20  C14 UNL     1      20.312   0.254  53.656  1.00  0.00     0.040 C 
HETATM   21  C15 UNL     1      21.206   1.119  53.205  1.00  0.00     0.005 C 
ENDBRANCH  12  14
ENDBRANCH  10  12
BRANCH   1  22
HETATM   22  C1  UNL     1      23.071   3.954  48.936  1.00  0.00     0.231 C 
HETATM   23  F1  UNL     1      23.060   2.711  48.288  1.00  0.00    -0.255 F 
ENDBRANCH   1  22
TORSDOF 3
ENDMDL
MODEL 8
REMARK VINA RESULT:      -7.0      2.312      3.593
REMARK  3 active torsions:
REMARK  status: ('A' for Active; 'I' for Inactive)
REMARK    1  A    between atoms: C1_2  and  C2_3 
REMARK    2  A    between atoms: C8_12  and  N4_13 
REMARK    3  A    between atoms: N4_13  and  C9_14 
ROOT
HETATM    1  C2  UNL     1      24.887   3.684  49.654  1.00  0.00     0.052 C 
HETATM    2  C3  UNL     1      23.862   3.248  48.687  1.00  0.00    -0.017 C 
HETATM    3  C4  UNL     1      22.889   4.077  48.258  1.00  0.00     0.015 C 
HETATM    4  C5  UNL     1      22.721   5.485  48.682  1.00  0.00     0.113 C 
HETATM    5  N1  UNL     1      23.011   5.865  49.850  1.00  0.00    -0.273 NA
HETATM    6  C6  UNL     1      23.524   5.293  51.081  1.00  0.00     0.242 A 
HETATM    7  N2  UNL     1      22.377   5.155  51.916  1.00  0.00    -0.254 NA
HETATM    8  C7  UNL     1      22.019   4.126  52.522  1.00  0.00     0.231 A 
HETATM    9  N3  UNL     1      22.792   2.947  52.409  1.00  0.00    -0.229 NA
HETATM   10  C8  UNL     1      23.866   2.908  51.696  1.00  0.00     0.110 A 
HETATM   11  C16 UNL     1      24.346   4.097  50.998  1.00  0.00     0.111 A 
ENDROOT
BRANCH  10  12
HETATM   12  N4  UNL     1      24.552   1.663  51.662  1.00  0.00    -0.367 N 
HETATM   13  H9  UNL     1      24.353   1.043  50.820  1.00  0.00     0.161 HD
BRANCH  12  14
HETATM   14  C9  UNL     1      25.476   1.203  52.669  1.00  0.00     0.129 C 
HETATM   15  C10 UNL     1      26.055  -0.095  52.245  1.00  0.00     0.002 C 
HETATM   16  C11 UNL     1      27.077  -0.850  52.618  1.00  0.00     0.001 C 
HETATM   17  C12 UNL     1      27.973  -0.448  53.725  1.00  0.00     0.042 C 
HETATM   18  C13 UNL     1      28.263   0.800  54.135  1.00  0.00     0.116 C 
HETATM   19  F2  UNL     1      29.120   0.897  55.179  1.00  0.00    -0.206 F 
HETATM   20  C14 UNL     1      27.723   2.041  53.535  1.00  0.00     0.040 C 
HETATM   21  C15 UNL     1      26.557   2.191  52.926  1.00  0.00     0.005 C 
ENDBRANCH  12  14
ENDBRANCH  10  12
BRANCH   1  22
HETATM   22  C1  UNL     1      25.726   4.767  49.019  1.00  0.00     0.231 C 
HETATM   23  F1  UNL     1      27.038   4.313  48.819  1.00  0.00    -0.255 F 
ENDBRANCH   1  22
TORSDOF 3
ENDMDL
MODEL 9
REMARK VINA RESULT:      -6.9      3.307      4.781
REMARK  3 active torsions:
REMARK  status: ('A' for Active; 'I' for Inactive)
REMARK    1  A    between atoms: C1_2  and  C2_3 
REMARK    2  A    between atoms: C8_12  and  N4_13 
REMARK    3  A    between atoms: N4_13  and  C9_14 
ROOT
HETATM    1  C2  UNL     1      23.682   2.972  50.282  1.00  0.00     0.052 C 
HETATM    2  C3  UNL     1      23.196   2.611  48.937  1.00  0.00    -0.017 C 
HETATM    3  C4  UNL     1      22.675   3.528  48.098  1.00  0.00     0.015 C 
HETATM    4  C5  UNL     1      22.525   4.970  48.397  1.00  0.00     0.113 C 
HETATM    5  N1  UNL     1      22.270   5.381  49.563  1.00  0.00    -0.273 NA
HETATM    6  C6  UNL     1      22.045   4.827  50.884  1.00  0.00     0.242 A 
HETATM    7  N2  UNL     1      20.632   4.887  51.061  1.00  0.00    -0.254 NA
HETATM    8  C7  UNL     1      19.886   3.951  51.411  1.00  0.00     0.231 A 
HETATM    9  N3  UNL     1      20.444   2.678  51.677  1.00  0.00    -0.229 NA
HETATM   10  C8  UNL     1      21.710   2.460  51.571  1.00  0.00     0.110 A 
HETATM   11  C16 UNL     1      22.628   3.533  51.201  1.00  0.00     0.111 A 
ENDROOT
BRANCH  10  12
HETATM   12  N4  UNL     1      22.145   1.139  51.864  1.00  0.00    -0.367 N 
HETATM   13  H9  UNL     1      22.113   0.446  51.056  1.00  0.00     0.161 HD
BRANCH  12  14
HETATM   14  C9  UNL     1      22.618   0.692  53.151  1.00  0.00     0.129 C 
HETATM   15  C10 UNL     1      21.757  -0.418  53.630  1.00  0.00     0.002 C 
HETATM   16  C11 UNL     1      21.829  -1.337  54.580  1.00  0.00     0.001 C 
HETATM   17  C12 UNL     1      22.994  -1.423  55.488  1.00  0.00     0.042 C 
HETATM   18  C13 UNL     1      24.261  -1.048  55.237  1.00  0.00     0.116 C 
HETATM   19  F2  UNL     1      25.146  -1.234  56.246  1.00  0.00    -0.206 F 
HETATM   20  C14 UNL     1      24.740  -0.464  53.963  1.00  0.00     0.040 C 
HETATM   21  C15 UNL     1      24.039   0.260  53.105  1.00  0.00     0.005 C 
ENDBRANCH  12  14
ENDBRANCH  10  12
BRANCH   1  22
HETATM   22  C1  UNL     1      24.866   3.899  50.140  1.00  0.00     0.231 C 
HETATM   23  F1  UNL     1      25.767   3.397  49.190  1.00  0.00    -0.255 F 
ENDBRANCH   1  22
TORSDOF 3
ENDMDL
