MODEL 1
REMARK VINA RESULT:      -8.4      0.000      0.000
REMARK  0 active torsions:
REMARK  status: ('A' for Active; 'I' for Inactive)
ROOT
HETATM    1  C1  UNL     1      21.803   1.423  48.229  1.00  0.00     0.044 C 
HETATM    2  C2  UNL     1      22.395   2.052  49.441  1.00  0.00    -0.069 C 
HETATM    3  C3  UNL     1      23.565   2.648  49.352  1.00  0.00    -0.022 C 
HETATM    4  C4  UNL     1      23.435   3.885  49.786  1.00  0.00     0.027 C 
HETATM    5  C5  UNL     1      23.873   3.697  51.158  1.00  0.00    -0.006 A 
HETATM    6 BR1  UNL     1      23.212   4.448  52.833  1.00  0.00    -0.122 Br
HETATM    7  C6  UNL     1      24.757   3.178  52.048  1.00  0.00     0.097 A 
HETATM    8  C7  UNL     1      25.581   2.720  53.226  1.00  0.00     0.081 C 
HETATM    9  C8  UNL     1      25.821   1.272  53.229  1.00  0.00     0.049 A 
HETATM   10  N1  UNL     1      27.134   1.019  53.257  1.00  0.00    -0.246 NA
HETATM   11  C9  UNL     1      27.720  -0.178  53.268  1.00  0.00     0.232 A 
HETATM   12  N2  UNL     1      27.032  -1.352  53.253  1.00  0.00    -0.253 NA
HETATM   13  C10 UNL     1      25.672  -1.133  53.225  1.00  0.00     0.131 A 
HETATM   14  C11 UNL     1      25.099   0.127  53.214  1.00  0.00     0.007 A 
HETATM   15  C12 UNL     1      23.679  -0.109  53.198  1.00  0.00     0.032 C 
HETATM   16  C13 UNL     1      22.468  -0.269  53.658  1.00  0.00     0.088 C 
HETATM   17  N3  UNL     1      21.184  -0.528  53.133  1.00  0.00    -0.378 N 
HETATM   18  C14 UNL     1      20.024   0.279  53.159  1.00  0.00     0.071 C 
HETATM   19  C15 UNL     1      20.256   1.261  52.321  1.00  0.00     0.082 C 
HETATM   20  C16 UNL     1      19.589   2.445  51.814  1.00  0.00     0.018 C 
HETATM   21 CL1  UNL     1      18.296   3.644  51.623  1.00  0.00    -0.088 Cl
HETATM   22  C17 UNL     1      20.593   2.841  51.000  1.00  0.00    -0.002 C 
HETATM   23  C18 UNL     1      21.890   2.143  50.814  1.00  0.00     0.063 C 
HETATM   24  H12 UNL     1      21.559  -1.447  52.813  1.00  0.00     0.164 HD
ENDROOT
TORSDOF 0
ENDMDL
MODEL 2
REMARK VINA RESULT:      -8.4      2.611      5.157
REMARK  0 active torsions:
REMARK  status: ('A' for Active; 'I' for Inactive)
ROOT
HETATM    1  C1  UNL     1      23.838   5.669  53.313  1.00  0.00     0.044 C 
HETATM    2  C2  UNL     1      23.338   4.577  52.433  1.00  0.00    -0.069 C 
HETATM    3  C3  UNL     1      22.041   4.393  52.308  1.00  0.00    -0.022 C 
HETATM    4  C4  UNL     1      21.736   4.440  51.027  1.00  0.00     0.027 C 
HETATM    5  C5  UNL     1      21.752   3.018  50.732  1.00  0.00    -0.006 A 
HETATM    6 BR1  UNL     1      22.408   2.033  49.181  1.00  0.00    -0.122 Br
HETATM    7  C6  UNL     1      21.404   1.747  51.058  1.00  0.00     0.097 A 
HETATM    8  C7  UNL     1      21.149   0.265  51.191  1.00  0.00     0.081 C 
HETATM    9  C8  UNL     1      21.548  -0.269  52.498  1.00  0.00     0.049 A 
HETATM   10  N1  UNL     1      20.509  -0.868  53.091  1.00  0.00    -0.246 NA
HETATM   11  C9  UNL     1      20.501  -1.465  54.283  1.00  0.00     0.232 A 
HETATM   12  N2  UNL     1      21.594  -1.549  55.089  1.00  0.00    -0.253 NA
HETATM   13  C10 UNL     1      22.688  -0.942  54.512  1.00  0.00     0.131 A 
HETATM   14  C11 UNL     1      22.658  -0.331  53.269  1.00  0.00     0.007 A 
HETATM   15  C12 UNL     1      23.999   0.149  53.058  1.00  0.00     0.032 C 
HETATM   16  C13 UNL     1      25.235   0.158  52.641  1.00  0.00     0.088 C 
HETATM   17  N3  UNL     1      26.347   1.024  52.706  1.00  0.00    -0.378 N 
HETATM   18  C14 UNL     1      27.032   1.687  51.662  1.00  0.00     0.071 C 
HETATM   19  C15 UNL     1      26.220   2.631  51.248  1.00  0.00     0.082 C 
HETATM   20  C16 UNL     1      26.188   3.687  50.256  1.00  0.00     0.018 C 
HETATM   21 CL1  UNL     1      26.773   4.710  48.930  1.00  0.00    -0.088 Cl
HETATM   22  C17 UNL     1      24.951   4.139  50.561  1.00  0.00    -0.002 C 
HETATM   23  C18 UNL     1      24.064   3.597  51.621  1.00  0.00     0.063 C 
HETATM   24  H12 UNL     1      26.330   0.882  53.739  1.00  0.00     0.164 HD
ENDROOT
TORSDOF 0
ENDMDL
MODEL 3
REMARK VINA RESULT:      -8.0      3.149      4.880
REMARK  0 active torsions:
REMARK  status: ('A' for Active; 'I' for Inactive)
ROOT
HETATM    1  C1  UNL     1      21.671   0.974  48.604  1.00  0.00     0.044 C 
HETATM    2  C2  UNL     1      22.065   2.141  49.441  1.00  0.00    -0.069 C 
HETATM    3  C3  UNL     1      21.757   3.356  49.038  1.00  0.00    -0.022 C 
HETATM    4  C4  UNL     1      21.077   3.951  49.996  1.00  0.00     0.027 C 
HETATM    5  C5  UNL     1      22.163   4.668  50.642  1.00  0.00    -0.006 A 
HETATM    6 BR1  UNL     1      22.545   4.997  52.526  1.00  0.00    -0.122 Br
HETATM    7  C6  UNL     1      23.269   5.450  50.555  1.00  0.00     0.097 A 
HETATM    8  C7  UNL     1      24.502   6.302  50.731  1.00  0.00     0.081 C 
HETATM    9  C8  UNL     1      25.637   5.842  49.924  1.00  0.00     0.049 A 
HETATM   10  N1  UNL     1      26.069   6.827  49.127  1.00  0.00    -0.246 NA
HETATM   11  C9  UNL     1      27.079   6.771  48.260  1.00  0.00     0.232 A 
HETATM   12  N2  UNL     1      27.838   5.659  48.060  1.00  0.00    -0.253 NA
HETATM   13  C10 UNL     1      27.424   4.621  48.864  1.00  0.00     0.131 A 
HETATM   14  C11 UNL     1      26.368   4.716  49.756  1.00  0.00     0.007 A 
HETATM   15  C12 UNL     1      26.295   3.423  50.386  1.00  0.00     0.032 C 
HETATM   16  C13 UNL     1      26.500   2.493  51.276  1.00  0.00     0.088 C 
HETATM   17  N3  UNL     1      26.145   1.140  51.465  1.00  0.00    -0.378 N 
HETATM   18  C14 UNL     1      25.355   0.553  52.480  1.00  0.00     0.071 C 
HETATM   19  C15 UNL     1      24.122   0.925  52.230  1.00  0.00     0.082 C 
HETATM   20  C16 UNL     1      22.794   0.748  52.785  1.00  0.00     0.018 C 
HETATM   21 CL1  UNL     1      21.548   0.161  53.902  1.00  0.00    -0.088 Cl
HETATM   22  C17 UNL     1      22.150   1.502  51.866  1.00  0.00    -0.002 C 
HETATM   23  C18 UNL     1      22.780   2.202  50.718  1.00  0.00     0.063 C 
HETATM   24  H12 UNL     1      26.699   0.930  50.608  1.00  0.00     0.164 HD
ENDROOT
TORSDOF 0
ENDMDL
MODEL 4
REMARK VINA RESULT:      -7.3      2.098      2.927
REMARK  0 active torsions:
REMARK  status: ('A' for Active; 'I' for Inactive)
ROOT
HETATM    1  C1  UNL     1      21.954   3.106  47.077  1.00  0.00     0.044 C 
HETATM    2  C2  UNL     1      22.454   3.511  48.419  1.00  0.00    -0.069 C 
HETATM    3  C3  UNL     1      23.731   3.365  48.702  1.00  0.00    -0.022 C 
HETATM    4  C4  UNL     1      24.207   4.531  49.087  1.00  0.00     0.027 C 
HETATM    5  C5  UNL     1      24.087   4.369  50.525  1.00  0.00    -0.006 A 
HETATM    6 BR1  UNL     1      23.549   5.621  51.921  1.00  0.00    -0.122 Br
HETATM    7  C6  UNL     1      24.258   3.613  51.640  1.00  0.00     0.097 A 
HETATM    8  C7  UNL     1      24.341   2.987  53.011  1.00  0.00     0.081 C 
HETATM    9  C8  UNL     1      23.718   1.661  53.074  1.00  0.00     0.049 A 
HETATM   10  N1  UNL     1      24.602   0.753  53.504  1.00  0.00    -0.246 NA
HETATM   11  C9  UNL     1      24.390  -0.550  53.684  1.00  0.00     0.232 A 
HETATM   12  N2  UNL     1      23.196  -1.158  53.445  1.00  0.00    -0.253 NA
HETATM   13  C10 UNL     1      22.256  -0.254  52.999  1.00  0.00     0.131 A 
HETATM   14  C11 UNL     1      22.514   1.095  52.824  1.00  0.00     0.007 A 
HETATM   15  C12 UNL     1      21.269   1.656  52.367  1.00  0.00     0.032 C 
HETATM   16  C13 UNL     1      20.108   2.247  52.427  1.00  0.00     0.088 C 
HETATM   17  N3  UNL     1      19.091   2.632  51.528  1.00  0.00    -0.378 N 
HETATM   18  C14 UNL     1      18.623   3.925  51.202  1.00  0.00     0.071 C 
HETATM   19  C15 UNL     1      19.575   4.477  50.486  1.00  0.00     0.082 C 
HETATM   20  C16 UNL     1      19.846   5.730  49.809  1.00  0.00     0.018 C 
HETATM   21 CL1  UNL     1      19.551   7.383  49.239  1.00  0.00    -0.088 Cl
HETATM   22  C17 UNL     1      21.070   5.387  49.350  1.00  0.00    -0.002 C 
HETATM   23  C18 UNL     1      21.748   4.084  49.568  1.00  0.00     0.063 C 
HETATM   24  H12 UNL     1      18.955   1.617  51.330  1.00  0.00     0.164 HD
ENDROOT
TORSDOF 0
ENDMDL
MODEL 5
REMARK VINA RESULT:      -7.3      3.367      5.699
REMARK  0 active torsions:
REMARK  status: ('A' for Active; 'I' for Inactive)
ROOT
HETATM    1  C1  UNL     1      21.448   7.561  50.833  1.00  0.00     0.044 C 
HETATM    2  C2  UNL     1      21.528   6.287  50.066  1.00  0.00    -0.069 C 
HETATM    3  C3  UNL     1      20.478   5.495  50.021  1.00  0.00    -0.022 C 
HETATM    4  C4  UNL     1      20.179   5.272  48.758  1.00  0.00     0.027 C 
HETATM    5  C5  UNL     1      20.875   4.011  48.573  1.00  0.00    -0.006 A 
HETATM    6 BR1  UNL     1      21.911   3.322  47.070  1.00  0.00    -0.122 Br
HETATM    7  C6  UNL     1      21.183   2.764  49.012  1.00  0.00     0.097 A 
HETATM    8  C7  UNL     1      21.673   1.360  49.272  1.00  0.00     0.081 C 
HETATM    9  C8  UNL     1      22.290   1.204  50.594  1.00  0.00     0.049 A 
HETATM   10  N1  UNL     1      21.671   0.239  51.284  1.00  0.00    -0.246 NA
HETATM   11  C9  UNL     1      21.960  -0.177  52.516  1.00  0.00     0.232 A 
HETATM   12  N2  UNL     1      22.965   0.347  53.270  1.00  0.00    -0.253 NA
HETATM   13  C10 UNL     1      23.628   1.347  52.594  1.00  0.00     0.131 A 
HETATM   14  C11 UNL     1      23.299   1.752  51.311  1.00  0.00     0.007 A 
HETATM   15  C12 UNL     1      24.242   2.794  50.996  1.00  0.00     0.032 C 
HETATM   16  C13 UNL     1      25.318   3.354  50.516  1.00  0.00     0.088 C 
HETATM   17  N3  UNL     1      25.877   4.648  50.458  1.00  0.00    -0.378 N 
HETATM   18  C14 UNL     1      26.151   5.458  49.333  1.00  0.00     0.071 C 
HETATM   19  C15 UNL     1      24.981   5.857  48.889  1.00  0.00     0.082 C 
HETATM   20  C16 UNL     1      24.439   6.673  47.821  1.00  0.00     0.018 C 
HETATM   21 CL1  UNL     1      24.450   7.724  46.393  1.00  0.00    -0.088 Cl
HETATM   22  C17 UNL     1      23.139   6.504  48.154  1.00  0.00    -0.002 C 
HETATM   23  C18 UNL     1      22.630   5.704  49.295  1.00  0.00     0.063 C 
HETATM   24  H12 UNL     1      25.938   4.611  51.499  1.00  0.00     0.164 HD
ENDROOT
TORSDOF 0
ENDMDL
MODEL 6
REMARK VINA RESULT:      -6.8      4.523      7.037
REMARK  0 active torsions:
REMARK  status: ('A' for Active; 'I' for Inactive)
ROOT
HETATM    1  C1  UNL     1      22.477   1.862  47.455  1.00  0.00     0.044 C 
HETATM    2  C2  UNL     1      22.433   3.060  48.337  1.00  0.00    -0.069 C 
HETATM    3  C3  UNL     1      21.517   3.982  48.126  1.00  0.00    -0.022 C 
HETATM    4  C4  UNL     1      20.842   4.160  49.243  1.00  0.00     0.027 C 
HETATM    5  C5  UNL     1      21.566   5.301  49.774  1.00  0.00    -0.006 A 
HETATM    6 BR1  UNL     1      22.112   5.743  51.594  1.00  0.00    -0.122 Br
HETATM    7  C6  UNL     1      22.132   6.521  49.592  1.00  0.00     0.097 A 
HETATM    8  C7  UNL     1      22.826   7.860  49.654  1.00  0.00     0.081 C 
HETATM    9  C8  UNL     1      23.859   8.017  48.624  1.00  0.00     0.049 A 
HETATM   10  N1  UNL     1      23.610   9.101  47.879  1.00  0.00    -0.246 NA
HETATM   11  C9  UNL     1      24.334   9.553  46.856  1.00  0.00     0.232 A 
HETATM   12  N2  UNL     1      25.470   8.950  46.413  1.00  0.00    -0.253 NA
HETATM   13  C10 UNL     1      25.761   7.827  47.156  1.00  0.00     0.131 A 
HETATM   14  C11 UNL     1      24.985   7.387  48.215  1.00  0.00     0.007 A 
HETATM   15  C12 UNL     1      25.654   6.209  48.704  1.00  0.00     0.032 C 
HETATM   16  C13 UNL     1      26.445   5.479  49.440  1.00  0.00     0.088 C 
HETATM   17  N3  UNL     1      26.813   4.120  49.537  1.00  0.00    -0.378 N 
HETATM   18  C14 UNL     1      26.611   3.208  50.598  1.00  0.00     0.071 C 
HETATM   19  C15 UNL     1      25.325   2.943  50.598  1.00  0.00     0.082 C 
HETATM   20  C16 UNL     1      24.376   2.139  51.342  1.00  0.00     0.018 C 
HETATM   21 CL1  UNL     1      23.802   1.005  52.579  1.00  0.00    -0.088 Cl
HETATM   22  C17 UNL     1      23.286   2.503  50.630  1.00  0.00    -0.002 C 
HETATM   23  C18 UNL     1      23.271   3.438  49.477  1.00  0.00     0.063 C 
HETATM   24  H12 UNL     1      27.219   4.217  48.581  1.00  0.00     0.164 HD
ENDROOT
TORSDOF 0
ENDMDL
MODEL 7
REMARK VINA RESULT:      -6.8      4.121      5.694
REMARK  0 active torsions:
REMARK  status: ('A' for Active; 'I' for Inactive)
ROOT
HETATM    1  C1  UNL     1      21.723   3.783  46.134  1.00  0.00     0.044 C 
HETATM    2  C2  UNL     1      22.251   4.843  47.036  1.00  0.00    -0.069 C 
HETATM    3  C3  UNL     1      22.644   5.989  46.522  1.00  0.00    -0.022 C 
HETATM    4  C4  UNL     1      21.990   6.961  47.125  1.00  0.00     0.027 C 
HETATM    5  C5  UNL     1      22.976   7.316  48.130  1.00  0.00    -0.006 A 
HETATM    6 BR1  UNL     1      22.778   7.810  50.007  1.00  0.00    -0.122 Br
HETATM    7  C6  UNL     1      24.262   7.590  48.469  1.00  0.00     0.097 A 
HETATM    8  C7  UNL     1      25.591   7.927  49.098  1.00  0.00     0.081 C 
HETATM    9  C8  UNL     1      26.630   6.933  48.809  1.00  0.00     0.049 A 
HETATM   10  N1  UNL     1      27.684   7.518  48.226  1.00  0.00    -0.246 NA
HETATM   11  C9  UNL     1      28.809   6.927  47.826  1.00  0.00     0.232 A 
HETATM   12  N2  UNL     1      29.048   5.594  47.962  1.00  0.00    -0.253 NA
HETATM   13  C10 UNL     1      27.984   4.954  48.559  1.00  0.00     0.131 A 
HETATM   14  C11 UNL     1      26.829   5.603  48.963  1.00  0.00     0.007 A 
HETATM   15  C12 UNL     1      26.005   4.572  49.539  1.00  0.00     0.032 C 
HETATM   16  C13 UNL     1      25.476   3.810  50.456  1.00  0.00     0.088 C 
HETATM   17  N3  UNL     1      24.545   2.752  50.517  1.00  0.00    -0.378 N 
HETATM   18  C14 UNL     1      23.283   2.702  51.152  1.00  0.00     0.071 C 
HETATM   19  C15 UNL     1      22.492   3.463  50.431  1.00  0.00     0.082 C 
HETATM   20  C16 UNL     1      21.112   3.907  50.425  1.00  0.00     0.018 C 
HETATM   21 CL1  UNL     1      19.432   4.049  50.975  1.00  0.00    -0.088 Cl
HETATM   22  C17 UNL     1      21.209   4.669  49.312  1.00  0.00    -0.002 C 
HETATM   23  C18 UNL     1      22.431   4.858  48.490  1.00  0.00     0.063 C 
HETATM   24  H12 UNL     1      25.220   2.196  49.949  1.00  0.00     0.164 HD
ENDROOT
TORSDOF 0
ENDMDL
MODEL 8
REMARK VINA RESULT:      -6.6     10.750     13.335
REMARK  0 active torsions:
REMARK  status: ('A' for Active; 'I' for Inactive)
ROOT
HETATM    1  C1  UNL     1      34.688   4.417  45.025  1.00  0.00     0.044 C 
HETATM    2  C2  UNL     1      33.673   4.870  46.015  1.00  0.00    -0.069 C 
HETATM    3  C3  UNL     1      32.491   4.292  46.036  1.00  0.00    -0.022 C 
HETATM    4  C4  UNL     1      32.269   3.843  47.254  1.00  0.00     0.027 C 
HETATM    5  C5  UNL     1      31.499   4.957  47.777  1.00  0.00    -0.006 A 
HETATM    6 BR1  UNL     1      31.511   5.820  49.527  1.00  0.00    -0.122 Br
HETATM    7  C6  UNL     1      30.505   5.870  47.629  1.00  0.00     0.097 A 
HETATM    8  C7  UNL     1      29.474   6.968  47.714  1.00  0.00     0.081 C 
HETATM    9  C8  UNL     1      29.504   7.873  46.559  1.00  0.00     0.049 A 
HETATM   10  N1  UNL     1      28.304   7.913  45.969  1.00  0.00    -0.246 NA
HETATM   11  C9  UNL     1      27.962   8.625  44.896  1.00  0.00     0.232 A 
HETATM   12  N2  UNL     1      28.822   9.441  44.229  1.00  0.00    -0.253 NA
HETATM   13  C10 UNL     1      30.073   9.428  44.808  1.00  0.00     0.131 A 
HETATM   14  C11 UNL     1      30.392   8.674  45.925  1.00  0.00     0.007 A 
HETATM   15  C12 UNL     1      31.776   8.969  46.190  1.00  0.00     0.032 C 
HETATM   16  C13 UNL     1      32.813   9.552  46.724  1.00  0.00     0.088 C 
HETATM   17  N3  UNL     1      34.218   9.460  46.632  1.00  0.00    -0.378 N 
HETATM   18  C14 UNL     1      35.161   9.090  47.618  1.00  0.00     0.071 C 
HETATM   19  C15 UNL     1      35.007   7.797  47.788  1.00  0.00     0.082 C 
HETATM   20  C16 UNL     1      35.570   6.726  48.587  1.00  0.00     0.018 C 
HETATM   21 CL1  UNL     1      36.629   5.953  49.781  1.00  0.00    -0.088 Cl
HETATM   22  C17 UNL     1      34.786   5.744  48.087  1.00  0.00    -0.002 C 
HETATM   23  C18 UNL     1      33.741   5.909  47.046  1.00  0.00     0.063 C 
HETATM   24  H12 UNL     1      34.120   9.765  45.639  1.00  0.00     0.164 HD
ENDROOT
TORSDOF 0
ENDMDL
MODEL 9
REMARK VINA RESULT:      -6.6      9.544     11.750
REMARK  0 active torsions:
REMARK  status: ('A' for Active; 'I' for Inactive)
ROOT
HETATM    1  C1  UNL     1      30.902  11.947  48.847  1.00  0.00     0.044 C 
HETATM    2  C2  UNL     1      30.200  10.667  48.555  1.00  0.00    -0.069 C 
HETATM    3  C3  UNL     1      30.028   9.792  49.523  1.00  0.00    -0.022 C 
HETATM    4  C4  UNL     1      28.743   9.517  49.612  1.00  0.00     0.027 C 
HETATM    5  C5  UNL     1      28.705   8.312  48.802  1.00  0.00    -0.006 A 
HETATM    6 BR1  UNL     1      27.396   7.676  47.503  1.00  0.00    -0.122 Br
HETATM    7  C6  UNL     1      29.228   7.104  48.469  1.00  0.00     0.097 A 
HETATM    8  C7  UNL     1      29.605   5.752  47.917  1.00  0.00     0.081 C 
HETATM    9  C8  UNL     1      31.008   5.676  47.494  1.00  0.00     0.049 A 
HETATM   10  N1  UNL     1      31.632   4.679  48.133  1.00  0.00    -0.246 NA
HETATM   11  C9  UNL     1      32.907   4.316  48.001  1.00  0.00     0.232 A 
HETATM   12  N2  UNL     1      33.782   4.936  47.163  1.00  0.00    -0.253 NA
HETATM   13  C10 UNL     1      33.177   5.971  46.485  1.00  0.00     0.131 A 
HETATM   14  C11 UNL     1      31.846   6.319  46.649  1.00  0.00     0.007 A 
HETATM   15  C12 UNL     1      31.638   7.426  45.752  1.00  0.00     0.032 C 
HETATM   16  C13 UNL     1      31.303   8.061  44.662  1.00  0.00     0.088 C 
HETATM   17  N3  UNL     1      31.284   9.395  44.202  1.00  0.00    -0.378 N 
HETATM   18  C14 UNL     1      30.184  10.199  43.826  1.00  0.00     0.071 C 
HETATM   19  C15 UNL     1      29.560  10.491  44.943  1.00  0.00     0.082 C 
HETATM   20  C16 UNL     1      28.396  11.237  45.380  1.00  0.00     0.018 C 
HETATM   21 CL1  UNL     1      26.950  12.253  45.236  1.00  0.00    -0.088 Cl
HETATM   22  C17 UNL     1      28.539  10.971  46.698  1.00  0.00    -0.002 C 
HETATM   23  C18 UNL     1      29.620  10.157  47.310  1.00  0.00     0.063 C 
HETATM   24  H12 UNL     1      32.323   9.386  44.294  1.00  0.00     0.164 HD
ENDROOT
TORSDOF 0
ENDMDL
