MODEL 1
REMARK VINA RESULT:      -7.6      0.000      0.000
REMARK  3 active torsions:
REMARK  status: ('A' for Active; 'I' for Inactive)
REMARK    1  A    between atoms: C2_2  and  P1_3 
REMARK    2  A    between atoms: P1_3  and  C3_4 
REMARK    3  A    between atoms: C3_4  and  C4_5 
ROOT
HETATM    1  C4  UNL     1      26.748   0.588  54.414  1.00  0.00     0.028 C 
HETATM    2  C5  UNL     1      26.521   1.750  53.833  1.00  0.00     0.036 C 
HETATM    3  C6  UNL     1      25.432   1.680  52.922  1.00  0.00    -0.022 C 
HETATM    4  C7  UNL     1      24.833   2.244  51.857  1.00  0.00     0.091 C 
HETATM    5  N1  UNL     1      23.639   1.797  51.199  1.00  0.00    -0.398 N 
HETATM    6  C8  UNL     1      22.460   1.359  50.552  1.00  0.00     0.120 C 
HETATM    7  C9  UNL     1      21.375   0.788  51.451  1.00  0.00     0.000 C 
HETATM    8  C10 UNL     1      20.291   0.400  52.165  1.00  0.00     0.093 A 
HETATM    9  C11 UNL     1      19.624  -0.452  53.232  1.00  0.00     0.178 A 
HETATM   10  C12 UNL     1      20.851  -0.775  53.275  1.00  0.00     0.118 A 
HETATM   11  F1  UNL     1      19.724  -1.102  53.915  1.00  0.00    -0.384 F 
HETATM   12  C13 UNL     1      22.122  -1.028  53.766  1.00  0.00     0.013 C 
HETATM   13  C14 UNL     1      22.886  -1.035  54.792  1.00  0.00    -0.012 C 
HETATM   14  C15 UNL     1      23.970  -1.134  55.775  1.00  0.00     0.137 C 
HETATM   15  N2  UNL     1      25.260  -1.340  55.088  1.00  0.00    -0.234 NA
HETATM   16  N3  UNL     1      25.529  -0.144  54.337  1.00  0.00    -0.312 N 
HETATM   17  C16 UNL     1      24.618   0.498  53.426  1.00  0.00     0.183 C 
HETATM   18  H9  UNL     1      24.346   1.078  50.838  1.00  0.00     0.158 HD
HETATM   19  H19 UNL     1      25.248  -2.170  54.457  1.00  0.00     0.147 HD
ENDROOT
BRANCH   1  20
HETATM   20  C3  UNL     1      28.077   0.287  54.993  1.00  0.00     0.093 C 
BRANCH  20  21
HETATM   21  P1  UNL     1      29.180  -0.534  53.708  1.00  0.00    -0.101 P 
HETATM   22  H4  UNL     1      29.507   0.377  52.642  1.00  0.00     0.062 HD
BRANCH  21  23
HETATM   23  C2  UNL     1      28.253  -1.967  52.961  1.00  0.00    -0.006 C 
HETATM   24  C1  UNL     1      27.174  -2.442  52.324  1.00  0.00     0.012 C 
ENDBRANCH  21  23
ENDBRANCH  20  21
ENDBRANCH   1  20
TORSDOF 3
ENDMDL
MODEL 2
REMARK VINA RESULT:      -7.5      2.403      3.973
REMARK  3 active torsions:
REMARK  status: ('A' for Active; 'I' for Inactive)
REMARK    1  A    between atoms: C2_2  and  P1_3 
REMARK    2  A    between atoms: P1_3  and  C3_4 
REMARK    3  A    between atoms: C3_4  and  C4_5 
ROOT
HETATM    1  C4  UNL     1      26.281   0.439  53.989  1.00  0.00     0.028 C 
HETATM    2  C5  UNL     1      25.570  -0.668  53.894  1.00  0.00     0.036 C 
HETATM    3  C6  UNL     1      24.297  -0.429  53.309  1.00  0.00    -0.022 C 
HETATM    4  C7  UNL     1      23.039  -0.882  53.153  1.00  0.00     0.091 C 
HETATM    5  N1  UNL     1      21.982  -0.259  52.411  1.00  0.00    -0.398 N 
HETATM    6  C8  UNL     1      20.939   0.353  51.675  1.00  0.00     0.120 C 
HETATM    7  C9  UNL     1      21.347   1.051  50.388  1.00  0.00     0.000 C 
HETATM    8  C10 UNL     1      21.574   1.571  49.158  1.00  0.00     0.093 A 
HETATM    9  C11 UNL     1      22.329   2.486  48.208  1.00  0.00     0.178 A 
HETATM   10  C12 UNL     1      22.903   2.634  49.331  1.00  0.00     0.118 A 
HETATM   11  F1  UNL     1      23.040   3.101  48.087  1.00  0.00    -0.384 F 
HETATM   12  C13 UNL     1      23.896   2.697  50.297  1.00  0.00     0.013 C 
HETATM   13  C14 UNL     1      25.144   2.577  50.551  1.00  0.00    -0.012 C 
HETATM   14  C15 UNL     1      26.493   2.503  51.121  1.00  0.00     0.137 C 
HETATM   15  N2  UNL     1      26.422   2.541  52.595  1.00  0.00    -0.234 NA
HETATM   16  N3  UNL     1      25.761   1.334  53.013  1.00  0.00    -0.312 N 
HETATM   17  C16 UNL     1      24.507   0.845  52.504  1.00  0.00     0.183 C 
HETATM   18  H9  UNL     1      22.004   0.362  53.283  1.00  0.00     0.158 HD
HETATM   19  H19 UNL     1      25.910   3.377  52.949  1.00  0.00     0.147 HD
ENDROOT
BRANCH   1  20
HETATM   20  C3  UNL     1      27.381   0.540  54.975  1.00  0.00     0.093 C 
BRANCH  20  21
HETATM   21  P1  UNL     1      29.047   0.546  54.101  1.00  0.00    -0.101 P 
HETATM   22  H4  UNL     1      29.020   1.386  52.933  1.00  0.00     0.062 HD
BRANCH  21  23
HETATM   23  C2  UNL     1      29.426  -1.190  53.539  1.00  0.00    -0.006 C 
HETATM   24  C1  UNL     1      29.001  -2.403  53.162  1.00  0.00     0.012 C 
ENDBRANCH  21  23
ENDBRANCH  20  21
ENDBRANCH   1  20
TORSDOF 3
ENDMDL
MODEL 3
REMARK VINA RESULT:      -7.3      3.337      5.166
REMARK  3 active torsions:
REMARK  status: ('A' for Active; 'I' for Inactive)
REMARK    1  A    between atoms: C2_2  and  P1_3 
REMARK    2  A    between atoms: P1_3  and  C3_4 
REMARK    3  A    between atoms: C3_4  and  C4_5 
ROOT
HETATM    1  C4  UNL     1      23.598   5.007  51.523  1.00  0.00     0.028 C 
HETATM    2  C5  UNL     1      22.358   5.250  51.897  1.00  0.00     0.036 C 
HETATM    3  C6  UNL     1      21.603   4.054  52.033  1.00  0.00    -0.022 C 
HETATM    4  C7  UNL     1      20.372   3.511  52.072  1.00  0.00     0.091 C 
HETATM    5  N1  UNL     1      20.043   2.125  52.240  1.00  0.00    -0.398 N 
HETATM    6  C8  UNL     1      19.718   0.758  52.410  1.00  0.00     0.120 C 
HETATM    7  C9  UNL     1      20.606  -0.029  53.358  1.00  0.00     0.000 C 
HETATM    8  C10 UNL     1      21.238  -0.786  54.288  1.00  0.00     0.093 A 
HETATM    9  C11 UNL     1      22.496  -1.350  54.928  1.00  0.00     0.178 A 
HETATM   10  C12 UNL     1      22.913  -0.589  54.002  1.00  0.00     0.118 A 
HETATM   11  F1  UNL     1      23.443  -1.372  54.945  1.00  0.00    -0.384 F 
HETATM   12  C13 UNL     1      23.610   0.413  53.344  1.00  0.00     0.013 C 
HETATM   13  C14 UNL     1      24.455   1.367  53.447  1.00  0.00    -0.012 C 
HETATM   14  C15 UNL     1      25.376   2.495  53.274  1.00  0.00     0.137 C 
HETATM   15  N2  UNL     1      25.197   3.094  51.936  1.00  0.00    -0.234 NA
HETATM   16  N3  UNL     1      23.878   3.666  51.907  1.00  0.00    -0.312 N 
HETATM   17  C16 UNL     1      22.662   2.988  52.276  1.00  0.00     0.183 C 
HETATM   18  H9  UNL     1      20.371   2.129  51.220  1.00  0.00     0.158 HD
HETATM   19  H19 UNL     1      25.308   2.398  51.169  1.00  0.00     0.147 HD
ENDROOT
BRANCH   1  20
HETATM   20  C3  UNL     1      24.399   6.058  50.855  1.00  0.00     0.093 C 
BRANCH  20  21
HETATM   21  P1  UNL     1      24.804   5.550  49.089  1.00  0.00    -0.101 P 
HETATM   22  H4  UNL     1      23.953   4.478  48.646  1.00  0.00     0.062 HD
BRANCH  21  23
HETATM   23  C2  UNL     1      26.562   4.935  49.038  1.00  0.00    -0.006 C 
HETATM   24  C1  UNL     1      27.813   5.041  48.568  1.00  0.00     0.012 C 
ENDBRANCH  21  23
ENDBRANCH  20  21
ENDBRANCH   1  20
TORSDOF 3
ENDMDL
MODEL 4
REMARK VINA RESULT:      -7.2      1.763      2.305
REMARK  3 active torsions:
REMARK  status: ('A' for Active; 'I' for Inactive)
REMARK    1  A    between atoms: C2_2  and  P1_3 
REMARK    2  A    between atoms: P1_3  and  C3_4 
REMARK    3  A    between atoms: C3_4  and  C4_5 
ROOT
HETATM    1  C4  UNL     1      24.814   0.528  53.605  1.00  0.00     0.028 C 
HETATM    2  C5  UNL     1      24.855   1.594  52.832  1.00  0.00     0.036 C 
HETATM    3  C6  UNL     1      23.867   1.544  51.811  1.00  0.00    -0.022 C 
HETATM    4  C7  UNL     1      23.485   2.007  50.607  1.00  0.00     0.091 C 
HETATM    5  N1  UNL     1      22.302   1.650  49.879  1.00  0.00    -0.398 N 
HETATM    6  C8  UNL     1      21.132   1.301  49.162  1.00  0.00     0.120 C 
HETATM    7  C9  UNL     1      19.881   1.071  49.993  1.00  0.00     0.000 C 
HETATM    8  C10 UNL     1      18.680   0.987  50.616  1.00  0.00     0.093 A 
HETATM    9  C11 UNL     1      17.771   0.447  51.706  1.00  0.00     0.178 A 
HETATM   10  C12 UNL     1      18.911  -0.055  51.951  1.00  0.00     0.118 A 
HETATM   11  F1  UNL     1      17.687  -0.086  52.486  1.00  0.00    -0.384 F 
HETATM   12  C13 UNL     1      20.063  -0.420  52.631  1.00  0.00     0.013 C 
HETATM   13  C14 UNL     1      20.709  -0.374  53.734  1.00  0.00    -0.012 C 
HETATM   14  C15 UNL     1      21.655  -0.475  54.850  1.00  0.00     0.137 C 
HETATM   15  N2  UNL     1      22.950  -0.997  54.369  1.00  0.00    -0.234 NA
HETATM   16  N3  UNL     1      23.500  -0.004  53.487  1.00  0.00    -0.312 N 
HETATM   17  C16 UNL     1      22.811   0.610  52.382  1.00  0.00     0.183 C 
HETATM   18  H9  UNL     1      22.902   0.776  49.723  1.00  0.00     0.158 HD
HETATM   19  H19 UNL     1      22.853  -1.909  53.875  1.00  0.00     0.147 HD
ENDROOT
BRANCH   1  20
HETATM   20  C3  UNL     1      26.006   0.122  54.385  1.00  0.00     0.093 C 
BRANCH  20  21
HETATM   21  P1  UNL     1      27.548   0.964  53.712  1.00  0.00    -0.101 P 
HETATM   22  H4  UNL     1      27.454   1.167  52.290  1.00  0.00     0.062 HD
BRANCH  21  23
HETATM   23  C2  UNL     1      29.013  -0.143  54.028  1.00  0.00    -0.006 C 
HETATM   24  C1  UNL     1      29.860  -1.091  53.605  1.00  0.00     0.012 C 
ENDBRANCH  21  23
ENDBRANCH  20  21
ENDBRANCH   1  20
TORSDOF 3
ENDMDL
MODEL 5
REMARK VINA RESULT:      -7.0      3.669      6.579
REMARK  3 active torsions:
REMARK  status: ('A' for Active; 'I' for Inactive)
REMARK    1  A    between atoms: C2_2  and  P1_3 
REMARK    2  A    between atoms: P1_3  and  C3_4 
REMARK    3  A    between atoms: C3_4  and  C4_5 
ROOT
HETATM    1  C4  UNL     1      23.052   4.192  50.191  1.00  0.00     0.028 C 
HETATM    2  C5  UNL     1      22.333   4.034  51.285  1.00  0.00     0.036 C 
HETATM    3  C6  UNL     1      22.565   2.769  51.890  1.00  0.00    -0.022 C 
HETATM    4  C7  UNL     1      22.088   1.831  52.731  1.00  0.00     0.091 C 
HETATM    5  N1  UNL     1      22.711   0.588  53.082  1.00  0.00    -0.398 N 
HETATM    6  C8  UNL     1      23.328  -0.636  53.433  1.00  0.00     0.120 C 
HETATM    7  C9  UNL     1      24.840  -0.610  53.572  1.00  0.00     0.000 C 
HETATM    8  C10 UNL     1      26.162  -0.666  53.866  1.00  0.00     0.093 A 
HETATM    9  C11 UNL     1      27.622  -0.413  53.529  1.00  0.00     0.178 A 
HETATM   10  C12 UNL     1      26.972   0.069  52.551  1.00  0.00     0.118 A 
HETATM   11  F1  UNL     1      28.250  -0.046  52.921  1.00  0.00    -0.384 F 
HETATM   12  C13 UNL     1      26.520   0.961  51.590  1.00  0.00     0.013 C 
HETATM   13  C14 UNL     1      26.608   2.142  51.108  1.00  0.00    -0.012 C 
HETATM   14  C15 UNL     1      26.499   3.403  50.366  1.00  0.00     0.137 C 
HETATM   15  N2  UNL     1      25.327   3.362  49.469  1.00  0.00    -0.234 NA
HETATM   16  N3  UNL     1      24.160   3.307  50.308  1.00  0.00    -0.312 N 
HETATM   17  C16 UNL     1      23.947   2.379  51.388  1.00  0.00     0.183 C 
HETATM   18  H9  UNL     1      22.357   0.361  52.097  1.00  0.00     0.158 HD
HETATM   19  H19 UNL     1      25.349   2.546  48.821  1.00  0.00     0.147 HD
ENDROOT
BRANCH   1  20
HETATM   20  C3  UNL     1      22.635   5.164  49.155  1.00  0.00     0.093 C 
BRANCH  20  21
HETATM   21  P1  UNL     1      22.091   4.264  47.594  1.00  0.00    -0.101 P 
HETATM   22  H4  UNL     1      21.035   4.975  46.923  1.00  0.00     0.062 HD
BRANCH  21  23
HETATM   23  C2  UNL     1      21.427   2.591  48.077  1.00  0.00    -0.006 C 
HETATM   24  C1  UNL     1      21.645   1.314  48.419  1.00  0.00     0.012 C 
ENDBRANCH  21  23
ENDBRANCH  20  21
ENDBRANCH   1  20
TORSDOF 3
ENDMDL
MODEL 6
REMARK VINA RESULT:      -6.9      3.611      6.332
REMARK  3 active torsions:
REMARK  status: ('A' for Active; 'I' for Inactive)
REMARK    1  A    between atoms: C2_2  and  P1_3 
REMARK    2  A    between atoms: P1_3  and  C3_4 
REMARK    3  A    between atoms: C3_4  and  C4_5 
ROOT
HETATM    1  C4  UNL     1      20.196   1.556  51.395  1.00  0.00     0.028 C 
HETATM    2  C5  UNL     1      20.760   1.902  50.255  1.00  0.00     0.036 C 
HETATM    3  C6  UNL     1      22.151   2.149  50.408  1.00  0.00    -0.022 C 
HETATM    4  C7  UNL     1      23.240   2.750  49.892  1.00  0.00     0.091 C 
HETATM    5  N1  UNL     1      24.570   2.739  50.429  1.00  0.00    -0.398 N 
HETATM    6  C8  UNL     1      25.883   2.725  50.957  1.00  0.00     0.120 C 
HETATM    7  C9  UNL     1      26.330   1.427  51.607  1.00  0.00     0.000 C 
HETATM    8  C10 UNL     1      26.881   0.280  52.075  1.00  0.00     0.093 A 
HETATM    9  C11 UNL     1      26.866  -0.945  52.974  1.00  0.00     0.178 A 
HETATM   10  C12 UNL     1      25.764  -0.356  53.203  1.00  0.00     0.118 A 
HETATM   11  F1  UNL     1      26.393  -1.461  53.614  1.00  0.00    -0.384 F 
HETATM   12  C13 UNL     1      24.404  -0.136  53.358  1.00  0.00     0.013 C 
HETATM   13  C14 UNL     1      23.230  -0.641  53.306  1.00  0.00    -0.012 C 
HETATM   14  C15 UNL     1      21.796  -0.947  53.322  1.00  0.00     0.137 C 
HETATM   15  N2  UNL     1      21.014   0.301  53.430  1.00  0.00    -0.234 NA
HETATM   16  N3  UNL     1      21.237   1.041  52.217  1.00  0.00    -0.312 N 
HETATM   17  C16 UNL     1      22.523   1.350  51.648  1.00  0.00     0.183 C 
HETATM   18  H9  UNL     1      24.093   3.431  51.093  1.00  0.00     0.158 HD
HETATM   19  H19 UNL     1      21.285   0.871  54.259  1.00  0.00     0.147 HD
ENDROOT
BRANCH   1  20
HETATM   20  C3  UNL     1      18.739   1.731  51.594  1.00  0.00     0.093 C 
BRANCH  20  21
HETATM   21  P1  UNL     1      17.821   0.153  51.139  1.00  0.00    -0.101 P 
HETATM   22  H4  UNL     1      16.506   0.442  50.630  1.00  0.00     0.062 HD
BRANCH  21  23
HETATM   23  C2  UNL     1      17.617  -0.878  52.678  1.00  0.00    -0.006 C 
HETATM   24  C1  UNL     1      17.992  -1.922  53.430  1.00  0.00     0.012 C 
ENDBRANCH  21  23
ENDBRANCH  20  21
ENDBRANCH   1  20
TORSDOF 3
ENDMDL
MODEL 7
REMARK VINA RESULT:      -6.9      3.948      6.958
REMARK  3 active torsions:
REMARK  status: ('A' for Active; 'I' for Inactive)
REMARK    1  A    between atoms: C2_2  and  P1_3 
REMARK    2  A    between atoms: P1_3  and  C3_4 
REMARK    3  A    between atoms: C3_4  and  C4_5 
ROOT
HETATM    1  C4  UNL     1      18.882   0.116  51.878  1.00  0.00     0.028 C 
HETATM    2  C5  UNL     1      19.373   0.341  50.676  1.00  0.00     0.036 C 
HETATM    3  C6  UNL     1      20.689   0.874  50.734  1.00  0.00    -0.022 C 
HETATM    4  C7  UNL     1      21.642   1.563  50.079  1.00  0.00     0.091 C 
HETATM    5  N1  UNL     1      22.946   1.910  50.565  1.00  0.00    -0.398 N 
HETATM    6  C8  UNL     1      24.234   2.249  51.043  1.00  0.00     0.120 C 
HETATM    7  C9  UNL     1      24.922   1.209  51.910  1.00  0.00     0.000 C 
HETATM    8  C10 UNL     1      25.684   0.300  52.567  1.00  0.00     0.093 A 
HETATM    9  C11 UNL     1      25.903  -0.711  53.680  1.00  0.00     0.178 A 
HETATM   10  C12 UNL     1      24.707  -0.312  53.830  1.00  0.00     0.118 A 
HETATM   11  F1  UNL     1      25.537  -1.176  54.421  1.00  0.00    -0.384 F 
HETATM   12  C13 UNL     1      23.329  -0.331  53.986  1.00  0.00     0.013 C 
HETATM   13  C14 UNL     1      22.277  -1.052  54.068  1.00  0.00    -0.012 C 
HETATM   14  C15 UNL     1      20.929  -1.619  54.188  1.00  0.00     0.137 C 
HETATM   15  N2  UNL     1      19.919  -0.547  54.085  1.00  0.00    -0.234 NA
HETATM   16  N3  UNL     1      19.999  -0.023  52.748  1.00  0.00    -0.312 N 
HETATM   17  C16 UNL     1      21.203   0.412  52.089  1.00  0.00     0.183 C 
HETATM   18  H9  UNL     1      22.341   2.612  51.103  1.00  0.00     0.158 HD
HETATM   19  H19 UNL     1      20.070   0.212  54.783  1.00  0.00     0.147 HD
ENDROOT
BRANCH   1  20
HETATM   20  C3  UNL     1      17.418   0.044  52.088  1.00  0.00     0.093 C 
BRANCH  20  21
HETATM   21  P1  UNL     1      16.528   1.214  50.914  1.00  0.00    -0.101 P 
HETATM   22  H4  UNL     1      17.096   1.159  49.592  1.00  0.00     0.062 HD
BRANCH  21  23
HETATM   23  C2  UNL     1      16.735   2.955  51.545  1.00  0.00    -0.006 C 
HETATM   24  C1  UNL     1      16.194   4.087  52.017  1.00  0.00     0.012 C 
ENDBRANCH  21  23
ENDBRANCH  20  21
ENDBRANCH   1  20
TORSDOF 3
ENDMDL
MODEL 8
REMARK VINA RESULT:      -6.8      3.526      5.944
REMARK  3 active torsions:
REMARK  status: ('A' for Active; 'I' for Inactive)
REMARK    1  A    between atoms: C2_2  and  P1_3 
REMARK    2  A    between atoms: P1_3  and  C3_4 
REMARK    3  A    between atoms: C3_4  and  C4_5 
ROOT
HETATM    1  C4  UNL     1      25.402   4.315  49.786  1.00  0.00     0.028 C 
HETATM    2  C5  UNL     1      26.484   3.574  49.921  1.00  0.00     0.036 C 
HETATM    3  C6  UNL     1      26.418   2.748  51.075  1.00  0.00    -0.022 C 
HETATM    4  C7  UNL     1      27.119   2.030  51.973  1.00  0.00     0.091 C 
HETATM    5  N1  UNL     1      26.596   1.287  53.083  1.00  0.00    -0.398 N 
HETATM    6  C8  UNL     1      26.080   0.550  54.175  1.00  0.00     0.120 C 
HETATM    7  C9  UNL     1      24.756  -0.158  53.941  1.00  0.00     0.000 C 
HETATM    8  C10 UNL     1      23.663  -0.946  53.796  1.00  0.00     0.093 A 
HETATM    9  C11 UNL     1      22.214  -1.167  53.394  1.00  0.00     0.178 A 
HETATM   10  C12 UNL     1      22.453   0.046  53.105  1.00  0.00     0.118 A 
HETATM   11  F1  UNL     1      21.425  -0.802  53.015  1.00  0.00    -0.384 F 
HETATM   12  C13 UNL     1      22.549   1.226  52.383  1.00  0.00     0.013 C 
HETATM   13  C14 UNL     1      22.365   1.805  51.257  1.00  0.00    -0.012 C 
HETATM   14  C15 UNL     1      22.264   2.706  50.105  1.00  0.00     0.137 C 
HETATM   15  N2  UNL     1      22.972   3.971  50.388  1.00  0.00    -0.234 NA
HETATM   16  N3  UNL     1      24.369   3.650  50.505  1.00  0.00    -0.312 N 
HETATM   17  C16 UNL     1      24.925   2.614  51.335  1.00  0.00     0.183 C 
HETATM   18  H9  UNL     1      26.508   2.288  53.455  1.00  0.00     0.158 HD
HETATM   19  H19 UNL     1      22.631   4.433  51.258  1.00  0.00     0.147 HD
ENDROOT
BRANCH   1  20
HETATM   20  C3  UNL     1      25.442   5.562  48.990  1.00  0.00     0.093 C 
BRANCH  20  21
HETATM   21  P1  UNL     1      25.237   7.061  50.108  1.00  0.00    -0.101 P 
HETATM   22  H4  UNL     1      24.029   7.781  49.802  1.00  0.00     0.062 HD
BRANCH  21  23
HETATM   23  C2  UNL     1      26.670   8.216  49.819  1.00  0.00    -0.006 C 
HETATM   24  C1  UNL     1      27.411   9.263  50.210  1.00  0.00     0.012 C 
ENDBRANCH  21  23
ENDBRANCH  20  21
ENDBRANCH   1  20
TORSDOF 3
ENDMDL
MODEL 9
REMARK VINA RESULT:      -6.6      3.172      5.291
REMARK  3 active torsions:
REMARK  status: ('A' for Active; 'I' for Inactive)
REMARK    1  A    between atoms: C2_2  and  P1_3 
REMARK    2  A    between atoms: P1_3  and  C3_4 
REMARK    3  A    between atoms: C3_4  and  C4_5 
ROOT
HETATM    1  C4  UNL     1      23.940   4.389  51.207  1.00  0.00     0.028 C 
HETATM    2  C5  UNL     1      24.778   3.423  50.884  1.00  0.00     0.036 C 
HETATM    3  C6  UNL     1      24.652   2.303  51.749  1.00  0.00    -0.022 C 
HETATM    4  C7  UNL     1      25.246   1.195  52.231  1.00  0.00     0.091 C 
HETATM    5  N1  UNL     1      24.703   0.267  53.181  1.00  0.00    -0.398 N 
HETATM    6  C8  UNL     1      24.166  -0.651  54.114  1.00  0.00     0.120 C 
HETATM    7  C9  UNL     1      22.678  -0.931  53.999  1.00  0.00     0.000 C 
HETATM    8  C10 UNL     1      21.398  -1.365  53.894  1.00  0.00     0.093 A 
HETATM    9  C11 UNL     1      19.903  -1.115  53.784  1.00  0.00     0.178 A 
HETATM   10  C12 UNL     1      20.429   0.041  53.794  1.00  0.00     0.118 A 
HETATM   11  F1  UNL     1      19.202  -0.482  53.709  1.00  0.00    -0.384 F 
HETATM   12  C13 UNL     1      20.745   1.339  53.425  1.00  0.00     0.013 C 
HETATM   13  C14 UNL     1      20.569   2.277  52.574  1.00  0.00    -0.012 C 
HETATM   14  C15 UNL     1      20.559   3.504  51.770  1.00  0.00     0.137 C 
HETATM   15  N2  UNL     1      21.627   4.416  52.223  1.00  0.00    -0.234 NA
HETATM   16  N3  UNL     1      22.879   3.773  51.928  1.00  0.00    -0.312 N 
HETATM   17  C16 UNL     1      23.236   2.427  52.292  1.00  0.00     0.183 C 
HETATM   18  H9  UNL     1      24.956   1.086  53.825  1.00  0.00     0.158 HD
HETATM   19  H19 UNL     1      21.560   4.633  53.240  1.00  0.00     0.147 HD
ENDROOT
BRANCH   1  20
HETATM   20  C3  UNL     1      24.212   5.785  50.798  1.00  0.00     0.093 C 
BRANCH  20  21
HETATM   21  P1  UNL     1      24.725   5.850  48.989  1.00  0.00    -0.101 P 
HETATM   22  H4  UNL     1      24.318   4.661  48.288  1.00  0.00     0.062 HD
BRANCH  21  23
HETATM   23  C2  UNL     1      26.584   5.947  48.904  1.00  0.00    -0.006 C 
HETATM   24  C1  UNL     1      27.695   6.327  48.258  1.00  0.00     0.012 C 
ENDBRANCH  21  23
ENDBRANCH  20  21
ENDBRANCH   1  20
TORSDOF 3
ENDMDL
