MODEL 1
REMARK VINA RESULT:      -8.5      0.000      0.000
REMARK  3 active torsions:
REMARK  status: ('A' for Active; 'I' for Inactive)
REMARK    1  A    between atoms: N2_17  and  C14_18 
REMARK    2  A    between atoms: C14_18  and  C15_19 
REMARK    3  A    between atoms: C20_25  and  O2_26 
ROOT
HETATM    1  O1  UNL     1      24.452   3.919  53.467  1.00  0.00    -0.121 OA
HETATM    2  C1  UNL     1      23.702   3.947  52.597  1.00  0.00     0.452 A 
HETATM    3  N1  UNL     1      24.844   3.053  52.803  1.00  0.00     0.131 N 
HETATM    4  C2  UNL     1      26.036   2.244  53.162  1.00  0.00     0.238 C 
HETATM    5  C3  UNL     1      26.028   0.968  53.665  1.00  0.00     0.010 C 
HETATM    6  C4  UNL     1      24.632   0.426  53.865  1.00  0.00     0.043 C 
HETATM    7  C5  UNL     1      24.346  -0.852  54.297  1.00  0.00    -0.017 C 
HETATM    8  C6  UNL     1      22.899  -1.189  54.462  1.00  0.00    -0.007 C 
HETATM    9  C7  UNL     1      21.587  -0.903  54.462  1.00  0.00    -0.023 C 
HETATM   10  C8  UNL     1      20.576   0.155  54.262  1.00  0.00     0.054 C 
HETATM   11  C9  UNL     1      19.675  -0.091  53.153  1.00  0.00    -0.024 C 
HETATM   12  C10 UNL     1      19.664   0.900  52.193  1.00  0.00     0.015 C 
HETATM   13  C11 UNL     1      20.039   2.198  51.517  1.00  0.00     0.151 A 
HETATM   14  F1  UNL     1      20.615   1.918  52.643  1.00  0.00    -0.379 F 
HETATM   15  C12 UNL     1      20.974   2.930  52.237  1.00  0.00     0.191 A 
HETATM   16  C13 UNL     1      21.512   4.300  51.709  1.00  0.00     0.159 C 
HETATM   17  N2  UNL     1      22.925   3.843  51.483  1.00  0.00    -0.342 N 
HETATM   18  H1  UNL     1      24.914   2.266  52.041  1.00  0.00     0.331 HD
ENDROOT
BRANCH  17  19
HETATM   19  C14 UNL     1      23.520   3.380  50.280  1.00  0.00     0.163 C 
BRANCH  19  20
HETATM   20  C15 UNL     1      24.432   4.380  49.628  1.00  0.00    -0.006 A 
HETATM   21  C16 UNL     1      23.852   5.555  49.132  1.00  0.00     0.012 A 
HETATM   22  C17 UNL     1      24.450   6.609  48.502  1.00  0.00     0.002 A 
HETATM   23  C18 UNL     1      25.834   6.491  48.331  1.00  0.00     0.026 A 
HETATM   24  C19 UNL     1      26.511   5.347  48.794  1.00  0.00     0.067 A 
HETATM   25 CL1  UNL     1      28.232   5.128  48.625  1.00  0.00    -0.081 Cl
HETATM   26  C20 UNL     1      25.779   4.351  49.417  1.00  0.00     0.095 A 
BRANCH  26  27
HETATM   27  O2  UNL     1      26.455   3.228  49.868  1.00  0.00    -0.358 OA
HETATM   28  H20 UNL     1      26.039   2.458  50.357  1.00  0.00     0.217 HD
ENDBRANCH  26  27
ENDBRANCH  19  20
ENDBRANCH  17  19
TORSDOF 3
ENDMDL
MODEL 2
REMARK VINA RESULT:      -8.4      1.208      1.547
REMARK  3 active torsions:
REMARK  status: ('A' for Active; 'I' for Inactive)
REMARK    1  A    between atoms: N2_17  and  C14_18 
REMARK    2  A    between atoms: C14_18  and  C15_19 
REMARK    3  A    between atoms: C20_25  and  O2_26 
ROOT
HETATM    1  O1  UNL     1      24.447   3.814  53.490  1.00  0.00    -0.121 OA
HETATM    2  C1  UNL     1      23.731   3.796  52.592  1.00  0.00     0.452 A 
HETATM    3  N1  UNL     1      24.870   2.921  52.882  1.00  0.00     0.131 N 
HETATM    4  C2  UNL     1      26.052   2.139  53.323  1.00  0.00     0.238 C 
HETATM    5  C3  UNL     1      26.032   0.887  53.884  1.00  0.00     0.010 C 
HETATM    6  C4  UNL     1      24.634   0.343  54.055  1.00  0.00     0.043 C 
HETATM    7  C5  UNL     1      24.338  -0.915  54.533  1.00  0.00    -0.017 C 
HETATM    8  C6  UNL     1      22.889  -1.256  54.657  1.00  0.00    -0.007 C 
HETATM    9  C7  UNL     1      21.576  -0.982  54.594  1.00  0.00    -0.023 C 
HETATM   10  C8  UNL     1      20.567   0.058  54.308  1.00  0.00     0.054 C 
HETATM   11  C9  UNL     1      19.711  -0.245  53.177  1.00  0.00    -0.024 C 
HETATM   12  C10 UNL     1      19.731   0.701  52.173  1.00  0.00     0.015 C 
HETATM   13  C11 UNL     1      20.123   1.970  51.453  1.00  0.00     0.151 A 
HETATM   14  F1  UNL     1      20.657   1.746  52.612  1.00  0.00    -0.379 F 
HETATM   15  C12 UNL     1      21.026   2.741  52.175  1.00  0.00     0.191 A 
HETATM   16  C13 UNL     1      21.575   4.091  51.606  1.00  0.00     0.159 C 
HETATM   17  N2  UNL     1      22.998   3.636  51.455  1.00  0.00    -0.342 N 
HETATM   18  H1  UNL     1      24.974   2.101  52.161  1.00  0.00     0.331 HD
ENDROOT
BRANCH  17  19
HETATM   19  C14 UNL     1      23.642   3.123  50.298  1.00  0.00     0.163 C 
BRANCH  19  20
HETATM   20  C15 UNL     1      24.660   4.054  49.705  1.00  0.00    -0.006 A 
HETATM   21  C16 UNL     1      25.988   3.609  49.648  1.00  0.00     0.012 A 
HETATM   22  C17 UNL     1      27.090   4.253  49.165  1.00  0.00     0.002 A 
HETATM   23  C18 UNL     1      26.855   5.536  48.658  1.00  0.00     0.026 A 
HETATM   24  C19 UNL     1      25.555   6.075  48.670  1.00  0.00     0.067 A 
HETATM   25 CL1  UNL     1      25.178   7.661  48.053  1.00  0.00    -0.081 Cl
HETATM   26  C20 UNL     1      24.525   5.311  49.191  1.00  0.00     0.095 A 
BRANCH  26  27
HETATM   27  O2  UNL     1      23.249   5.852  49.199  1.00  0.00    -0.358 OA
HETATM   28  H20 UNL     1      22.748   6.170  48.391  1.00  0.00     0.217 HD
ENDBRANCH  26  27
ENDBRANCH  19  20
ENDBRANCH  17  19
TORSDOF 3
ENDMDL
MODEL 3
REMARK VINA RESULT:      -8.3      2.814      4.673
REMARK  3 active torsions:
REMARK  status: ('A' for Active; 'I' for Inactive)
REMARK    1  A    between atoms: N2_17  and  C14_18 
REMARK    2  A    between atoms: C14_18  and  C15_19 
REMARK    3  A    between atoms: C20_25  and  O2_26 
ROOT
HETATM    1  O1  UNL     1      22.220   1.679  50.655  1.00  0.00    -0.121 OA
HETATM    2  C1  UNL     1      23.054   2.389  51.002  1.00  0.00     0.452 A 
HETATM    3  N1  UNL     1      21.782   2.072  51.655  1.00  0.00     0.131 N 
HETATM    4  C2  UNL     1      20.456   1.647  52.171  1.00  0.00     0.238 C 
HETATM    5  C3  UNL     1      20.230   0.757  53.191  1.00  0.00     0.010 C 
HETATM    6  C4  UNL     1      21.506   0.187  53.764  1.00  0.00     0.043 C 
HETATM    7  C5  UNL     1      21.562  -0.677  54.836  1.00  0.00    -0.017 C 
HETATM    8  C6  UNL     1      22.920  -1.155  55.235  1.00  0.00    -0.007 C 
HETATM    9  C7  UNL     1      24.252  -1.255  55.096  1.00  0.00    -0.023 C 
HETATM   10  C8  UNL     1      25.418  -0.871  54.275  1.00  0.00     0.054 C 
HETATM   11  C9  UNL     1      26.387  -0.049  54.973  1.00  0.00    -0.024 C 
HETATM   12  C10 UNL     1      26.641   1.170  54.379  1.00  0.00     0.015 C 
HETATM   13  C11 UNL     1      26.527   2.282  53.363  1.00  0.00     0.151 A 
HETATM   14  F1  UNL     1      25.801   1.224  53.182  1.00  0.00    -0.379 F 
HETATM   15  C12 UNL     1      25.633   1.988  52.341  1.00  0.00     0.191 A 
HETATM   16  C13 UNL     1      25.354   3.010  51.190  1.00  0.00     0.159 C 
HETATM   17  N2  UNL     1      23.922   3.279  51.557  1.00  0.00    -0.342 N 
HETATM   18  H1  UNL     1      21.682   2.535  52.645  1.00  0.00     0.331 HD
ENDROOT
BRANCH  17  19
HETATM   19  C14 UNL     1      23.399   4.338  52.346  1.00  0.00     0.163 C 
BRANCH  19  20
HETATM   20  C15 UNL     1      23.014   5.554  51.554  1.00  0.00    -0.006 A 
HETATM   21  C16 UNL     1      24.002   6.525  51.339  1.00  0.00     0.012 A 
HETATM   22  C17 UNL     1      23.913   7.707  50.663  1.00  0.00     0.002 A 
HETATM   23  C18 UNL     1      22.657   7.982  50.110  1.00  0.00     0.026 A 
HETATM   24  C19 UNL     1      21.597   7.071  50.270  1.00  0.00     0.067 A 
HETATM   25 CL1  UNL     1      20.006   7.337  49.608  1.00  0.00    -0.081 Cl
HETATM   26  C20 UNL     1      21.826   5.906  50.982  1.00  0.00     0.095 A 
BRANCH  26  27
HETATM   27  O2  UNL     1      20.775   5.015  51.134  1.00  0.00    -0.358 OA
HETATM   28  H20 UNL     1      19.865   5.116  50.727  1.00  0.00     0.217 HD
ENDBRANCH  26  27
ENDBRANCH  19  20
ENDBRANCH  17  19
TORSDOF 3
ENDMDL
MODEL 4
REMARK VINA RESULT:      -8.0      2.565      6.717
REMARK  3 active torsions:
REMARK  status: ('A' for Active; 'I' for Inactive)
REMARK    1  A    between atoms: N2_17  and  C14_18 
REMARK    2  A    between atoms: C14_18  and  C15_19 
REMARK    3  A    between atoms: C20_25  and  O2_26 
ROOT
HETATM    1  O1  UNL     1      24.258   2.805  49.023  1.00  0.00    -0.121 OA
HETATM    2  C1  UNL     1      23.561   3.192  49.851  1.00  0.00     0.452 A 
HETATM    3  N1  UNL     1      25.019   3.295  49.748  1.00  0.00     0.131 N 
HETATM    4  C2  UNL     1      26.481   3.300  49.491  1.00  0.00     0.238 C 
HETATM    5  C3  UNL     1      27.223   4.368  49.051  1.00  0.00     0.010 C 
HETATM    6  C4  UNL     1      26.386   5.601  48.806  1.00  0.00     0.043 C 
HETATM    7  C5  UNL     1      26.893   6.825  48.423  1.00  0.00    -0.017 C 
HETATM    8  C6  UNL     1      25.898   7.917  48.201  1.00  0.00    -0.007 C 
HETATM    9  C7  UNL     1      24.654   8.416  48.119  1.00  0.00    -0.023 C 
HETATM   10  C8  UNL     1      23.213   8.105  48.214  1.00  0.00     0.054 C 
HETATM   11  C9  UNL     1      22.528   8.800  49.286  1.00  0.00    -0.024 C 
HETATM   12  C10 UNL     1      21.898   7.975  50.194  1.00  0.00     0.015 C 
HETATM   13  C11 UNL     1      21.435   6.682  50.824  1.00  0.00     0.151 A 
HETATM   14  F1  UNL     1      22.147   6.604  49.744  1.00  0.00    -0.379 F 
HETATM   15  C12 UNL     1      21.850   5.560  50.118  1.00  0.00     0.191 A 
HETATM   16  C13 UNL     1      21.492   4.118  50.605  1.00  0.00     0.159 C 
HETATM   17  N2  UNL     1      22.899   3.701  50.926  1.00  0.00    -0.342 N 
HETATM   18  H1  UNL     1      25.463   3.898  50.550  1.00  0.00     0.331 HD
ENDROOT
BRANCH  17  19
HETATM   19  C14 UNL     1      23.564   3.737  52.180  1.00  0.00     0.163 C 
BRANCH  19  20
HETATM   20  C15 UNL     1      23.921   2.381  52.719  1.00  0.00    -0.006 A 
HETATM   21  C16 UNL     1      22.871   1.484  52.956  1.00  0.00     0.012 A 
HETATM   22  C17 UNL     1      22.923   0.208  53.439  1.00  0.00     0.002 A 
HETATM   23  C18 UNL     1      24.208  -0.263  53.736  1.00  0.00     0.026 A 
HETATM   24  C19 UNL     1      25.329   0.563  53.534  1.00  0.00     0.067 A 
HETATM   25 CL1  UNL     1      26.961   0.050  53.874  1.00  0.00    -0.081 Cl
HETATM   26  C20 UNL     1      25.132   1.840  53.037  1.00  0.00     0.095 A 
BRANCH  26  27
HETATM   27  O2  UNL     1      26.243   2.645  52.843  1.00  0.00    -0.358 OA
HETATM   28  H20 UNL     1      26.760   3.106  53.568  1.00  0.00     0.217 HD
ENDBRANCH  26  27
ENDBRANCH  19  20
ENDBRANCH  17  19
TORSDOF 3
ENDMDL
MODEL 5
REMARK VINA RESULT:      -7.9      2.445      4.404
REMARK  3 active torsions:
REMARK  status: ('A' for Active; 'I' for Inactive)
REMARK    1  A    between atoms: N2_17  and  C14_18 
REMARK    2  A    between atoms: C14_18  and  C15_19 
REMARK    3  A    between atoms: C20_25  and  O2_26 
ROOT
HETATM    1  O1  UNL     1      22.539   2.327  49.962  1.00  0.00    -0.121 OA
HETATM    2  C1  UNL     1      23.473   2.953  50.201  1.00  0.00     0.452 A 
HETATM    3  N1  UNL     1      22.297   2.694  51.036  1.00  0.00     0.131 N 
HETATM    4  C2  UNL     1      21.037   2.340  51.738  1.00  0.00     0.238 C 
HETATM    5  C3  UNL     1      20.902   1.413  52.740  1.00  0.00     0.010 C 
HETATM    6  C4  UNL     1      22.200   0.718  53.076  1.00  0.00     0.043 C 
HETATM    7  C5  UNL     1      22.352  -0.207  54.086  1.00  0.00    -0.017 C 
HETATM    8  C6  UNL     1      23.712  -0.805  54.241  1.00  0.00    -0.007 C 
HETATM    9  C7  UNL     1      24.993  -0.995  53.887  1.00  0.00    -0.023 C 
HETATM   10  C8  UNL     1      26.044  -0.652  52.907  1.00  0.00     0.054 C 
HETATM   11  C9  UNL     1      27.174   0.055  53.477  1.00  0.00    -0.024 C 
HETATM   12  C10 UNL     1      27.431   1.284  52.904  1.00  0.00     0.015 C 
HETATM   13  C11 UNL     1      27.251   2.457  51.970  1.00  0.00     0.151 A 
HETATM   14  F1  UNL     1      26.422   1.467  51.860  1.00  0.00    -0.379 F 
HETATM   15  C12 UNL     1      26.187   2.288  51.092  1.00  0.00     0.191 A 
HETATM   16  C13 UNL     1      25.816   3.391  50.047  1.00  0.00     0.159 C 
HETATM   17  N2  UNL     1      24.487   3.744  50.649  1.00  0.00    -0.342 N 
HETATM   18  H1  UNL     1      22.391   3.106  52.048  1.00  0.00     0.331 HD
ENDROOT
BRANCH  17  19
HETATM   19  C14 UNL     1      24.181   4.792  51.558  1.00  0.00     0.163 C 
BRANCH  19  20
HETATM   20  C15 UNL     1      23.891   6.108  50.894  1.00  0.00    -0.006 A 
HETATM   21  C16 UNL     1      22.547   6.450  50.697  1.00  0.00     0.012 A 
HETATM   22  C17 UNL     1      22.020   7.571  50.123  1.00  0.00     0.002 A 
HETATM   23  C18 UNL     1      22.960   8.505  49.672  1.00  0.00     0.026 A 
HETATM   24  C19 UNL     1      24.337   8.254  49.822  1.00  0.00     0.067 A 
HETATM   25 CL1  UNL     1      25.569   9.368  49.292  1.00  0.00    -0.081 Cl
HETATM   26  C20 UNL     1      24.734   7.072  50.424  1.00  0.00     0.095 A 
BRANCH  26  27
HETATM   27  O2  UNL     1      26.092   6.835  50.566  1.00  0.00    -0.358 OA
HETATM   28  H20 UNL     1      26.535   6.480  51.392  1.00  0.00     0.217 HD
ENDBRANCH  26  27
ENDBRANCH  19  20
ENDBRANCH  17  19
TORSDOF 3
ENDMDL
MODEL 6
REMARK VINA RESULT:      -7.7      1.817      2.200
REMARK  3 active torsions:
REMARK  status: ('A' for Active; 'I' for Inactive)
REMARK    1  A    between atoms: N2_17  and  C14_18 
REMARK    2  A    between atoms: C14_18  and  C15_19 
REMARK    3  A    between atoms: C20_25  and  O2_26 
ROOT
HETATM    1  O1  UNL     1      24.503   3.802  53.453  1.00  0.00    -0.121 OA
HETATM    2  C1  UNL     1      23.749   3.735  52.588  1.00  0.00     0.452 A 
HETATM    3  N1  UNL     1      24.929   2.906  52.851  1.00  0.00     0.131 N 
HETATM    4  C2  UNL     1      26.156   2.178  53.261  1.00  0.00     0.238 C 
HETATM    5  C3  UNL     1      26.203   0.942  53.857  1.00  0.00     0.010 C 
HETATM    6  C4  UNL     1      24.833   0.357  54.104  1.00  0.00     0.043 C 
HETATM    7  C5  UNL     1      24.602  -0.896  54.629  1.00  0.00    -0.017 C 
HETATM    8  C6  UNL     1      23.171  -1.281  54.827  1.00  0.00    -0.007 C 
HETATM    9  C7  UNL     1      21.848  -1.052  54.814  1.00  0.00    -0.023 C 
HETATM   10  C8  UNL     1      20.792  -0.055  54.544  1.00  0.00     0.054 C 
HETATM   11  C9  UNL     1      19.900  -0.419  53.461  1.00  0.00    -0.024 C 
HETATM   12  C10 UNL     1      19.843   0.498  52.431  1.00  0.00     0.015 C 
HETATM   13  C11 UNL     1      20.161   1.757  51.660  1.00  0.00     0.151 A 
HETATM   14  F1  UNL     1      20.752   1.585  52.800  1.00  0.00    -0.379 F 
HETATM   15  C12 UNL     1      21.067   2.579  52.320  1.00  0.00     0.191 A 
HETATM   16  C13 UNL     1      21.544   3.929  51.690  1.00  0.00     0.159 C 
HETATM   17  N2  UNL     1      22.974   3.517  51.490  1.00  0.00    -0.342 N 
HETATM   18  H1  UNL     1      25.030   2.070  52.149  1.00  0.00     0.331 HD
ENDROOT
BRANCH  17  19
HETATM   19  C14 UNL     1      23.585   2.992  50.319  1.00  0.00     0.163 C 
BRANCH  19  20
HETATM   20  C15 UNL     1      23.119   3.641  49.047  1.00  0.00    -0.006 A 
HETATM   21  C16 UNL     1      22.386   2.851  48.151  1.00  0.00     0.012 A 
HETATM   22  C17 UNL     1      21.855   3.193  46.940  1.00  0.00     0.002 A 
HETATM   23  C18 UNL     1      22.078   4.517  46.546  1.00  0.00     0.026 A 
HETATM   24  C19 UNL     1      22.805   5.391  47.376  1.00  0.00     0.067 A 
HETATM   25 CL1  UNL     1      23.120   7.054  46.960  1.00  0.00    -0.081 Cl
HETATM   26  C20 UNL     1      23.288   4.912  48.582  1.00  0.00     0.095 A 
BRANCH  26  27
HETATM   27  O2  UNL     1      24.003   5.780  49.391  1.00  0.00    -0.358 OA
HETATM   28  H20 UNL     1      24.550   5.513  50.187  1.00  0.00     0.217 HD
ENDBRANCH  26  27
ENDBRANCH  19  20
ENDBRANCH  17  19
TORSDOF 3
ENDMDL
MODEL 7
REMARK VINA RESULT:      -7.6      3.331      4.861
REMARK  3 active torsions:
REMARK  status: ('A' for Active; 'I' for Inactive)
REMARK    1  A    between atoms: N2_17  and  C14_18 
REMARK    2  A    between atoms: C14_18  and  C15_19 
REMARK    3  A    between atoms: C20_25  and  O2_26 
ROOT
HETATM    1  O1  UNL     1      25.562   7.185  50.231  1.00  0.00    -0.121 OA
HETATM    2  C1  UNL     1      24.431   7.104  50.045  1.00  0.00     0.452 A 
HETATM    3  N1  UNL     1      25.529   6.412  49.367  1.00  0.00     0.131 N 
HETATM    4  C2  UNL     1      26.755   5.811  48.784  1.00  0.00     0.238 C 
HETATM    5  C3  UNL     1      27.221   4.540  49.012  1.00  0.00     0.010 C 
HETATM    6  C4  UNL     1      26.359   3.765  49.980  1.00  0.00     0.043 C 
HETATM    7  C5  UNL     1      26.569   2.448  50.330  1.00  0.00    -0.017 C 
HETATM    8  C6  UNL     1      25.622   1.866  51.328  1.00  0.00    -0.007 C 
HETATM    9  C7  UNL     1      24.597   1.924  52.195  1.00  0.00    -0.023 C 
HETATM   10  C8  UNL     1      23.583   2.799  52.816  1.00  0.00     0.054 C 
HETATM   11  C9  UNL     1      22.215   2.429  52.508  1.00  0.00    -0.024 C 
HETATM   12  C10 UNL     1      21.473   3.425  51.907  1.00  0.00     0.015 C 
HETATM   13  C11 UNL     1      21.170   4.782  51.318  1.00  0.00     0.151 A 
HETATM   14  F1  UNL     1      22.364   4.579  51.778  1.00  0.00    -0.379 F 
HETATM   15  C12 UNL     1      22.256   5.646  51.368  1.00  0.00     0.191 A 
HETATM   16  C13 UNL     1      22.163   7.099  50.798  1.00  0.00     0.159 C 
HETATM   17  N2  UNL     1      23.138   6.895  49.674  1.00  0.00    -0.342 N 
HETATM   18  H1  UNL     1      25.182   5.667  48.641  1.00  0.00     0.331 HD
ENDROOT
BRANCH  17  19
HETATM   19  C14 UNL     1      22.864   6.566  48.319  1.00  0.00     0.163 C 
BRANCH  19  20
HETATM   20  C15 UNL     1      22.319   5.179  48.128  1.00  0.00    -0.006 A 
HETATM   21  C16 UNL     1      23.152   4.105  48.468  1.00  0.00     0.012 A 
HETATM   22  C17 UNL     1      22.903   2.766  48.389  1.00  0.00     0.002 A 
HETATM   23  C18 UNL     1      21.637   2.424  47.899  1.00  0.00     0.026 A 
HETATM   24  C19 UNL     1      20.726   3.431  47.528  1.00  0.00     0.067 A 
HETATM   25 CL1  UNL     1      19.130   3.090  46.916  1.00  0.00    -0.081 Cl
HETATM   26  C20 UNL     1      21.110   4.755  47.660  1.00  0.00     0.095 A 
BRANCH  26  27
HETATM   27  O2  UNL     1      20.205   5.738  47.292  1.00  0.00    -0.358 OA
HETATM   28  H20 UNL     1      20.232   6.260  46.436  1.00  0.00     0.217 HD
ENDBRANCH  26  27
ENDBRANCH  19  20
ENDBRANCH  17  19
TORSDOF 3
ENDMDL
MODEL 8
REMARK VINA RESULT:      -7.5      3.021      3.354
REMARK  3 active torsions:
REMARK  status: ('A' for Active; 'I' for Inactive)
REMARK    1  A    between atoms: N2_17  and  C14_18 
REMARK    2  A    between atoms: C14_18  and  C15_19 
REMARK    3  A    between atoms: C20_25  and  O2_26 
ROOT
HETATM    1  O1  UNL     1      24.051   3.986  52.221  1.00  0.00    -0.121 OA
HETATM    2  C1  UNL     1      23.120   3.775  51.581  1.00  0.00     0.452 A 
HETATM    3  N1  UNL     1      24.399   3.060  51.616  1.00  0.00     0.131 N 
HETATM    4  C2  UNL     1      25.749   2.463  51.771  1.00  0.00     0.238 C 
HETATM    5  C3  UNL     1      26.051   1.306  52.445  1.00  0.00     0.010 C 
HETATM    6  C4  UNL     1      24.840   0.663  53.077  1.00  0.00     0.043 C 
HETATM    7  C5  UNL     1      24.858  -0.537  53.755  1.00  0.00    -0.017 C 
HETATM    8  C6  UNL     1      23.558  -0.992  54.336  1.00  0.00    -0.007 C 
HETATM    9  C7  UNL     1      22.256  -0.853  54.633  1.00  0.00    -0.023 C 
HETATM   10  C8  UNL     1      21.080   0.036  54.546  1.00  0.00     0.054 C 
HETATM   11  C9  UNL     1      19.990  -0.503  53.757  1.00  0.00    -0.024 C 
HETATM   12  C10 UNL     1      19.603   0.289  52.696  1.00  0.00     0.015 C 
HETATM   13  C11 UNL     1      19.609   1.475  51.759  1.00  0.00     0.151 A 
HETATM   14  F1  UNL     1      20.471   1.468  52.727  1.00  0.00    -0.379 F 
HETATM   15  C12 UNL     1      20.569   2.422  52.095  1.00  0.00     0.191 A 
HETATM   16  C13 UNL     1      20.755   3.723  51.248  1.00  0.00     0.159 C 
HETATM   17  N2  UNL     1      22.126   3.387  50.735  1.00  0.00    -0.342 N 
HETATM   18  H1  UNL     1      24.404   2.160  50.989  1.00  0.00     0.331 HD
ENDROOT
BRANCH  17  19
HETATM   19  C14 UNL     1      22.482   2.778  49.502  1.00  0.00     0.163 C 
BRANCH  19  20
HETATM   20  C15 UNL     1      21.895   3.457  48.297  1.00  0.00    -0.006 A 
HETATM   21  C16 UNL     1      22.573   4.574  47.791  1.00  0.00     0.012 A 
HETATM   22  C17 UNL     1      22.254   5.361  46.722  1.00  0.00     0.002 A 
HETATM   23  C18 UNL     1      21.086   4.996  46.042  1.00  0.00     0.026 A 
HETATM   24  C19 UNL     1      20.332   3.888  46.473  1.00  0.00     0.067 A 
HETATM   25 CL1  UNL     1      18.871   3.366  45.678  1.00  0.00    -0.081 Cl
HETATM   26  C20 UNL     1      20.772   3.176  47.576  1.00  0.00     0.095 A 
BRANCH  26  27
HETATM   27  O2  UNL     1      20.021   2.087  47.992  1.00  0.00    -0.358 OA
HETATM   28  H20 UNL     1      19.696   1.931  48.927  1.00  0.00     0.217 HD
ENDBRANCH  26  27
ENDBRANCH  19  20
ENDBRANCH  17  19
TORSDOF 3
ENDMDL
MODEL 9
REMARK VINA RESULT:      -7.5      3.528      5.671
REMARK  3 active torsions:
REMARK  status: ('A' for Active; 'I' for Inactive)
REMARK    1  A    between atoms: N2_17  and  C14_18 
REMARK    2  A    between atoms: C14_18  and  C15_19 
REMARK    3  A    between atoms: C20_25  and  O2_26 
ROOT
HETATM    1  O1  UNL     1      21.612   0.699  49.963  1.00  0.00    -0.121 OA
HETATM    2  C1  UNL     1      22.131   1.723  49.910  1.00  0.00     0.452 A 
HETATM    3  N1  UNL     1      21.413   1.109  51.030  1.00  0.00     0.131 N 
HETATM    4  C2  UNL     1      20.649   0.348  52.051  1.00  0.00     0.238 C 
HETATM    5  C3  UNL     1      21.177  -0.320  53.126  1.00  0.00     0.010 C 
HETATM    6  C4  UNL     1      22.684  -0.244  53.182  1.00  0.00     0.043 C 
HETATM    7  C5  UNL     1      23.456  -0.775  54.193  1.00  0.00    -0.017 C 
HETATM    8  C6  UNL     1      24.936  -0.622  54.050  1.00  0.00    -0.007 C 
HETATM    9  C7  UNL     1      26.053  -0.252  53.403  1.00  0.00    -0.023 C 
HETATM   10  C8  UNL     1      26.597   0.347  52.168  1.00  0.00     0.054 C 
HETATM   11  C9  UNL     1      27.300   1.597  52.378  1.00  0.00    -0.024 C 
HETATM   12  C10 UNL     1      26.800   2.665  51.663  1.00  0.00     0.015 C 
HETATM   13  C11 UNL     1      25.894   3.411  50.712  1.00  0.00     0.151 A 
HETATM   14  F1  UNL     1      25.668   2.148  50.893  1.00  0.00    -0.379 F 
HETATM   15  C12 UNL     1      24.922   2.596  50.144  1.00  0.00     0.191 A 
HETATM   16  C13 UNL     1      23.869   3.170  49.140  1.00  0.00     0.159 C 
HETATM   17  N2  UNL     1      22.673   2.967  50.026  1.00  0.00    -0.342 N 
HETATM   18  H1  UNL     1      21.466   1.704  51.950  1.00  0.00     0.331 HD
ENDROOT
BRANCH  17  19
HETATM   19  C14 UNL     1      22.050   3.902  50.894  1.00  0.00     0.163 C 
BRANCH  19  20
HETATM   20  C15 UNL     1      20.678   4.323  50.453  1.00  0.00    -0.006 A 
HETATM   21  C16 UNL     1      20.576   5.035  49.250  1.00  0.00     0.012 A 
HETATM   22  C17 UNL     1      19.462   5.529  48.635  1.00  0.00     0.002 A 
HETATM   23  C18 UNL     1      18.257   5.285  49.303  1.00  0.00     0.026 A 
HETATM   24  C19 UNL     1      18.252   4.578  50.520  1.00  0.00     0.067 A 
HETATM   25 CL1  UNL     1      16.794   4.229  51.411  1.00  0.00    -0.081 Cl
HETATM   26  C20 UNL     1      19.458   4.133  51.034  1.00  0.00     0.095 A 
BRANCH  26  27
HETATM   27  O2  UNL     1      19.442   3.438  52.233  1.00  0.00    -0.358 OA
HETATM   28  H20 UNL     1      20.112   2.747  52.512  1.00  0.00     0.217 HD
ENDBRANCH  26  27
ENDBRANCH  19  20
ENDBRANCH  17  19
TORSDOF 3
ENDMDL
