MODEL 1
REMARK VINA RESULT:      -8.0      0.000      0.000
REMARK  4 active torsions:
REMARK  status: ('A' for Active; 'I' for Inactive)
REMARK    1  A    between atoms: C2_2  and  C3_4 
REMARK    2  A    between atoms: C4_6  and  C5_7 
REMARK    3  A    between atoms: C5_7  and  C6_8 
REMARK    4  A    between atoms: C13_18  and  N4_19 
ROOT
HETATM    1  C6  UNL     1      23.978   3.413  50.741  1.00  0.00     0.068 A 
HETATM    2  N1  UNL     1      23.237   4.523  50.671  1.00  0.00    -0.244 NA
HETATM    3  C7  UNL     1      22.117   4.626  51.353  1.00  0.00     0.234 A 
HETATM    4  N2  UNL     1      21.798   3.571  52.089  1.00  0.00    -0.240 NA
HETATM    5  C8  UNL     1      22.455   2.419  52.234  1.00  0.00     0.086 A 
HETATM    6  C9  UNL     1      23.639   2.291  51.524  1.00  0.00     0.083 A 
HETATM    7  N3  UNL     1      24.700   1.330  51.314  1.00  0.00    -0.376 N 
HETATM    8  C10 UNL     1      25.794   0.817  52.164  1.00  0.00     0.215 C 
HETATM    9  C11 UNL     1      25.297   0.129  53.291  1.00  0.00    -0.080 C 
HETATM   10  C12 UNL     1      24.878  -0.420  54.190  1.00  0.00    -0.048 C 
HETATM   11  C13 UNL     1      24.347  -1.077  55.284  1.00  0.00     0.076 C 
HETATM   12  C14 UNL     1      23.098  -1.266  54.913  1.00  0.00     0.015 C 
HETATM   13  C15 UNL     1      22.541  -0.848  53.632  1.00  0.00     0.057 C 
HETATM   14  C16 UNL     1      21.673   0.364  53.694  1.00  0.00    -0.020 C 
HETATM   15  C17 UNL     1      21.728   1.548  53.128  1.00  0.00     0.030 C 
HETATM   16  H7  UNL     1      24.599   0.958  50.318  1.00  0.00     0.160 HD
ENDROOT
BRANCH   1  17
HETATM   17  C5  UNL     1      25.221   3.482  49.910  1.00  0.00     0.092 C 
BRANCH  17  18
HETATM   18  C4  UNL     1      25.665   4.840  49.608  1.00  0.00     0.023 C 
HETATM   19  C3  UNL     1      26.837   4.976  48.960  1.00  0.00     0.130 C 
HETATM   20  F1  UNL     1      27.564   3.862  48.611  1.00  0.00    -0.205 F 
BRANCH  19  21
HETATM   21  C2  UNL     1      27.793   5.895  48.398  1.00  0.00     0.047 A 
HETATM   22  C1  UNL     1      28.060   7.025  47.801  1.00  0.00     0.156 A 
HETATM   23 CL1  UNL     1      29.534   5.999  48.168  1.00  0.00    -0.178 Cl
ENDBRANCH  19  21
ENDBRANCH  17  18
ENDBRANCH   1  17
BRANCH  11  24
HETATM   24  N4  UNL     1      24.980  -1.436  56.471  1.00  0.00    -0.392 N 
HETATM   25  H10 UNL     1      25.581  -1.699  57.252  1.00  0.00     0.157 HD
HETATM   26  H11 UNL     1      24.390  -1.549  57.350  1.00  0.00     0.157 HD
ENDBRANCH  11  24
TORSDOF 4
ENDMDL
MODEL 2
REMARK VINA RESULT:      -8.0      1.996      3.816
REMARK  4 active torsions:
REMARK  status: ('A' for Active; 'I' for Inactive)
REMARK    1  A    between atoms: C2_2  and  C3_4 
REMARK    2  A    between atoms: C4_6  and  C5_7 
REMARK    3  A    between atoms: C5_7  and  C6_8 
REMARK    4  A    between atoms: C13_18  and  N4_19 
ROOT
HETATM    1  C6  UNL     1      25.178   1.719  51.532  1.00  0.00     0.068 A 
HETATM    2  N1  UNL     1      26.335   1.055  51.610  1.00  0.00    -0.244 NA
HETATM    3  C7  UNL     1      26.440  -0.022  52.358  1.00  0.00     0.234 A 
HETATM    4  N2  UNL     1      25.339  -0.380  53.003  1.00  0.00    -0.240 NA
HETATM    5  C8  UNL     1      24.139   0.202  53.000  1.00  0.00     0.086 A 
HETATM    6  C9  UNL     1      24.006   1.339  52.217  1.00  0.00     0.083 A 
HETATM    7  N3  UNL     1      23.003   2.315  51.854  1.00  0.00    -0.376 N 
HETATM    8  C10 UNL     1      21.787   2.263  51.016  1.00  0.00     0.215 C 
HETATM    9  C11 UNL     1      20.829   1.373  51.546  1.00  0.00    -0.080 C 
HETATM   10  C12 UNL     1      20.073   0.652  51.987  1.00  0.00    -0.048 C 
HETATM   11  C13 UNL     1      19.169  -0.238  52.536  1.00  0.00     0.076 C 
HETATM   12  C14 UNL     1      19.639  -0.390  53.757  1.00  0.00     0.015 C 
HETATM   13  C15 UNL     1      20.823   0.281  54.279  1.00  0.00     0.057 C 
HETATM   14  C16 UNL     1      22.034  -0.583  54.387  1.00  0.00    -0.020 C 
HETATM   15  C17 UNL     1      23.238  -0.527  53.863  1.00  0.00     0.030 C 
HETATM   16  H7  UNL     1      23.265   3.234  52.330  1.00  0.00     0.160 HD
ENDROOT
BRANCH   1  17
HETATM   17  C5  UNL     1      25.242   2.908  50.625  1.00  0.00     0.092 C 
BRANCH  17  18
HETATM   18  C4  UNL     1      26.595   3.283  50.225  1.00  0.00     0.023 C 
HETATM   19  C3  UNL     1      26.724   4.336  49.395  1.00  0.00     0.130 C 
HETATM   20  F1  UNL     1      25.607   5.009  48.959  1.00  0.00    -0.205 F 
BRANCH  19  21
HETATM   21  C2  UNL     1      27.635   5.179  48.665  1.00  0.00     0.047 A 
HETATM   22  C1  UNL     1      28.831   5.412  48.195  1.00  0.00     0.156 A 
HETATM   23 CL1  UNL     1      27.601   6.716  47.811  1.00  0.00    -0.178 Cl
ENDBRANCH  19  21
ENDBRANCH  17  18
ENDBRANCH   1  17
BRANCH  11  24
HETATM   24  N4  UNL     1      18.054  -0.820  51.940  1.00  0.00    -0.392 N 
HETATM   25  H10 UNL     1      17.154  -1.123  51.570  1.00  0.00     0.157 HD
HETATM   26  H11 UNL     1      18.186  -1.711  51.373  1.00  0.00     0.157 HD
ENDBRANCH  11  24
TORSDOF 4
ENDMDL
MODEL 3
REMARK VINA RESULT:      -7.8      3.085      4.715
REMARK  4 active torsions:
REMARK  status: ('A' for Active; 'I' for Inactive)
REMARK    1  A    between atoms: C2_2  and  C3_4 
REMARK    2  A    between atoms: C4_6  and  C5_7 
REMARK    3  A    between atoms: C5_7  and  C6_8 
REMARK    4  A    between atoms: C13_18  and  N4_19 
ROOT
HETATM    1  C6  UNL     1      21.771   1.480  52.285  1.00  0.00     0.068 A 
HETATM    2  N1  UNL     1      20.792   1.091  53.107  1.00  0.00    -0.244 NA
HETATM    3  C7  UNL     1      21.035   0.248  54.087  1.00  0.00     0.234 A 
HETATM    4  N2  UNL     1      22.290  -0.167  54.186  1.00  0.00    -0.240 NA
HETATM    5  C8  UNL     1      23.341   0.150  53.428  1.00  0.00     0.086 A 
HETATM    6  C9  UNL     1      23.106   1.039  52.390  1.00  0.00     0.083 A 
HETATM    7  N3  UNL     1      23.823   1.698  51.320  1.00  0.00    -0.376 N 
HETATM    8  C10 UNL     1      24.834   2.775  51.283  1.00  0.00     0.215 C 
HETATM    9  C11 UNL     1      26.022   2.394  51.940  1.00  0.00    -0.080 C 
HETATM   10  C12 UNL     1      26.969   2.070  52.474  1.00  0.00    -0.048 C 
HETATM   11  C13 UNL     1      28.110   1.658  53.137  1.00  0.00     0.076 C 
HETATM   12  C14 UNL     1      27.932   0.355  53.210  1.00  0.00     0.015 C 
HETATM   13  C15 UNL     1      26.777  -0.355  52.674  1.00  0.00     0.057 C 
HETATM   14  C16 UNL     1      25.788  -0.800  53.698  1.00  0.00    -0.020 C 
HETATM   15  C17 UNL     1      24.513  -0.552  53.895  1.00  0.00     0.030 C 
HETATM   16  H7  UNL     1      23.502   1.256  50.402  1.00  0.00     0.160 HD
ENDROOT
BRANCH   1  17
HETATM   17  C5  UNL     1      21.312   2.449  51.240  1.00  0.00     0.092 C 
BRANCH  17  18
HETATM   18  C4  UNL     1      21.129   3.812  51.728  1.00  0.00     0.023 C 
HETATM   19  C3  UNL     1      21.680   4.806  51.006  1.00  0.00     0.130 C 
HETATM   20  F1  UNL     1      22.382   4.515  49.859  1.00  0.00    -0.205 F 
BRANCH  19  21
HETATM   21  C2  UNL     1      21.888   6.226  50.888  1.00  0.00     0.047 A 
HETATM   22  C1  UNL     1      21.406   7.435  50.774  1.00  0.00     0.156 A 
HETATM   23 CL1  UNL     1      23.237   7.353  50.824  1.00  0.00    -0.178 Cl
ENDBRANCH  19  21
ENDBRANCH  17  18
ENDBRANCH   1  17
BRANCH  11  24
HETATM   24  N4  UNL     1      29.167   2.433  53.606  1.00  0.00    -0.392 N 
HETATM   25  H10 UNL     1      29.841   3.128  53.927  1.00  0.00     0.157 HD
HETATM   26  H11 UNL     1      30.072   1.947  53.883  1.00  0.00     0.157 HD
ENDBRANCH  11  24
TORSDOF 4
ENDMDL
MODEL 4
REMARK VINA RESULT:      -7.8      4.764      7.280
REMARK  4 active torsions:
REMARK  status: ('A' for Active; 'I' for Inactive)
REMARK    1  A    between atoms: C2_2  and  C3_4 
REMARK    2  A    between atoms: C4_6  and  C5_7 
REMARK    3  A    between atoms: C5_7  and  C6_8 
REMARK    4  A    between atoms: C13_18  and  N4_19 
ROOT
HETATM    1  C6  UNL     1      22.548   0.993  52.199  1.00  0.00     0.068 A 
HETATM    2  N1  UNL     1      21.960   1.399  51.070  1.00  0.00    -0.244 NA
HETATM    3  C7  UNL     1      22.644   2.054  50.156  1.00  0.00     0.234 A 
HETATM    4  N2  UNL     1      23.920   2.268  50.442  1.00  0.00    -0.240 NA
HETATM    5  C8  UNL     1      24.608   1.913  51.529  1.00  0.00     0.086 A 
HETATM    6  C9  UNL     1      23.906   1.220  52.504  1.00  0.00     0.083 A 
HETATM    7  N3  UNL     1      24.123   0.622  53.802  1.00  0.00    -0.376 N 
HETATM    8  C10 UNL     1      24.861  -0.573  54.263  1.00  0.00     0.215 C 
HETATM    9  C11 UNL     1      26.244  -0.461  54.005  1.00  0.00    -0.080 C 
HETATM   10  C12 UNL     1      27.351  -0.352  53.787  1.00  0.00    -0.048 C 
HETATM   11  C13 UNL     1      28.696  -0.203  53.506  1.00  0.00     0.076 C 
HETATM   12  C14 UNL     1      28.787   1.089  53.267  1.00  0.00     0.015 C 
HETATM   13  C15 UNL     1      27.671   2.024  53.329  1.00  0.00     0.057 C 
HETATM   14  C16 UNL     1      27.146   2.459  52.002  1.00  0.00    -0.020 C 
HETATM   15  C17 UNL     1      25.974   2.370  51.417  1.00  0.00     0.030 C 
HETATM   16  H7  UNL     1      23.618   1.228  54.522  1.00  0.00     0.160 HD
ENDROOT
BRANCH   1  17
HETATM   17  C5  UNL     1      21.620   0.254  53.112  1.00  0.00     0.092 C 
BRANCH  17  18
HETATM   18  C4  UNL     1      20.245   0.174  52.631  1.00  0.00     0.023 C 
HETATM   19  C3  UNL     1      19.469  -0.803  53.139  1.00  0.00     0.130 C 
HETATM   20  F1  UNL     1      19.982  -1.675  54.070  1.00  0.00    -0.205 F 
BRANCH  19  21
HETATM   21  C2  UNL     1      18.168  -1.420  53.135  1.00  0.00     0.047 A 
HETATM   22  C1  UNL     1      16.887  -1.358  52.890  1.00  0.00     0.156 A 
HETATM   23 CL1  UNL     1      17.450  -2.967  53.564  1.00  0.00    -0.178 Cl
ENDBRANCH  19  21
ENDBRANCH  17  18
ENDBRANCH   1  17
BRANCH  11  24
HETATM   24  N4  UNL     1      29.689  -1.179  53.480  1.00  0.00    -0.392 N 
HETATM   25  H10 UNL     1      30.405  -1.890  53.625  1.00  0.00     0.157 HD
HETATM   26  H11 UNL     1      30.065  -1.500  52.538  1.00  0.00     0.157 HD
ENDBRANCH  11  24
TORSDOF 4
ENDMDL
MODEL 5
REMARK VINA RESULT:      -7.6      4.231      6.336
REMARK  4 active torsions:
REMARK  status: ('A' for Active; 'I' for Inactive)
REMARK    1  A    between atoms: C2_2  and  C3_4 
REMARK    2  A    between atoms: C4_6  and  C5_7 
REMARK    3  A    between atoms: C5_7  and  C6_8 
REMARK    4  A    between atoms: C13_18  and  N4_19 
ROOT
HETATM    1  C6  UNL     1      22.508   3.095  51.613  1.00  0.00     0.068 A 
HETATM    2  N1  UNL     1      22.370   3.905  50.558  1.00  0.00    -0.244 NA
HETATM    3  C7  UNL     1      23.410   4.227  49.820  1.00  0.00     0.234 A 
HETATM    4  N2  UNL     1      24.565   3.698  50.198  1.00  0.00    -0.240 NA
HETATM    5  C8  UNL     1      24.819   2.884  51.224  1.00  0.00     0.086 A 
HETATM    6  C9  UNL     1      23.736   2.531  52.015  1.00  0.00     0.083 A 
HETATM    7  N3  UNL     1      23.437   1.729  53.181  1.00  0.00    -0.376 N 
HETATM    8  C10 UNL     1      23.396   0.274  53.433  1.00  0.00     0.215 C 
HETATM    9  C11 UNL     1      24.665  -0.319  53.262  1.00  0.00    -0.080 C 
HETATM   10  C12 UNL     1      25.692  -0.777  53.119  1.00  0.00    -0.048 C 
HETATM   11  C13 UNL     1      26.950  -1.317  52.931  1.00  0.00     0.076 C 
HETATM   12  C14 UNL     1      27.716  -0.245  52.952  1.00  0.00     0.015 C 
HETATM   13  C15 UNL     1      27.232   1.116  53.145  1.00  0.00     0.057 C 
HETATM   14  C16 UNL     1      27.190   1.946  51.906  1.00  0.00    -0.020 C 
HETATM   15  C17 UNL     1      26.228   2.568  51.263  1.00  0.00     0.030 C 
HETATM   16  H7  UNL     1      23.215   2.401  53.981  1.00  0.00     0.160 HD
ENDROOT
BRANCH   1  17
HETATM   17  C5  UNL     1      21.217   2.830  52.323  1.00  0.00     0.092 C 
BRANCH  17  18
HETATM   18  C4  UNL     1      20.165   2.287  51.470  1.00  0.00     0.023 C 
HETATM   19  C3  UNL     1      19.506   1.200  51.918  1.00  0.00     0.130 C 
HETATM   20  F1  UNL     1      19.837   0.648  53.133  1.00  0.00    -0.205 F 
BRANCH  19  21
HETATM   21  C2  UNL     1      18.474   0.233  51.650  1.00  0.00     0.047 A 
HETATM   22  C1  UNL     1      17.734  -0.770  52.040  1.00  0.00     0.156 A 
HETATM   23 CL1  UNL     1      17.402  -0.208  50.327  1.00  0.00    -0.178 Cl
ENDBRANCH  19  21
ENDBRANCH  17  18
ENDBRANCH   1  17
BRANCH  11  24
HETATM   24  N4  UNL     1      27.305  -2.652  52.761  1.00  0.00    -0.392 N 
HETATM   25  H10 UNL     1      27.587  -3.631  52.798  1.00  0.00     0.157 HD
HETATM   26  H11 UNL     1      27.283  -3.065  51.780  1.00  0.00     0.157 HD
ENDBRANCH  11  24
TORSDOF 4
ENDMDL
MODEL 6
REMARK VINA RESULT:      -7.5      1.580      2.212
REMARK  4 active torsions:
REMARK  status: ('A' for Active; 'I' for Inactive)
REMARK    1  A    between atoms: C2_2  and  C3_4 
REMARK    2  A    between atoms: C4_6  and  C5_7 
REMARK    3  A    between atoms: C5_7  and  C6_8 
REMARK    4  A    between atoms: C13_18  and  N4_19 
ROOT
HETATM    1  C6  UNL     1      25.383   5.044  50.034  1.00  0.00     0.068 A 
HETATM    2  N1  UNL     1      24.923   6.284  50.224  1.00  0.00    -0.244 NA
HETATM    3  C7  UNL     1      23.923   6.508  51.050  1.00  0.00     0.234 A 
HETATM    4  N2  UNL     1      23.431   5.437  51.655  1.00  0.00    -0.240 NA
HETATM    5  C8  UNL     1      23.807   4.162  51.543  1.00  0.00     0.086 A 
HETATM    6  C9  UNL     1      24.861   3.904  50.678  1.00  0.00     0.083 A 
HETATM    7  N3  UNL     1      25.641   2.786  50.194  1.00  0.00    -0.376 N 
HETATM    8  C10 UNL     1      26.654   1.907  50.813  1.00  0.00     0.215 C 
HETATM    9  C11 UNL     1      26.111   1.159  51.879  1.00  0.00    -0.080 C 
HETATM   10  C12 UNL     1      25.656   0.567  52.732  1.00  0.00    -0.048 C 
HETATM   11  C13 UNL     1      25.084  -0.138  53.774  1.00  0.00     0.076 C 
HETATM   12  C14 UNL     1      23.797   0.017  53.539  1.00  0.00     0.015 C 
HETATM   13  C15 UNL     1      23.244   0.763  52.416  1.00  0.00     0.057 C 
HETATM   14  C16 UNL     1      22.696   2.105  52.767  1.00  0.00    -0.020 C 
HETATM   15  C17 UNL     1      22.978   3.328  52.382  1.00  0.00     0.030 C 
HETATM   16  H7  UNL     1      25.368   2.625  49.174  1.00  0.00     0.160 HD
ENDROOT
BRANCH   1  17
HETATM   17  C5  UNL     1      26.529   4.983  49.072  1.00  0.00     0.092 C 
BRANCH  17  18
HETATM   18  C4  UNL     1      27.119   6.282  48.762  1.00  0.00     0.023 C 
HETATM   19  C3  UNL     1      28.363   6.287  48.246  1.00  0.00     0.130 C 
HETATM   20  F1  UNL     1      29.025   5.101  48.034  1.00  0.00    -0.205 F 
BRANCH  19  21
HETATM   21  C2  UNL     1      29.451   7.094  47.756  1.00  0.00     0.047 A 
HETATM   22  C1  UNL     1      30.504   7.832  47.983  1.00  0.00     0.156 A 
HETATM   23 CL1  UNL     1      30.087   7.636  46.208  1.00  0.00    -0.178 Cl
ENDBRANCH  19  21
ENDBRANCH  17  18
ENDBRANCH   1  17
BRANCH  11  24
HETATM   24  N4  UNL     1      25.717  -0.828  54.805  1.00  0.00    -0.392 N 
HETATM   25  H10 UNL     1      26.037  -1.409  55.579  1.00  0.00     0.157 HD
HETATM   26  H11 UNL     1      26.737  -0.611  55.013  1.00  0.00     0.157 HD
ENDBRANCH  11  24
TORSDOF 4
ENDMDL
MODEL 7
REMARK VINA RESULT:      -7.3      5.454      8.125
REMARK  4 active torsions:
REMARK  status: ('A' for Active; 'I' for Inactive)
REMARK    1  A    between atoms: C2_2  and  C3_4 
REMARK    2  A    between atoms: C4_6  and  C5_7 
REMARK    3  A    between atoms: C5_7  and  C6_8 
REMARK    4  A    between atoms: C13_18  and  N4_19 
ROOT
HETATM    1  C6  UNL     1      30.033   7.510  48.166  1.00  0.00     0.068 A 
HETATM    2  N1  UNL     1      31.017   8.364  48.464  1.00  0.00    -0.244 NA
HETATM    3  C7  UNL     1      30.768   9.465  49.138  1.00  0.00     0.234 A 
HETATM    4  N2  UNL     1      29.501   9.649  49.484  1.00  0.00    -0.240 NA
HETATM    5  C8  UNL     1      28.444   8.872  49.243  1.00  0.00     0.086 A 
HETATM    6  C9  UNL     1      28.686   7.705  48.534  1.00  0.00     0.083 A 
HETATM    7  N3  UNL     1      27.969   6.558  48.021  1.00  0.00    -0.376 N 
HETATM    8  C10 UNL     1      27.327   5.389  48.658  1.00  0.00     0.215 C 
HETATM    9  C11 UNL     1      26.258   5.775  49.493  1.00  0.00    -0.080 C 
HETATM   10  C12 UNL     1      25.402   6.104  50.159  1.00  0.00    -0.048 C 
HETATM   11  C13 UNL     1      24.368   6.528  50.973  1.00  0.00     0.076 C 
HETATM   12  C14 UNL     1      24.176   7.763  50.556  1.00  0.00     0.015 C 
HETATM   13  C15 UNL     1      24.929   8.401  49.483  1.00  0.00     0.057 C 
HETATM   14  C16 UNL     1      25.951   9.388  49.940  1.00  0.00    -0.020 C 
HETATM   15  C17 UNL     1      27.254   9.475  49.797  1.00  0.00     0.030 C 
HETATM   16  H7  UNL     1      27.936   6.652  46.958  1.00  0.00     0.160 HD
ENDROOT
BRANCH   1  17
HETATM   17  C5  UNL     1      30.506   6.309  47.408  1.00  0.00     0.092 C 
BRANCH  17  18
HETATM   18  C4  UNL     1      31.277   5.362  48.208  1.00  0.00     0.023 C 
HETATM   19  C3  UNL     1      32.050   4.481  47.546  1.00  0.00     0.130 C 
HETATM   20  F1  UNL     1      32.090   4.497  46.171  1.00  0.00    -0.205 F 
BRANCH  19  21
HETATM   21  C2  UNL     1      32.975   3.383  47.656  1.00  0.00     0.047 A 
HETATM   22  C1  UNL     1      33.214   2.099  47.652  1.00  0.00     0.156 A 
HETATM   23 CL1  UNL     1      34.698   3.141  47.914  1.00  0.00    -0.178 Cl
ENDBRANCH  19  21
ENDBRANCH  17  18
ENDBRANCH   1  17
BRANCH  11  24
HETATM   24  N4  UNL     1      23.710   5.823  51.977  1.00  0.00    -0.392 N 
HETATM   25  H10 UNL     1      23.339   5.189  52.685  1.00  0.00     0.157 HD
HETATM   26  H11 UNL     1      22.866   6.270  52.445  1.00  0.00     0.157 HD
ENDBRANCH  11  24
TORSDOF 4
ENDMDL
MODEL 8
REMARK VINA RESULT:      -7.3      2.296      3.019
REMARK  4 active torsions:
REMARK  status: ('A' for Active; 'I' for Inactive)
REMARK    1  A    between atoms: C2_2  and  C3_4 
REMARK    2  A    between atoms: C4_6  and  C5_7 
REMARK    3  A    between atoms: C5_7  and  C6_8 
REMARK    4  A    between atoms: C13_18  and  N4_19 
ROOT
HETATM    1  C6  UNL     1      23.062   2.817  50.625  1.00  0.00     0.068 A 
HETATM    2  N1  UNL     1      21.772   2.918  50.960  1.00  0.00    -0.244 NA
HETATM    3  C7  UNL     1      21.281   2.217  51.959  1.00  0.00     0.234 A 
HETATM    4  N2  UNL     1      22.146   1.430  52.583  1.00  0.00    -0.240 NA
HETATM    5  C8  UNL     1      23.444   1.249  52.338  1.00  0.00     0.086 A 
HETATM    6  C9  UNL     1      23.982   1.980  51.289  1.00  0.00     0.083 A 
HETATM    7  N3  UNL     1      25.248   2.176  50.617  1.00  0.00    -0.376 N 
HETATM    8  C10 UNL     1      26.514   2.833  51.001  1.00  0.00     0.215 C 
HETATM    9  C11 UNL     1      27.118   2.193  52.103  1.00  0.00    -0.080 C 
HETATM   10  C12 UNL     1      27.587   1.665  52.990  1.00  0.00    -0.048 C 
HETATM   11  C13 UNL     1      28.137   1.012  54.077  1.00  0.00     0.076 C 
HETATM   12  C14 UNL     1      27.474  -0.126  54.081  1.00  0.00     0.015 C 
HETATM   13  C15 UNL     1      26.446  -0.489  53.113  1.00  0.00     0.057 C 
HETATM   14  C16 UNL     1      25.048  -0.404  53.626  1.00  0.00    -0.020 C 
HETATM   15  C17 UNL     1      23.990   0.283  53.264  1.00  0.00     0.030 C 
HETATM   16  H7  UNL     1      25.171   1.721  49.654  1.00  0.00     0.160 HD
ENDROOT
BRANCH   1  17
HETATM   17  C5  UNL     1      23.442   3.697  49.476  1.00  0.00     0.092 C 
BRANCH  17  18
HETATM   18  C4  UNL     1      23.568   5.110  49.820  1.00  0.00     0.023 C 
HETATM   19  C3  UNL     1      24.686   5.745  49.419  1.00  0.00     0.130 C 
HETATM   20  F1  UNL     1      25.651   5.062  48.716  1.00  0.00    -0.205 F 
BRANCH  19  21
HETATM   21  C2  UNL     1      25.414   6.988  49.400  1.00  0.00     0.047 A 
HETATM   22  C1  UNL     1      26.242   7.823  49.967  1.00  0.00     0.156 A 
HETATM   23 CL1  UNL     1      25.617   8.371  48.333  1.00  0.00    -0.178 Cl
ENDBRANCH  19  21
ENDBRANCH  17  18
ENDBRANCH   1  17
BRANCH  11  24
HETATM   24  N4  UNL     1      29.133   1.457  54.942  1.00  0.00    -0.392 N 
HETATM   25  H10 UNL     1      29.864   1.918  55.484  1.00  0.00     0.157 HD
HETATM   26  H11 UNL     1      29.439   0.821  55.739  1.00  0.00     0.157 HD
ENDBRANCH  11  24
TORSDOF 4
ENDMDL
MODEL 9
REMARK VINA RESULT:      -7.2      3.412      4.904
REMARK  4 active torsions:
REMARK  status: ('A' for Active; 'I' for Inactive)
REMARK    1  A    between atoms: C2_2  and  C3_4 
REMARK    2  A    between atoms: C4_6  and  C5_7 
REMARK    3  A    between atoms: C5_7  and  C6_8 
REMARK    4  A    between atoms: C13_18  and  N4_19 
ROOT
HETATM    1  C6  UNL     1      22.403   1.657  51.676  1.00  0.00     0.068 A 
HETATM    2  N1  UNL     1      21.293   1.214  52.274  1.00  0.00    -0.244 NA
HETATM    3  C7  UNL     1      21.352   0.253  53.170  1.00  0.00     0.234 A 
HETATM    4  N2  UNL     1      22.564  -0.221  53.421  1.00  0.00    -0.240 NA
HETATM    5  C8  UNL     1      23.733   0.141  52.889  1.00  0.00     0.086 A 
HETATM    6  C9  UNL     1      23.693   1.154  51.943  1.00  0.00     0.083 A 
HETATM    7  N3  UNL     1      24.591   1.905  51.093  1.00  0.00    -0.376 N 
HETATM    8  C10 UNL     1      25.615   2.937  51.353  1.00  0.00     0.215 C 
HETATM    9  C11 UNL     1      26.670   2.435  52.144  1.00  0.00    -0.080 C 
HETATM   10  C12 UNL     1      27.507   2.013  52.782  1.00  0.00    -0.048 C 
HETATM   11  C13 UNL     1      28.513   1.481  53.566  1.00  0.00     0.076 C 
HETATM   12  C14 UNL     1      28.300   0.186  53.449  1.00  0.00     0.015 C 
HETATM   13  C15 UNL     1      27.237  -0.409  52.649  1.00  0.00     0.057 C 
HETATM   14  C16 UNL     1      26.082  -0.932  53.435  1.00  0.00    -0.020 C 
HETATM   15  C17 UNL     1      24.797  -0.658  53.451  1.00  0.00     0.030 C 
HETATM   16  H7  UNL     1      24.419   1.587  50.088  1.00  0.00     0.160 HD
ENDROOT
BRANCH   1  17
HETATM   17  C5  UNL     1      22.144   2.760  50.697  1.00  0.00     0.092 C 
BRANCH  17  18
HETATM   18  C4  UNL     1      21.541   2.318  49.444  1.00  0.00     0.023 C 
HETATM   19  C3  UNL     1      21.503   3.205  48.431  1.00  0.00     0.130 C 
HETATM   20  F1  UNL     1      22.020   4.468  48.602  1.00  0.00    -0.205 F 
BRANCH  19  21
HETATM   21  C2  UNL     1      21.108   3.447  47.068  1.00  0.00     0.047 A 
HETATM   22  C1  UNL     1      20.175   3.685  46.185  1.00  0.00     0.156 A 
HETATM   23 CL1  UNL     1      21.867   3.585  45.487  1.00  0.00    -0.178 Cl
ENDBRANCH  19  21
ENDBRANCH  17  18
ENDBRANCH   1  17
BRANCH  11  24
HETATM   24  N4  UNL     1      29.493   2.152  54.292  1.00  0.00    -0.392 N 
HETATM   25  H10 UNL     1      30.306   2.617  54.695  1.00  0.00     0.157 HD
HETATM   26  H11 UNL     1      29.249   2.516  55.262  1.00  0.00     0.157 HD
ENDBRANCH  11  24
TORSDOF 4
ENDMDL
