MODEL 1
REMARK VINA RESULT:      -7.9      0.000      0.000
REMARK  2 active torsions:
REMARK  status: ('A' for Active; 'I' for Inactive)
REMARK    1  A    between atoms: C2_2  and  C3_3 
REMARK    2  A    between atoms: C13_17  and  C14_18 
ROOT
HETATM    1  C3  UNL     1      24.862  -0.044  53.337  1.00  0.00     0.003 C 
HETATM    2  C4  UNL     1      23.584  -0.331  53.263  1.00  0.00     0.092 C 
HETATM    3  C5  UNL     1      22.291  -0.965  53.397  1.00  0.00     0.193 C 
HETATM    4  F1  UNL     1      21.610  -2.012  53.895  1.00  0.00    -0.189 F 
HETATM    5  N1  UNL     1      21.330  -0.334  52.833  1.00  0.00    -0.217 NA
HETATM    6  C6  UNL     1      21.608   0.880  52.157  1.00  0.00     0.236 C 
HETATM    7  N2  UNL     1      21.725   1.402  50.960  1.00  0.00    -0.245 NA
HETATM    8  C7  UNL     1      22.048   2.801  50.816  1.00  0.00     0.054 C 
HETATM    9  C8  UNL     1      21.506   3.631  51.719  1.00  0.00     0.031 C 
HETATM   10  C9  UNL     1      22.218   4.910  51.884  1.00  0.00     0.027 C 
HETATM   11  C10 UNL     1      23.325   5.165  51.154  1.00  0.00     0.008 C 
HETATM   12  C11 UNL     1      24.107   6.400  51.480  1.00  0.00     0.068 C 
HETATM   13  N3  UNL     1      23.749   4.277  50.084  1.00  0.00    -0.348 N 
HETATM   14  C12 UNL     1      22.930   3.163  49.712  1.00  0.00     0.188 C 
HETATM   15  C13 UNL     1      25.019   4.738  49.559  1.00  0.00     0.022 C 
HETATM   16  C15 UNL     1      26.226   4.210  49.635  1.00  0.00     0.007 C 
HETATM   17  C16 UNL     1      25.838   3.015  50.422  1.00  0.00     0.111 C 
HETATM   18  C17 UNL     1      26.640   2.020  50.853  1.00  0.00     0.108 C 
HETATM   19  O1  UNL     1      26.156   0.956  51.580  1.00  0.00    -0.389 OA
HETATM   20  C18 UNL     1      25.207   1.225  52.616  1.00  0.00     0.178 C 
ENDROOT
BRANCH   1  21
HETATM   21  C2  UNL     1      26.213  -0.475  53.858  1.00  0.00     0.009 C 
HETATM   22  C1  UNL     1      26.475   0.311  55.113  1.00  0.00     0.006 C 
ENDBRANCH   1  21
BRANCH  15  23
HETATM   23  C14 UNL     1      24.723   5.996  48.880  1.00  0.00     0.171 C 
HETATM   24 CL1  UNL     1      26.117   6.850  48.212  1.00  0.00    -0.124 Cl
ENDBRANCH  15  23
TORSDOF 2
ENDMDL
MODEL 2
REMARK VINA RESULT:      -7.8      3.713      6.346
REMARK  2 active torsions:
REMARK  status: ('A' for Active; 'I' for Inactive)
REMARK    1  A    between atoms: C2_2  and  C3_3 
REMARK    2  A    between atoms: C13_17  and  C14_18 
ROOT
HETATM    1  C3  UNL     1      26.609   5.274  49.238  1.00  0.00     0.003 C 
HETATM    2  C4  UNL     1      25.896   6.326  49.568  1.00  0.00     0.092 C 
HETATM    3  C5  UNL     1      25.397   7.673  49.728  1.00  0.00     0.193 C 
HETATM    4  F1  UNL     1      25.597   8.975  49.454  1.00  0.00    -0.189 F 
HETATM    5  N1  UNL     1      24.312   7.761  50.403  1.00  0.00    -0.217 NA
HETATM    6  C6  UNL     1      23.721   6.578  50.911  1.00  0.00     0.236 C 
HETATM    7  N2  UNL     1      23.532   5.901  52.017  1.00  0.00    -0.245 NA
HETATM    8  C7  UNL     1      22.806   4.654  51.981  1.00  0.00     0.054 C 
HETATM    9  C8  UNL     1      21.775   4.594  51.126  1.00  0.00     0.031 C 
HETATM   10  C9  UNL     1      21.389   3.230  50.725  1.00  0.00     0.027 C 
HETATM   11  C10 UNL     1      22.061   2.166  51.216  1.00  0.00     0.008 C 
HETATM   12  C11 UNL     1      21.742   0.817  50.649  1.00  0.00     0.068 C 
HETATM   13  N3  UNL     1      23.059   2.317  52.262  1.00  0.00    -0.348 N 
HETATM   14  C12 UNL     1      23.270   3.595  52.870  1.00  0.00     0.188 C 
HETATM   15  C13 UNL     1      23.690   1.034  52.504  1.00  0.00     0.022 C 
HETATM   16  C15 UNL     1      24.916   0.616  52.253  1.00  0.00     0.007 C 
HETATM   17  C16 UNL     1      25.407   1.881  51.655  1.00  0.00     0.111 C 
HETATM   18  C17 UNL     1      26.639   2.135  51.170  1.00  0.00     0.108 C 
HETATM   19  O1  UNL     1      26.975   3.359  50.637  1.00  0.00    -0.389 OA
HETATM   20  C18 UNL     1      26.030   3.998  49.773  1.00  0.00     0.178 C 
ENDROOT
BRANCH   1  21
HETATM   21  C2  UNL     1      27.838   4.773  48.517  1.00  0.00     0.009 C 
HETATM   22  C1  UNL     1      28.658   5.980  48.150  1.00  0.00     0.006 C 
ENDBRANCH   1  21
BRANCH  15  23
HETATM   23  C14 UNL     1      22.657   0.205  53.117  1.00  0.00     0.171 C 
HETATM   24 CL1  UNL     1      23.199  -0.846  54.429  1.00  0.00    -0.124 Cl
ENDBRANCH  15  23
TORSDOF 2
ENDMDL
MODEL 3
REMARK VINA RESULT:      -7.6      1.965      2.716
REMARK  2 active torsions:
REMARK  status: ('A' for Active; 'I' for Inactive)
REMARK    1  A    between atoms: C2_2  and  C3_3 
REMARK    2  A    between atoms: C13_17  and  C14_18 
ROOT
HETATM    1  C3  UNL     1      21.335   0.132  53.357  1.00  0.00     0.003 C 
HETATM    2  C4  UNL     1      20.307   0.124  52.540  1.00  0.00     0.092 C 
HETATM    3  C5  UNL     1      19.041  -0.156  51.902  1.00  0.00     0.193 C 
HETATM    4  F1  UNL     1      17.902  -0.871  51.951  1.00  0.00    -0.189 F 
HETATM    5  N1  UNL     1      18.827   0.511  50.830  1.00  0.00    -0.217 NA
HETATM    6  C6  UNL     1      19.812   1.427  50.384  1.00  0.00     0.236 C 
HETATM    7  N2  UNL     1      20.739   1.597  49.474  1.00  0.00    -0.245 NA
HETATM    8  C7  UNL     1      21.522   2.810  49.464  1.00  0.00     0.054 C 
HETATM    9  C8  UNL     1      20.873   3.937  49.793  1.00  0.00     0.031 C 
HETATM   10  C9  UNL     1      21.739   5.027  50.273  1.00  0.00     0.027 C 
HETATM   11  C10 UNL     1      23.075   4.843  50.351  1.00  0.00     0.008 C 
HETATM   12  C11 UNL     1      23.890   5.917  51.003  1.00  0.00     0.068 C 
HETATM   13  N3  UNL     1      23.708   3.647  49.821  1.00  0.00    -0.348 N 
HETATM   14  C12 UNL     1      22.929   2.684  49.103  1.00  0.00     0.188 C 
HETATM   15  C13 UNL     1      25.120   3.672  50.148  1.00  0.00     0.022 C 
HETATM   16  C15 UNL     1      25.826   2.927  50.976  1.00  0.00     0.007 C 
HETATM   17  C16 UNL     1      24.702   2.080  51.442  1.00  0.00     0.111 C 
HETATM   18  C17 UNL     1      24.750   1.072  52.336  1.00  0.00     0.108 C 
HETATM   19  O1  UNL     1      23.628   0.355  52.687  1.00  0.00    -0.389 OA
HETATM   20  C18 UNL     1      22.413   1.075  52.912  1.00  0.00     0.178 C 
ENDROOT
BRANCH   1  21
HETATM   21  C2  UNL     1      21.933  -0.443  54.619  1.00  0.00     0.009 C 
HETATM   22  C1  UNL     1      21.634  -1.917  54.619  1.00  0.00     0.006 C 
ENDBRANCH   1  21
BRANCH  15  23
HETATM   23  C14 UNL     1      25.683   4.756  49.348  1.00  0.00     0.171 C 
HETATM   24 CL1  UNL     1      27.347   4.520  48.805  1.00  0.00    -0.124 Cl
ENDBRANCH  15  23
TORSDOF 2
ENDMDL
MODEL 4
REMARK VINA RESULT:      -7.6      1.836      2.064
REMARK  2 active torsions:
REMARK  status: ('A' for Active; 'I' for Inactive)
REMARK    1  A    between atoms: C2_2  and  C3_3 
REMARK    2  A    between atoms: C13_17  and  C14_18 
ROOT
HETATM    1  C3  UNL     1      26.667   1.394  53.385  1.00  0.00     0.003 C 
HETATM    2  C4  UNL     1      25.687   0.585  53.712  1.00  0.00     0.092 C 
HETATM    3  C5  UNL     1      24.898  -0.483  54.285  1.00  0.00     0.193 C 
HETATM    4  F1  UNL     1      24.900  -1.564  55.085  1.00  0.00    -0.189 F 
HETATM    5  N1  UNL     1      23.664  -0.475  53.940  1.00  0.00    -0.217 NA
HETATM    6  C6  UNL     1      23.203   0.538  53.063  1.00  0.00     0.236 C 
HETATM    7  N2  UNL     1      22.828   0.752  51.826  1.00  0.00    -0.245 NA
HETATM    8  C7  UNL     1      22.420   2.075  51.418  1.00  0.00     0.054 C 
HETATM    9  C8  UNL     1      21.736   2.790  52.323  1.00  0.00     0.031 C 
HETATM   10  C9  UNL     1      21.780   4.248  52.116  1.00  0.00     0.027 C 
HETATM   11  C10 UNL     1      22.472   4.761  51.077  1.00  0.00     0.008 C 
HETATM   12  C11 UNL     1      22.627   6.249  51.008  1.00  0.00     0.068 C 
HETATM   13  N3  UNL     1      23.049   3.905  50.053  1.00  0.00    -0.348 N 
HETATM   14  C12 UNL     1      22.797   2.497  50.073  1.00  0.00     0.188 C 
HETATM   15  C13 UNL     1      23.826   4.718  49.137  1.00  0.00     0.022 C 
HETATM   16  C15 UNL     1      25.127   4.786  48.936  1.00  0.00     0.007 C 
HETATM   17  C16 UNL     1      25.507   3.769  49.947  1.00  0.00     0.111 C 
HETATM   18  C17 UNL     1      26.749   3.345  50.258  1.00  0.00     0.108 C 
HETATM   19  O1  UNL     1      26.973   2.387  51.222  1.00  0.00    -0.389 OA
HETATM   20  C18 UNL     1      26.228   2.473  52.440  1.00  0.00     0.178 C 
ENDROOT
BRANCH   1  21
HETATM   21  C2  UNL     1      28.133   1.716  53.554  1.00  0.00     0.009 C 
HETATM   22  C1  UNL     1      28.708   0.681  54.482  1.00  0.00     0.006 C 
ENDBRANCH   1  21
BRANCH  15  23
HETATM   23  C14 UNL     1      22.848   5.526  48.414  1.00  0.00     0.171 C 
HETATM   24 CL1  UNL     1      22.212   4.809  46.931  1.00  0.00    -0.124 Cl
ENDBRANCH  15  23
TORSDOF 2
ENDMDL
MODEL 5
REMARK VINA RESULT:      -7.5      2.321      3.278
REMARK  2 active torsions:
REMARK  status: ('A' for Active; 'I' for Inactive)
REMARK    1  A    between atoms: C2_2  and  C3_3 
REMARK    2  A    between atoms: C13_17  and  C14_18 
ROOT
HETATM    1  C3  UNL     1      23.844   2.498  52.367  1.00  0.00     0.003 C 
HETATM    2  C4  UNL     1      22.600   2.897  52.239  1.00  0.00     0.092 C 
HETATM    3  C5  UNL     1      21.162   3.016  52.329  1.00  0.00     0.193 C 
HETATM    4  F1  UNL     1      20.029   2.489  52.826  1.00  0.00    -0.189 F 
HETATM    5  N1  UNL     1      20.672   4.018  51.697  1.00  0.00    -0.217 NA
HETATM    6  C6  UNL     1      21.549   4.882  50.996  1.00  0.00     0.236 C 
HETATM    7  N2  UNL     1      21.946   5.207  49.790  1.00  0.00    -0.245 NA
HETATM    8  C7  UNL     1      22.942   6.237  49.616  1.00  0.00     0.054 C 
HETATM    9  C8  UNL     1      22.875   7.275  50.463  1.00  0.00     0.031 C 
HETATM   10  C9  UNL     1      24.136   8.021  50.621  1.00  0.00     0.027 C 
HETATM   11  C10 UNL     1      25.237   7.638  49.939  1.00  0.00     0.008 C 
HETATM   12  C11 UNL     1      26.530   8.320  50.263  1.00  0.00     0.068 C 
HETATM   13  N3  UNL     1      25.176   6.602  48.922  1.00  0.00    -0.348 N 
HETATM   14  C12 UNL     1      23.914   6.041  48.546  1.00  0.00     0.188 C 
HETATM   15  C13 UNL     1      26.517   6.324  48.446  1.00  0.00     0.022 C 
HETATM   16  C15 UNL     1      27.283   5.261  48.600  1.00  0.00     0.007 C 
HETATM   17  C16 UNL     1      26.319   4.473  49.405  1.00  0.00     0.111 C 
HETATM   18  C17 UNL     1      26.490   3.234  49.908  1.00  0.00     0.108 C 
HETATM   19  O1  UNL     1      25.512   2.605  50.645  1.00  0.00    -0.389 OA
HETATM   20  C18 UNL     1      24.806   3.374  51.623  1.00  0.00     0.178 C 
ENDROOT
BRANCH   1  21
HETATM   21  C2  UNL     1      24.771   1.468  52.969  1.00  0.00     0.009 C 
HETATM   22  C1  UNL     1      25.720   2.204  53.874  1.00  0.00     0.006 C 
ENDBRANCH   1  21
BRANCH  15  23
HETATM   23  C14 UNL     1      26.922   7.519  47.712  1.00  0.00     0.171 C 
HETATM   24 CL1  UNL     1      28.551   7.482  47.031  1.00  0.00    -0.124 Cl
ENDBRANCH  15  23
TORSDOF 2
ENDMDL
MODEL 6
REMARK VINA RESULT:      -7.5      2.529      4.449
REMARK  2 active torsions:
REMARK  status: ('A' for Active; 'I' for Inactive)
REMARK    1  A    between atoms: C2_2  and  C3_3 
REMARK    2  A    between atoms: C13_17  and  C14_18 
ROOT
HETATM    1  C3  UNL     1      20.039   0.235  52.287  1.00  0.00     0.003 C 
HETATM    2  C4  UNL     1      21.149  -0.144  52.876  1.00  0.00     0.092 C 
HETATM    3  C5  UNL     1      22.139  -0.865  53.644  1.00  0.00     0.193 C 
HETATM    4  F1  UNL     1      22.388  -1.944  54.408  1.00  0.00    -0.189 F 
HETATM    5  N1  UNL     1      23.298  -0.320  53.661  1.00  0.00    -0.217 NA
HETATM    6  C6  UNL     1      23.497   0.891  52.953  1.00  0.00     0.236 C 
HETATM    7  N2  UNL     1      23.658   2.181  53.122  1.00  0.00    -0.245 NA
HETATM    8  C7  UNL     1      23.835   3.038  51.975  1.00  0.00     0.054 C 
HETATM    9  C8  UNL     1      24.551   2.531  50.961  1.00  0.00     0.031 C 
HETATM   10  C9  UNL     1      24.298   3.163  49.654  1.00  0.00     0.027 C 
HETATM   11  C10 UNL     1      23.402   4.168  49.553  1.00  0.00     0.008 C 
HETATM   12  C11 UNL     1      23.057   4.659  48.181  1.00  0.00     0.068 C 
HETATM   13  N3  UNL     1      22.792   4.762  50.730  1.00  0.00    -0.348 N 
HETATM   14  C12 UNL     1      23.216   4.358  52.036  1.00  0.00     0.188 C 
HETATM   15  C13 UNL     1      21.795   5.729  50.313  1.00  0.00     0.022 C 
HETATM   16  C15 UNL     1      20.480   5.705  50.406  1.00  0.00     0.007 C 
HETATM   17  C16 UNL     1      20.381   4.382  51.068  1.00  0.00     0.111 C 
HETATM   18  C17 UNL     1      19.260   3.741  51.456  1.00  0.00     0.108 C 
HETATM   19  O1  UNL     1      19.300   2.507  52.066  1.00  0.00    -0.389 OA
HETATM   20  C18 UNL     1      20.199   1.526  51.541  1.00  0.00     0.178 C 
ENDROOT
BRANCH   1  21
HETATM   21  C2  UNL     1      18.585  -0.087  52.033  1.00  0.00     0.009 C 
HETATM   22  C1  UNL     1      18.176  -1.117  53.049  1.00  0.00     0.006 C 
ENDBRANCH   1  21
BRANCH  15  23
HETATM   23  C14 UNL     1      22.549   6.826  49.713  1.00  0.00     0.171 C 
HETATM   24 CL1  UNL     1      23.555   7.758  50.825  1.00  0.00    -0.124 Cl
ENDBRANCH  15  23
TORSDOF 2
ENDMDL
MODEL 7
REMARK VINA RESULT:      -7.4      2.595      4.295
REMARK  2 active torsions:
REMARK  status: ('A' for Active; 'I' for Inactive)
REMARK    1  A    between atoms: C2_2  and  C3_3 
REMARK    2  A    between atoms: C13_17  and  C14_18 
ROOT
HETATM    1  C3  UNL     1      22.945  -0.434  53.136  1.00  0.00     0.003 C 
HETATM    2  C4  UNL     1      24.223  -0.138  53.097  1.00  0.00     0.092 C 
HETATM    3  C5  UNL     1      25.659  -0.151  53.266  1.00  0.00     0.193 C 
HETATM    4  F1  UNL     1      26.713  -0.801  53.788  1.00  0.00    -0.189 F 
HETATM    5  N1  UNL     1      26.266   0.837  52.722  1.00  0.00    -0.217 NA
HETATM    6  C6  UNL     1      25.506   1.814  52.031  1.00  0.00     0.236 C 
HETATM    7  N2  UNL     1      25.060   3.042  52.124  1.00  0.00    -0.245 NA
HETATM    8  C7  UNL     1      24.268   3.601  51.055  1.00  0.00     0.054 C 
HETATM    9  C8  UNL     1      24.617   3.245  49.810  1.00  0.00     0.031 C 
HETATM   10  C9  UNL     1      23.545   3.381  48.808  1.00  0.00     0.027 C 
HETATM   11  C10 UNL     1      22.329   3.835  49.179  1.00  0.00     0.008 C 
HETATM   12  C11 UNL     1      21.230   3.794  48.163  1.00  0.00     0.068 C 
HETATM   13  N3  UNL     1      22.087   4.351  50.516  1.00  0.00    -0.348 N 
HETATM   14  C12 UNL     1      23.174   4.487  51.437  1.00  0.00     0.188 C 
HETATM   15  C13 UNL     1      20.677   4.654  50.660  1.00  0.00     0.022 C 
HETATM   16  C15 UNL     1      19.740   4.075  51.387  1.00  0.00     0.007 C 
HETATM   17  C16 UNL     1      20.611   3.035  51.986  1.00  0.00     0.111 C 
HETATM   18  C17 UNL     1      20.256   2.074  52.863  1.00  0.00     0.108 C 
HETATM   19  O1  UNL     1      21.164   1.160  53.351  1.00  0.00    -0.389 OA
HETATM   20  C18 UNL     1      22.099   0.586  52.433  1.00  0.00     0.178 C 
ENDROOT
BRANCH   1  21
HETATM   21  C2  UNL     1      21.902  -1.413  53.622  1.00  0.00     0.009 C 
HETATM   22  C1  UNL     1      22.199  -1.693  55.069  1.00  0.00     0.006 C 
ENDBRANCH   1  21
BRANCH  15  23
HETATM   23  C14 UNL     1      20.437   5.801  49.790  1.00  0.00     0.171 C 
HETATM   24 CL1  UNL     1      21.127   7.332  50.335  1.00  0.00    -0.124 Cl
ENDBRANCH  15  23
TORSDOF 2
ENDMDL
MODEL 8
REMARK VINA RESULT:      -7.2      5.537      8.059
REMARK  2 active torsions:
REMARK  status: ('A' for Active; 'I' for Inactive)
REMARK    1  A    between atoms: C2_2  and  C3_3 
REMARK    2  A    between atoms: C13_17  and  C14_18 
ROOT
HETATM    1  C3  UNL     1      29.715   6.412  48.204  1.00  0.00     0.003 C 
HETATM    2  C4  UNL     1      29.821   7.644  48.645  1.00  0.00     0.092 C 
HETATM    3  C5  UNL     1      30.324   8.934  49.057  1.00  0.00     0.193 C 
HETATM    4  F1  UNL     1      31.413   9.710  49.206  1.00  0.00    -0.189 F 
HETATM    5  N1  UNL     1      29.425   9.748  49.470  1.00  0.00    -0.217 NA
HETATM    6  C6  UNL     1      28.072   9.326  49.485  1.00  0.00     0.236 C 
HETATM    7  N2  UNL     1      27.109   8.950  50.289  1.00  0.00    -0.245 NA
HETATM    8  C7  UNL     1      25.817   8.600  49.747  1.00  0.00     0.054 C 
HETATM    9  C8  UNL     1      25.397   9.327  48.701  1.00  0.00     0.031 C 
HETATM   10  C9  UNL     1      24.382   8.666  47.862  1.00  0.00     0.027 C 
HETATM   11  C10 UNL     1      23.951   7.426  48.176  1.00  0.00     0.008 C 
HETATM   12  C11 UNL     1      23.049   6.734  47.200  1.00  0.00     0.068 C 
HETATM   13  N3  UNL     1      24.341   6.779  49.417  1.00  0.00    -0.348 N 
HETATM   14  C12 UNL     1      25.110   7.497  50.387  1.00  0.00     0.188 C 
HETATM   15  C13 UNL     1      23.826   5.423  49.428  1.00  0.00     0.022 C 
HETATM   16  C15 UNL     1      24.449   4.264  49.352  1.00  0.00     0.007 C 
HETATM   17  C16 UNL     1      25.822   4.817  49.253  1.00  0.00     0.111 C 
HETATM   18  C17 UNL     1      26.977   4.130  49.145  1.00  0.00     0.108 C 
HETATM   19  O1  UNL     1      28.197   4.763  49.061  1.00  0.00    -0.389 OA
HETATM   20  C18 UNL     1      28.300   5.916  48.221  1.00  0.00     0.178 C 
ENDROOT
BRANCH   1  21
HETATM   21  C2  UNL     1      30.454   5.209  47.665  1.00  0.00     0.009 C 
HETATM   22  C1  UNL     1      31.843   5.250  48.238  1.00  0.00     0.006 C 
ENDBRANCH   1  21
BRANCH  15  23
HETATM   23  C14 UNL     1      22.377   5.561  49.540  1.00  0.00     0.171 C 
HETATM   24 CL1  UNL     1      21.789   6.239  51.062  1.00  0.00    -0.124 Cl
ENDBRANCH  15  23
TORSDOF 2
ENDMDL
MODEL 9
REMARK VINA RESULT:      -7.1      9.724     12.328
REMARK  2 active torsions:
REMARK  status: ('A' for Active; 'I' for Inactive)
REMARK    1  A    between atoms: C2_2  and  C3_3 
REMARK    2  A    between atoms: C13_17  and  C14_18 
ROOT
HETATM    1  C3  UNL     1      29.908   9.395  48.664  1.00  0.00     0.003 C 
HETATM    2  C4  UNL     1      30.517  10.315  47.953  1.00  0.00     0.092 C 
HETATM    3  C5  UNL     1      30.867  11.542  47.273  1.00  0.00     0.193 C 
HETATM    4  F1  UNL     1      30.497  12.804  46.992  1.00  0.00    -0.189 F 
HETATM    5  N1  UNL     1      31.983  11.502  46.646  1.00  0.00    -0.217 NA
HETATM    6  C6  UNL     1      32.744  10.308  46.674  1.00  0.00     0.236 C 
HETATM    7  N2  UNL     1      33.095   9.280  45.941  1.00  0.00    -0.245 NA
HETATM    8  C7  UNL     1      33.956   8.263  46.496  1.00  0.00     0.054 C 
HETATM    9  C8  UNL     1      34.919   8.690  47.327  1.00  0.00     0.031 C 
HETATM   10  C9  UNL     1      35.429   7.666  48.254  1.00  0.00     0.027 C 
HETATM   11  C10 UNL     1      34.925   6.413  48.220  1.00  0.00     0.008 C 
HETATM   12  C11 UNL     1      35.354   5.459  49.291  1.00  0.00     0.068 C 
HETATM   13  N3  UNL     1      34.000   5.996  47.180  1.00  0.00    -0.348 N 
HETATM   14  C12 UNL     1      33.688   6.884  46.101  1.00  0.00     0.188 C 
HETATM   15  C13 UNL     1      33.542   4.650  47.463  1.00  0.00     0.022 C 
HETATM   16  C15 UNL     1      32.358   4.202  47.832  1.00  0.00     0.007 C 
HETATM   17  C16 UNL     1      31.679   5.520  47.855  1.00  0.00     0.111 C 
HETATM   18  C17 UNL     1      30.392   5.774  48.167  1.00  0.00     0.108 C 
HETATM   19  O1  UNL     1      29.876   7.051  48.151  1.00  0.00    -0.389 OA
HETATM   20  C18 UNL     1      30.670   8.104  48.704  1.00  0.00     0.178 C 
ENDROOT
BRANCH   1  21
HETATM   21  C2  UNL     1      28.694   9.059  49.497  1.00  0.00     0.009 C 
HETATM   22  C1  UNL     1      27.580   9.959  49.038  1.00  0.00     0.006 C 
ENDBRANCH   1  21
BRANCH  15  23
HETATM   23  C14 UNL     1      34.708   3.795  47.262  1.00  0.00     0.171 C 
HETATM   24 CL1  UNL     1      35.238   3.604  45.588  1.00  0.00    -0.124 Cl
ENDBRANCH  15  23
TORSDOF 2
ENDMDL
