MODEL 1
REMARK VINA RESULT:      -8.7      0.000      0.000
REMARK  4 active torsions:
REMARK  status: ('A' for Active; 'I' for Inactive)
REMARK    1  A    between atoms: C7_7  and  N1_8 
REMARK    2  A    between atoms: N1_8  and  C8_9 
REMARK    3  A    between atoms: C12_15  and  O1_16 
REMARK    4  A    between atoms: O1_16  and  C13_17 
ROOT
HETATM    1  C1  UNL     1      29.831   2.104  54.743  1.00  0.00     0.018 C 
HETATM    2  C2  UNL     1      29.039   1.349  54.267  1.00  0.00    -0.078 C 
HETATM    3  C3  UNL     1      28.085   0.458  53.676  1.00  0.00     0.019 A 
HETATM    4  C4  UNL     1      28.518  -0.802  53.317  1.00  0.00     0.021 A 
HETATM    5  C5  UNL     1      27.615  -1.665  52.750  1.00  0.00     0.004 A 
HETATM    6  C6  UNL     1      26.313  -1.305  52.539  1.00  0.00     0.029 A 
HETATM    7  C7  UNL     1      25.803  -0.067  52.871  1.00  0.00     0.035 A 
HETATM    8  C21 UNL     1      26.747   0.789  53.444  1.00  0.00     0.050 A 
ENDROOT
BRANCH   7   9
HETATM    9  N1  UNL     1      24.472   0.424  52.676  1.00  0.00    -0.340 N 
HETATM   10  H5  UNL     1      24.638   1.169  51.981  1.00  0.00     0.167 HD
BRANCH   9  11
HETATM   11  C8  UNL     1      23.433  -0.174  53.399  1.00  0.00     0.144 A 
HETATM   12  N2  UNL     1      23.729  -0.884  54.481  1.00  0.00    -0.223 NA
HETATM   13  C9  UNL     1      22.831  -1.495  55.264  1.00  0.00     0.236 A 
HETATM   14  N3  UNL     1      21.527  -1.401  54.957  1.00  0.00    -0.241 NA
HETATM   15  C10 UNL     1      21.129  -0.705  53.881  1.00  0.00     0.077 A 
HETATM   16  C11 UNL     1      19.798  -0.590  53.555  1.00  0.00     0.072 A 
HETATM   17  C18 UNL     1      22.091  -0.098  53.114  1.00  0.00     0.075 A 
HETATM   18  C12 UNL     1      19.338   0.120  52.468  1.00  0.00     0.108 A 
HETATM   19  C16 UNL     1      20.355   0.725  51.708  1.00  0.00     0.136 A 
HETATM   20  C17 UNL     1      21.707   0.629  52.010  1.00  0.00     0.121 A 
HETATM   21  O4  UNL     1      20.062   1.479  50.574  1.00  0.00    -0.344 OA
HETATM   22  O3  UNL     1      22.585   1.278  51.171  1.00  0.00    -0.345 OA
HETATM   23  C19 UNL     1      22.368   1.610  49.835  1.00  0.00     0.202 C 
HETATM   24  C20 UNL     1      20.922   1.457  49.421  1.00  0.00     0.202 C 
BRANCH  18  25
HETATM   25  O1  UNL     1      18.048   0.306  52.048  1.00  0.00    -0.330 OA
BRANCH  25  26
HETATM   26  C13 UNL     1      17.225  -0.761  51.739  1.00  0.00     0.216 C 
HETATM   27  C14 UNL     1      16.016  -0.795  52.715  1.00  0.00     0.212 C 
HETATM   28  O2  UNL     1      15.046  -1.559  52.092  1.00  0.00    -0.378 OA
HETATM   29  C15 UNL     1      14.613  -0.793  50.980  1.00  0.00     0.244 C 
HETATM   30  S1  UNL     1      16.266  -0.522  50.210  1.00  0.00    -0.109 SA
ENDBRANCH  25  26
ENDBRANCH  18  25
ENDBRANCH   9  11
ENDBRANCH   7   9
TORSDOF 4
ENDMDL
MODEL 2
REMARK VINA RESULT:      -8.4      2.592      3.267
REMARK  4 active torsions:
REMARK  status: ('A' for Active; 'I' for Inactive)
REMARK    1  A    between atoms: C7_7  and  N1_8 
REMARK    2  A    between atoms: N1_8  and  C8_9 
REMARK    3  A    between atoms: C12_15  and  O1_16 
REMARK    4  A    between atoms: O1_16  and  C13_17 
ROOT
HETATM    1  C1  UNL     1      29.000  -2.750  53.171  1.00  0.00     0.018 C 
HETATM    2  C2  UNL     1      28.702  -1.595  53.193  1.00  0.00    -0.078 C 
HETATM    3  C3  UNL     1      28.322  -0.214  53.234  1.00  0.00     0.019 A 
HETATM    4  C4  UNL     1      29.191   0.675  53.834  1.00  0.00     0.021 A 
HETATM    5  C5  UNL     1      28.841   1.999  53.879  1.00  0.00     0.004 A 
HETATM    6  C6  UNL     1      27.664   2.450  53.348  1.00  0.00     0.029 A 
HETATM    7  C7  UNL     1      26.744   1.627  52.732  1.00  0.00     0.035 A 
HETATM    8  C21 UNL     1      27.128   0.284  52.703  1.00  0.00     0.050 A 
ENDROOT
BRANCH   7   9
HETATM    9  N1  UNL     1      25.478   1.982  52.165  1.00  0.00    -0.340 N 
HETATM   10  H5  UNL     1      25.765   2.696  51.477  1.00  0.00     0.167 HD
BRANCH   9  11
HETATM   11  C8  UNL     1      24.333   1.335  52.645  1.00  0.00     0.144 A 
HETATM   12  N2  UNL     1      24.463   0.158  53.244  1.00  0.00    -0.223 NA
HETATM   13  C9  UNL     1      23.453  -0.557  53.755  1.00  0.00     0.236 A 
HETATM   14  N3  UNL     1      22.203  -0.070  53.672  1.00  0.00    -0.241 NA
HETATM   15  C10 UNL     1      21.970   1.114  53.085  1.00  0.00     0.077 A 
HETATM   16  C11 UNL     1      20.700   1.632  52.999  1.00  0.00     0.072 A 
HETATM   17  C18 UNL     1      23.042   1.804  52.578  1.00  0.00     0.075 A 
HETATM   18  C12 UNL     1      20.410   2.845  52.415  1.00  0.00     0.108 A 
HETATM   19  C16 UNL     1      21.535   3.519  51.906  1.00  0.00     0.136 A 
HETATM   20  C17 UNL     1      22.830   3.024  51.979  1.00  0.00     0.121 A 
HETATM   21  O4  UNL     1      21.418   4.759  51.283  1.00  0.00    -0.344 OA
HETATM   22  O3  UNL     1      23.830   3.800  51.437  1.00  0.00    -0.345 OA
HETATM   23  C19 UNL     1      23.689   4.758  50.433  1.00  0.00     0.202 C 
HETATM   24  C20 UNL     1      22.245   5.110  50.160  1.00  0.00     0.202 C 
BRANCH  18  25
HETATM   25  O1  UNL     1      19.195   3.461  52.273  1.00  0.00    -0.330 OA
BRANCH  25  26
HETATM   26  C13 UNL     1      18.195   2.919  51.486  1.00  0.00     0.216 C 
HETATM   27  C14 UNL     1      16.862   3.681  51.729  1.00  0.00     0.212 C 
HETATM   28  O2  UNL     1      16.064   3.411  50.632  1.00  0.00    -0.378 OA
HETATM   29  C15 UNL     1      16.682   4.070  49.540  1.00  0.00     0.244 C 
HETATM   30  S1  UNL     1      18.358   3.322  49.718  1.00  0.00    -0.109 SA
ENDBRANCH  25  26
ENDBRANCH  18  25
ENDBRANCH   9  11
ENDBRANCH   7   9
TORSDOF 4
ENDMDL
MODEL 3
REMARK VINA RESULT:      -8.3      4.388      5.642
REMARK  4 active torsions:
REMARK  status: ('A' for Active; 'I' for Inactive)
REMARK    1  A    between atoms: C7_7  and  N1_8 
REMARK    2  A    between atoms: N1_8  and  C8_9 
REMARK    3  A    between atoms: C12_15  and  O1_16 
REMARK    4  A    between atoms: O1_16  and  C13_17 
ROOT
HETATM    1  C1  UNL     1      29.577   7.811  46.844  1.00  0.00     0.018 C 
HETATM    2  C2  UNL     1      28.700   7.384  47.530  1.00  0.00    -0.078 C 
HETATM    3  C3  UNL     1      27.665   6.858  48.370  1.00  0.00     0.019 A 
HETATM    4  C4  UNL     1      26.911   7.755  49.101  1.00  0.00     0.021 A 
HETATM    5  C5  UNL     1      25.917   7.265  49.907  1.00  0.00     0.004 A 
HETATM    6  C6  UNL     1      25.661   5.925  50.000  1.00  0.00     0.029 A 
HETATM    7  C7  UNL     1      26.367   4.967  49.303  1.00  0.00     0.035 A 
HETATM    8  C21 UNL     1      27.373   5.496  48.491  1.00  0.00     0.050 A 
ENDROOT
BRANCH   7   9
HETATM    9  N1  UNL     1      26.203   3.545  49.339  1.00  0.00    -0.340 N 
HETATM   10  H5  UNL     1      26.242   3.318  48.333  1.00  0.00     0.167 HD
BRANCH   9  11
HETATM   11  C8  UNL     1      26.052   2.927  50.586  1.00  0.00     0.144 A 
HETATM   12  N2  UNL     1      27.131   2.703  51.326  1.00  0.00    -0.223 NA
HETATM   13  C9  UNL     1      27.122   2.132  52.537  1.00  0.00     0.236 A 
HETATM   14  N3  UNL     1      25.950   1.748  53.069  1.00  0.00    -0.241 NA
HETATM   15  C10 UNL     1      24.804   1.934  52.396  1.00  0.00     0.077 A 
HETATM   16  C11 UNL     1      23.593   1.556  52.927  1.00  0.00     0.072 A 
HETATM   17  C18 UNL     1      24.870   2.524  51.159  1.00  0.00     0.075 A 
HETATM   18  C12 UNL     1      22.389   1.732  52.281  1.00  0.00     0.108 A 
HETATM   19  C16 UNL     1      22.501   2.337  51.017  1.00  0.00     0.136 A 
HETATM   20  C17 UNL     1      23.707   2.731  50.454  1.00  0.00     0.121 A 
HETATM   21  O4  UNL     1      21.379   2.588  50.231  1.00  0.00    -0.344 OA
HETATM   22  O3  UNL     1      23.657   3.313  49.207  1.00  0.00    -0.345 OA
HETATM   23  C19 UNL     1      22.660   3.139  48.247  1.00  0.00     0.202 C 
HETATM   24  C20 UNL     1      21.429   2.459  48.798  1.00  0.00     0.202 C 
BRANCH  18  25
HETATM   25  O1  UNL     1      21.131   1.401  52.707  1.00  0.00    -0.330 OA
BRANCH  25  26
HETATM   26  C13 UNL     1      20.604   0.139  52.502  1.00  0.00     0.216 C 
HETATM   27  C14 UNL     1      19.934  -0.372  53.808  1.00  0.00     0.212 C 
HETATM   28  O2  UNL     1      19.069  -1.379  53.423  1.00  0.00    -0.378 OA
HETATM   29  C15 UNL     1      18.035  -0.738  52.695  1.00  0.00     0.244 C 
HETATM   30  S1  UNL     1      19.103   0.135  51.471  1.00  0.00    -0.109 SA
ENDBRANCH  25  26
ENDBRANCH  18  25
ENDBRANCH   9  11
ENDBRANCH   7   9
TORSDOF 4
ENDMDL
MODEL 4
REMARK VINA RESULT:      -8.2      3.604      8.645
REMARK  4 active torsions:
REMARK  status: ('A' for Active; 'I' for Inactive)
REMARK    1  A    between atoms: C7_7  and  N1_8 
REMARK    2  A    between atoms: N1_8  and  C8_9 
REMARK    3  A    between atoms: C12_15  and  O1_16 
REMARK    4  A    between atoms: O1_16  and  C13_17 
ROOT
HETATM    1  C1  UNL     1      14.455   3.604  50.967  1.00  0.00     0.018 C 
HETATM    2  C2  UNL     1      15.388   2.861  50.934  1.00  0.00    -0.078 C 
HETATM    3  C3  UNL     1      16.506   1.964  50.921  1.00  0.00     0.019 A 
HETATM    4  C4  UNL     1      16.374   0.782  50.221  1.00  0.00     0.021 A 
HETATM    5  C5  UNL     1      17.436  -0.084  50.199  1.00  0.00     0.004 A 
HETATM    6  C6  UNL     1      18.607   0.197  50.848  1.00  0.00     0.029 A 
HETATM    7  C7  UNL     1      18.817   1.356  51.566  1.00  0.00     0.035 A 
HETATM    8  C21 UNL     1      17.717   2.217  51.571  1.00  0.00     0.050 A 
ENDROOT
BRANCH   7   9
HETATM    9  N1  UNL     1      19.985   1.744  52.299  1.00  0.00    -0.340 N 
HETATM   10  H5  UNL     1      19.964   2.768  52.173  1.00  0.00     0.167 HD
BRANCH   9  11
HETATM   11  C8  UNL     1      20.744   0.741  52.914  1.00  0.00     0.144 A 
HETATM   12  N2  UNL     1      20.117  -0.240  53.551  1.00  0.00    -0.223 NA
HETATM   13  C9  UNL     1      20.723  -1.262  54.168  1.00  0.00     0.236 A 
HETATM   14  N3  UNL     1      22.065  -1.326  54.159  1.00  0.00    -0.241 NA
HETATM   15  C10 UNL     1      22.788  -0.380  53.539  1.00  0.00     0.077 A 
HETATM   16  C11 UNL     1      24.161  -0.432  53.511  1.00  0.00     0.072 A 
HETATM   17  C18 UNL     1      22.115   0.645  52.922  1.00  0.00     0.075 A 
HETATM   18  C12 UNL     1      24.947   0.509  52.883  1.00  0.00     0.108 A 
HETATM   19  C16 UNL     1      24.220   1.542  52.265  1.00  0.00     0.136 A 
HETATM   20  C17 UNL     1      22.834   1.623  52.274  1.00  0.00     0.121 A 
HETATM   21  O4  UNL     1      24.861   2.575  51.586  1.00  0.00    -0.344 OA
HETATM   22  O3  UNL     1      22.264   2.694  51.624  1.00  0.00    -0.345 OA
HETATM   23  C19 UNL     1      22.861   3.929  51.372  1.00  0.00     0.202 C 
HETATM   24  C20 UNL     1      24.351   3.920  51.621  1.00  0.00     0.202 C 
BRANCH  18  25
HETATM   25  O1  UNL     1      26.312   0.560  52.786  1.00  0.00    -0.330 OA
BRANCH  25  26
HETATM   26  C13 UNL     1      27.128  -0.118  53.673  1.00  0.00     0.216 C 
HETATM   27  C14 UNL     1      27.784  -1.334  52.960  1.00  0.00     0.212 C 
HETATM   28  O2  UNL     1      28.886  -1.674  53.724  1.00  0.00    -0.378 OA
HETATM   29  C15 UNL     1      29.803  -0.604  53.569  1.00  0.00     0.244 C 
HETATM   30  S1  UNL     1      28.671   0.764  54.065  1.00  0.00    -0.109 SA
ENDBRANCH  25  26
ENDBRANCH  18  25
ENDBRANCH   9  11
ENDBRANCH   7   9
TORSDOF 4
ENDMDL
MODEL 5
REMARK VINA RESULT:      -8.2      4.923      8.652
REMARK  4 active torsions:
REMARK  status: ('A' for Active; 'I' for Inactive)
REMARK    1  A    between atoms: C7_7  and  N1_8 
REMARK    2  A    between atoms: N1_8  and  C8_9 
REMARK    3  A    between atoms: C12_15  and  O1_16 
REMARK    4  A    between atoms: O1_16  and  C13_17 
ROOT
HETATM    1  C1  UNL     1      17.952  -0.899  52.835  1.00  0.00     0.018 C 
HETATM    2  C2  UNL     1      19.105  -0.757  53.105  1.00  0.00    -0.078 C 
HETATM    3  C3  UNL     1      20.484  -0.565  53.444  1.00  0.00     0.019 A 
HETATM    4  C4  UNL     1      21.116  -1.561  54.160  1.00  0.00     0.021 A 
HETATM    5  C5  UNL     1      22.435  -1.391  54.490  1.00  0.00     0.004 A 
HETATM    6  C6  UNL     1      23.128  -0.269  54.128  1.00  0.00     0.029 A 
HETATM    7  C7  UNL     1      22.569   0.769  53.411  1.00  0.00     0.035 A 
HETATM    8  C21 UNL     1      21.225   0.567  53.091  1.00  0.00     0.050 A 
ENDROOT
BRANCH   7   9
HETATM    9  N1  UNL     1      23.188   1.994  52.999  1.00  0.00    -0.340 N 
HETATM   10  H5  UNL     1      22.492   2.683  53.324  1.00  0.00     0.167 HD
BRANCH   9  11
HETATM   11  C8  UNL     1      24.422   1.924  52.343  1.00  0.00     0.144 A 
HETATM   12  N2  UNL     1      25.243   0.920  52.625  1.00  0.00    -0.223 NA
HETATM   13  C9  UNL     1      26.444   0.732  52.062  1.00  0.00     0.236 A 
HETATM   14  N3  UNL     1      26.876   1.608  51.140  1.00  0.00    -0.241 NA
HETATM   15  C10 UNL     1      26.116   2.657  50.788  1.00  0.00     0.077 A 
HETATM   16  C11 UNL     1      26.537   3.559  49.840  1.00  0.00     0.072 A 
HETATM   17  C18 UNL     1      24.895   2.801  51.396  1.00  0.00     0.075 A 
HETATM   18  C12 UNL     1      25.791   4.645  49.438  1.00  0.00     0.108 A 
HETATM   19  C16 UNL     1      24.548   4.758  50.086  1.00  0.00     0.136 A 
HETATM   20  C17 UNL     1      24.094   3.864  51.046  1.00  0.00     0.121 A 
HETATM   21  O4  UNL     1      23.671   5.800  49.796  1.00  0.00    -0.344 OA
HETATM   22  O3  UNL     1      22.853   4.105  51.590  1.00  0.00    -0.345 OA
HETATM   23  C19 UNL     1      22.204   5.337  51.671  1.00  0.00     0.202 C 
HETATM   24  C20 UNL     1      22.863   6.401  50.823  1.00  0.00     0.202 C 
BRANCH  18  25
HETATM   25  O1  UNL     1      26.102   5.603  48.510  1.00  0.00    -0.330 OA
BRANCH  25  26
HETATM   26  C13 UNL     1      26.968   6.641  48.800  1.00  0.00     0.216 C 
HETATM   27  C14 UNL     1      28.392   6.301  48.276  1.00  0.00     0.212 C 
HETATM   28  O2  UNL     1      29.062   7.508  48.186  1.00  0.00    -0.378 OA
HETATM   29  C15 UNL     1      28.431   8.217  47.133  1.00  0.00     0.244 C 
HETATM   30  S1  UNL     1      26.704   8.120  47.771  1.00  0.00    -0.109 SA
ENDBRANCH  25  26
ENDBRANCH  18  25
ENDBRANCH   9  11
ENDBRANCH   7   9
TORSDOF 4
ENDMDL
MODEL 6
REMARK VINA RESULT:      -8.2      2.432      4.190
REMARK  4 active torsions:
REMARK  status: ('A' for Active; 'I' for Inactive)
REMARK    1  A    between atoms: C7_7  and  N1_8 
REMARK    2  A    between atoms: N1_8  and  C8_9 
REMARK    3  A    between atoms: C12_15  and  O1_16 
REMARK    4  A    between atoms: O1_16  and  C13_17 
ROOT
HETATM    1  C1  UNL     1      28.897  -2.847  53.095  1.00  0.00     0.018 C 
HETATM    2  C2  UNL     1      28.650  -1.685  53.207  1.00  0.00    -0.078 C 
HETATM    3  C3  UNL     1      28.336  -0.296  53.362  1.00  0.00     0.019 A 
HETATM    4  C4  UNL     1      29.356   0.557  53.734  1.00  0.00     0.021 A 
HETATM    5  C5  UNL     1      29.069   1.889  53.884  1.00  0.00     0.004 A 
HETATM    6  C6  UNL     1      27.811   2.382  53.674  1.00  0.00     0.029 A 
HETATM    7  C7  UNL     1      26.741   1.597  53.299  1.00  0.00     0.035 A 
HETATM    8  C21 UNL     1      27.063   0.245  53.156  1.00  0.00     0.050 A 
ENDROOT
BRANCH   7   9
HETATM    9  N1  UNL     1      25.384   1.997  53.076  1.00  0.00    -0.340 N 
HETATM   10  H5  UNL     1      24.971   1.815  54.004  1.00  0.00     0.167 HD
BRANCH   9  11
HETATM   11  C8  UNL     1      25.035   2.471  51.806  1.00  0.00     0.144 A 
HETATM   12  N2  UNL     1      25.880   3.266  51.161  1.00  0.00    -0.223 NA
HETATM   13  C9  UNL     1      25.671   3.776  49.941  1.00  0.00     0.236 A 
HETATM   14  N3  UNL     1      24.531   3.478  49.296  1.00  0.00    -0.241 NA
HETATM   15  C10 UNL     1      23.614   2.681  49.866  1.00  0.00     0.077 A 
HETATM   16  C11 UNL     1      22.446   2.358  49.218  1.00  0.00     0.072 A 
HETATM   17  C18 UNL     1      23.879   2.186  51.117  1.00  0.00     0.075 A 
HETATM   18  C12 UNL     1      21.478   1.538  49.756  1.00  0.00     0.108 A 
HETATM   19  C16 UNL     1      21.787   1.053  51.039  1.00  0.00     0.136 A 
HETATM   20  C17 UNL     1      22.958   1.360  51.719  1.00  0.00     0.121 A 
HETATM   21  O4  UNL     1      20.915   0.212  51.726  1.00  0.00    -0.344 OA
HETATM   22  O3  UNL     1      23.120   0.808  52.970  1.00  0.00    -0.345 OA
HETATM   23  C19 UNL     1      22.107   0.385  53.831  1.00  0.00     0.202 C 
HETATM   24  C20 UNL     1      20.759   0.305  53.153  1.00  0.00     0.202 C 
BRANCH  18  25
HETATM   25  O1  UNL     1      20.285   1.146  49.209  1.00  0.00    -0.330 OA
BRANCH  25  26
HETATM   26  C13 UNL     1      19.156   1.941  49.287  1.00  0.00     0.216 C 
HETATM   27  C14 UNL     1      17.997   1.145  49.950  1.00  0.00     0.212 C 
HETATM   28  O2  UNL     1      17.093   2.091  50.397  1.00  0.00    -0.378 OA
HETATM   29  C15 UNL     1      17.743   2.767  51.460  1.00  0.00     0.244 C 
HETATM   30  S1  UNL     1      19.270   3.250  50.547  1.00  0.00    -0.109 SA
ENDBRANCH  25  26
ENDBRANCH  18  25
ENDBRANCH   9  11
ENDBRANCH   7   9
TORSDOF 4
ENDMDL
MODEL 7
REMARK VINA RESULT:      -8.0      5.124      7.535
REMARK  4 active torsions:
REMARK  status: ('A' for Active; 'I' for Inactive)
REMARK    1  A    between atoms: C7_7  and  N1_8 
REMARK    2  A    between atoms: N1_8  and  C8_9 
REMARK    3  A    between atoms: C12_15  and  O1_16 
REMARK    4  A    between atoms: O1_16  and  C13_17 
ROOT
HETATM    1  C1  UNL     1      28.601   0.246  54.829  1.00  0.00     0.018 C 
HETATM    2  C2  UNL     1      27.472   0.222  54.444  1.00  0.00    -0.078 C 
HETATM    3  C3  UNL     1      26.124   0.183  53.958  1.00  0.00     0.019 A 
HETATM    4  C4  UNL     1      25.231  -0.646  54.605  1.00  0.00     0.021 A 
HETATM    5  C5  UNL     1      23.938  -0.692  54.151  1.00  0.00     0.004 A 
HETATM    6  C6  UNL     1      23.523   0.057  53.086  1.00  0.00     0.029 A 
HETATM    7  C7  UNL     1      24.353   0.910  52.388  1.00  0.00     0.035 A 
HETATM    8  C21 UNL     1      25.663   0.934  52.873  1.00  0.00     0.050 A 
ENDROOT
BRANCH   7   9
HETATM    9  N1  UNL     1      24.036   1.721  51.250  1.00  0.00    -0.340 N 
HETATM   10  H5  UNL     1      24.589   1.251  50.516  1.00  0.00     0.167 HD
BRANCH   9  11
HETATM   11  C8  UNL     1      23.164   2.801  51.430  1.00  0.00     0.144 A 
HETATM   12  N2  UNL     1      21.960   2.577  51.941  1.00  0.00    -0.223 NA
HETATM   13  C9  UNL     1      21.039   3.521  52.172  1.00  0.00     0.236 A 
HETATM   14  N3  UNL     1      21.327   4.799  51.876  1.00  0.00    -0.241 NA
HETATM   15  C10 UNL     1      22.521   5.126  51.356  1.00  0.00     0.077 A 
HETATM   16  C11 UNL     1      22.837   6.429  51.055  1.00  0.00     0.072 A 
HETATM   17  C18 UNL     1      23.427   4.119  51.139  1.00  0.00     0.075 A 
HETATM   18  C12 UNL     1      24.050   6.816  50.528  1.00  0.00     0.108 A 
HETATM   19  C16 UNL     1      24.949   5.755  50.319  1.00  0.00     0.136 A 
HETATM   20  C17 UNL     1      24.660   4.429  50.614  1.00  0.00     0.121 A 
HETATM   21  O4  UNL     1      26.219   5.973  49.792  1.00  0.00    -0.344 OA
HETATM   22  O3  UNL     1      25.643   3.501  50.356  1.00  0.00    -0.345 OA
HETATM   23  C19 UNL     1      26.678   3.620  49.429  1.00  0.00     0.202 C 
HETATM   24  C20 UNL     1      26.827   5.026  48.895  1.00  0.00     0.202 C 
BRANCH  18  25
HETATM   25  O1  UNL     1      24.477   8.073  50.192  1.00  0.00    -0.330 OA
BRANCH  25  26
HETATM   26  C13 UNL     1      24.005   8.723  49.067  1.00  0.00     0.216 C 
HETATM   27  C14 UNL     1      25.140   9.580  48.438  1.00  0.00     0.212 C 
HETATM   28  O2  UNL     1      24.757   9.817  47.131  1.00  0.00    -0.378 OA
HETATM   29  C15 UNL     1      24.827   8.561  46.478  1.00  0.00     0.244 C 
HETATM   30  S1  UNL     1      23.748   7.620  47.641  1.00  0.00    -0.109 SA
ENDBRANCH  25  26
ENDBRANCH  18  25
ENDBRANCH   9  11
ENDBRANCH   7   9
TORSDOF 4
ENDMDL
MODEL 8
REMARK VINA RESULT:      -7.9      3.530      8.995
REMARK  4 active torsions:
REMARK  status: ('A' for Active; 'I' for Inactive)
REMARK    1  A    between atoms: C7_7  and  N1_8 
REMARK    2  A    between atoms: N1_8  and  C8_9 
REMARK    3  A    between atoms: C12_15  and  O1_16 
REMARK    4  A    between atoms: O1_16  and  C13_17 
ROOT
HETATM    1  C1  UNL     1      15.159   3.900  52.766  1.00  0.00     0.018 C 
HETATM    2  C2  UNL     1      15.611   3.003  52.124  1.00  0.00    -0.078 C 
HETATM    3  C3  UNL     1      16.157   1.909  51.375  1.00  0.00     0.019 A 
HETATM    4  C4  UNL     1      15.366   1.342  50.396  1.00  0.00     0.021 A 
HETATM    5  C5  UNL     1      15.876   0.296  49.672  1.00  0.00     0.004 A 
HETATM    6  C6  UNL     1      17.135  -0.188  49.896  1.00  0.00     0.029 A 
HETATM    7  C7  UNL     1      17.986   0.325  50.853  1.00  0.00     0.035 A 
HETATM    8  C21 UNL     1      17.438   1.387  51.575  1.00  0.00     0.050 A 
ENDROOT
BRANCH   7   9
HETATM    9  N1  UNL     1      19.307  -0.114  51.189  1.00  0.00    -0.340 N 
HETATM   10  H5  UNL     1      19.097  -0.927  51.790  1.00  0.00     0.167 HD
BRANCH   9  11
HETATM   11  C8  UNL     1      20.394   0.600  50.670  1.00  0.00     0.144 A 
HETATM   12  N2  UNL     1      20.289   1.139  49.462  1.00  0.00    -0.223 NA
HETATM   13  C9  UNL     1      21.248   1.853  48.857  1.00  0.00     0.236 A 
HETATM   14  N3  UNL     1      22.412   2.054  49.497  1.00  0.00    -0.241 NA
HETATM   15  C10 UNL     1      22.612   1.548  50.723  1.00  0.00     0.077 A 
HETATM   16  C11 UNL     1      23.793   1.751  51.397  1.00  0.00     0.072 A 
HETATM   17  C18 UNL     1      21.596   0.825  51.296  1.00  0.00     0.075 A 
HETATM   18  C12 UNL     1      24.044   1.260  52.660  1.00  0.00     0.108 A 
HETATM   19  C16 UNL     1      22.980   0.524  53.210  1.00  0.00     0.136 A 
HETATM   20  C17 UNL     1      21.775   0.303  52.556  1.00  0.00     0.121 A 
HETATM   21  O4  UNL     1      23.069  -0.042  54.479  1.00  0.00    -0.344 OA
HETATM   22  O3  UNL     1      20.826  -0.437  53.225  1.00  0.00    -0.345 OA
HETATM   23  C19 UNL     1      21.057  -1.373  54.233  1.00  0.00     0.202 C 
HETATM   24  C20 UNL     1      22.468  -1.316  54.771  1.00  0.00     0.202 C 
BRANCH  18  25
HETATM   25  O1  UNL     1      25.171   1.398  53.425  1.00  0.00    -0.330 OA
BRANCH  25  26
HETATM   26  C13 UNL     1      26.399   0.923  53.001  1.00  0.00     0.216 C 
HETATM   27  C14 UNL     1      27.417   2.094  52.917  1.00  0.00     0.212 C 
HETATM   28  O2  UNL     1      28.671   1.510  52.940  1.00  0.00    -0.378 OA
HETATM   29  C15 UNL     1      28.819   0.973  54.243  1.00  0.00     0.244 C 
HETATM   30  S1  UNL     1      27.282  -0.045  54.265  1.00  0.00    -0.109 SA
ENDBRANCH  25  26
ENDBRANCH  18  25
ENDBRANCH   9  11
ENDBRANCH   7   9
TORSDOF 4
ENDMDL
MODEL 9
REMARK VINA RESULT:      -7.8      6.330      9.642
REMARK  4 active torsions:
REMARK  status: ('A' for Active; 'I' for Inactive)
REMARK    1  A    between atoms: C7_7  and  N1_8 
REMARK    2  A    between atoms: N1_8  and  C8_9 
REMARK    3  A    between atoms: C12_15  and  O1_16 
REMARK    4  A    between atoms: O1_16  and  C13_17 
ROOT
HETATM    1  C1  UNL     1      21.960  -0.936  54.936  1.00  0.00     0.018 C 
HETATM    2  C2  UNL     1      21.936  -0.274  53.944  1.00  0.00    -0.078 C 
HETATM    3  C3  UNL     1      21.934   0.519  52.750  1.00  0.00     0.019 A 
HETATM    4  C4  UNL     1      21.249   0.032  51.656  1.00  0.00     0.021 A 
HETATM    5  C5  UNL     1      21.238   0.780  50.508  1.00  0.00     0.004 A 
HETATM    6  C6  UNL     1      21.883   1.984  50.427  1.00  0.00     0.029 A 
HETATM    7  C7  UNL     1      22.586   2.539  51.476  1.00  0.00     0.035 A 
HETATM    8  C21 UNL     1      22.581   1.753  52.630  1.00  0.00     0.050 A 
ENDROOT
BRANCH   7   9
HETATM    9  N1  UNL     1      23.314   3.772  51.499  1.00  0.00    -0.340 N 
HETATM   10  H5  UNL     1      22.659   4.376  52.020  1.00  0.00     0.167 HD
BRANCH   9  11
HETATM   11  C8  UNL     1      24.569   3.812  50.879  1.00  0.00     0.144 A 
HETATM   12  N2  UNL     1      25.415   2.809  51.076  1.00  0.00    -0.223 NA
HETATM   13  C9  UNL     1      26.636   2.721  50.534  1.00  0.00     0.236 A 
HETATM   14  N3  UNL     1      27.064   3.706  49.727  1.00  0.00    -0.241 NA
HETATM   15  C10 UNL     1      26.280   4.763  49.468  1.00  0.00     0.077 A 
HETATM   16  C11 UNL     1      26.696   5.776  48.637  1.00  0.00     0.072 A 
HETATM   17  C18 UNL     1      25.037   4.802  50.048  1.00  0.00     0.075 A 
HETATM   18  C12 UNL     1      25.926   6.877  48.333  1.00  0.00     0.108 A 
HETATM   19  C16 UNL     1      24.662   6.880  48.949  1.00  0.00     0.136 A 
HETATM   20  C17 UNL     1      24.212   5.872  49.791  1.00  0.00     0.121 A 
HETATM   21  O4  UNL     1      23.759   7.920  48.747  1.00  0.00    -0.344 OA
HETATM   22  O3  UNL     1      22.948   6.014  50.319  1.00  0.00    -0.345 OA
HETATM   23  C19 UNL     1      22.257   7.210  50.513  1.00  0.00     0.202 C 
HETATM   24  C20 UNL     1      22.902   8.380  49.808  1.00  0.00     0.202 C 
BRANCH  18  25
HETATM   25  O1  UNL     1      26.231   7.939  47.524  1.00  0.00    -0.330 OA
BRANCH  25  26
HETATM   26  C13 UNL     1      27.004   8.994  47.973  1.00  0.00     0.216 C 
HETATM   27  C14 UNL     1      28.095   9.333  46.918  1.00  0.00     0.212 C 
HETATM   28  O2  UNL     1      28.510  10.622  47.201  1.00  0.00    -0.378 OA
HETATM   29  C15 UNL     1      27.407  11.455  46.885  1.00  0.00     0.244 C 
HETATM   30  S1  UNL     1      26.147  10.599  47.924  1.00  0.00    -0.109 SA
ENDBRANCH  25  26
ENDBRANCH  18  25
ENDBRANCH   9  11
ENDBRANCH   7   9
TORSDOF 4
ENDMDL
