MODEL 1
REMARK VINA RESULT:      -8.4      0.000      0.000
REMARK  1 active torsions:
REMARK  status: ('A' for Active; 'I' for Inactive)
REMARK    1  A    between atoms: C5_6  and  C6_7 
ROOT
HETATM    1  C6  UNL     1      25.272   2.740  51.007  1.00  0.00     0.093 C 
HETATM    2  C7  UNL     1      26.096   2.231  52.012  1.00  0.00     0.068 C 
HETATM    3  N1  UNL     1      27.360   2.935  52.220  1.00  0.00    -0.388 N 
HETATM    4  C8  UNL     1      27.861   2.178  53.341  1.00  0.00     0.132 C 
HETATM    5  C9  UNL     1      26.799   0.900  53.462  1.00  0.00     0.008 A 
HETATM    6  C10 UNL     1      27.290   0.363  51.996  1.00  0.00     0.020 A 
HETATM    7  C11 UNL     1      26.486  -0.453  52.599  1.00  0.00     0.027 A 
HETATM    8  C12 UNL     1      25.586  -1.380  53.261  1.00  0.00    -0.016 A 
HETATM    9  C13 UNL     1      25.233  -0.831  54.479  1.00  0.00    -0.017 A 
HETATM   10  C14 UNL     1      25.811   0.381  54.708  1.00  0.00     0.014 A 
HETATM   11  O1  UNL     1      26.594   1.178  54.051  1.00  0.00     0.000 OA
HETATM   12  C15 UNL     1      25.737   1.016  52.653  1.00  0.00     0.120 C 
HETATM   13  N2  UNL     1      24.403   0.901  52.936  1.00  0.00    -0.366 N 
HETATM   14  C16 UNL     1      23.570   1.390  51.876  1.00  0.00     0.204 C 
HETATM   15  N3  UNL     1      23.900   2.267  50.925  1.00  0.00    -0.241 NA
HETATM   16  H4  UNL     1      28.070   3.649  52.003  1.00  0.00     0.159 HD
HETATM   17  H10 UNL     1      23.658   0.615  53.612  1.00  0.00     0.161 HD
ENDROOT
BRANCH   1  18
HETATM   18  C5  UNL     1      25.770   3.887  50.268  1.00  0.00    -0.004 A 
HETATM   19  C4  UNL     1      26.835   3.829  49.399  1.00  0.00     0.014 A 
HETATM   20  C3  UNL     1      27.334   4.876  48.649  1.00  0.00     0.002 A 
HETATM   21  C2  UNL     1      26.701   6.095  48.789  1.00  0.00     0.019 A 
HETATM   22  C1  UNL     1      25.623   6.194  49.660  1.00  0.00     0.011 A 
HETATM   23 BR1  UNL     1      24.632   7.821  49.978  1.00  0.00    -0.051 Br
HETATM   24  C17 UNL     1      25.132   5.115  50.413  1.00  0.00     0.033 A 
ENDBRANCH   1  18
TORSDOF 1
ENDMDL
MODEL 2
REMARK VINA RESULT:      -8.3      3.585      5.522
REMARK  1 active torsions:
REMARK  status: ('A' for Active; 'I' for Inactive)
REMARK    1  A    between atoms: C5_6  and  C6_7 
ROOT
HETATM    1  C6  UNL     1      24.737   0.452  53.315  1.00  0.00     0.093 C 
HETATM    2  C7  UNL     1      24.036   1.056  52.270  1.00  0.00     0.068 C 
HETATM    3  N1  UNL     1      24.827   1.896  51.371  1.00  0.00    -0.388 N 
HETATM    4  C8  UNL     1      23.795   2.257  50.431  1.00  0.00     0.132 C 
HETATM    5  C9  UNL     1      22.398   1.688  51.136  1.00  0.00     0.008 A 
HETATM    6  C10 UNL     1      22.601   2.743  52.371  1.00  0.00     0.020 A 
HETATM    7  C11 UNL     1      21.474   2.109  52.418  1.00  0.00     0.027 A 
HETATM    8  C12 UNL     1      20.204   1.408  52.486  1.00  0.00    -0.016 A 
HETATM    9  C13 UNL     1      20.138   0.548  51.406  1.00  0.00    -0.017 A 
HETATM   10  C14 UNL     1      21.241   0.599  50.610  1.00  0.00     0.014 A 
HETATM   11  O1  UNL     1      22.370   1.237  50.624  1.00  0.00     0.000 OA
HETATM   12  C15 UNL     1      22.622   0.940  52.226  1.00  0.00     0.120 C 
HETATM   13  N2  UNL     1      22.148  -0.302  52.549  1.00  0.00    -0.366 N 
HETATM   14  C16 UNL     1      22.851  -0.892  53.651  1.00  0.00     0.204 C 
HETATM   15  N3  UNL     1      24.082  -0.599  54.077  1.00  0.00    -0.241 NA
HETATM   16  H4  UNL     1      25.690   2.363  51.060  1.00  0.00     0.159 HD
HETATM   17  H10 UNL     1      21.477  -1.078  52.348  1.00  0.00     0.161 HD
ENDROOT
BRANCH   1  18
HETATM   18  C5  UNL     1      26.158   0.743  53.408  1.00  0.00    -0.004 A 
HETATM   19  C4  UNL     1      26.664   2.010  53.578  1.00  0.00     0.014 A 
HETATM   20  C3  UNL     1      27.999   2.345  53.702  1.00  0.00     0.002 A 
HETATM   21  C2  UNL     1      28.905   1.306  53.648  1.00  0.00     0.019 A 
HETATM   22  C1  UNL     1      28.432   0.011  53.474  1.00  0.00     0.011 A 
HETATM   23 BR1  UNL     1      29.560  -1.553  53.371  1.00  0.00    -0.051 Br
HETATM   24  C17 UNL     1      27.069  -0.307  53.351  1.00  0.00     0.033 A 
ENDBRANCH   1  18
TORSDOF 1
ENDMDL
MODEL 3
REMARK VINA RESULT:      -8.3      2.963      5.012
REMARK  1 active torsions:
REMARK  status: ('A' for Active; 'I' for Inactive)
REMARK    1  A    between atoms: C5_6  and  C6_7 
ROOT
HETATM    1  C6  UNL     1      23.986  -0.250  53.836  1.00  0.00     0.093 C 
HETATM    2  C7  UNL     1      25.069   0.472  53.332  1.00  0.00     0.068 C 
HETATM    3  N1  UNL     1      24.748   1.497  52.339  1.00  0.00    -0.388 N 
HETATM    4  C8  UNL     1      26.069   2.038  52.135  1.00  0.00     0.132 C 
HETATM    5  C9  UNL     1      27.061   0.987  52.962  1.00  0.00     0.008 A 
HETATM    6  C10 UNL     1      26.642  -0.210  51.927  1.00  0.00     0.020 A 
HETATM    7  C11 UNL     1      27.582  -0.549  52.750  1.00  0.00     0.027 A 
HETATM    8  C12 UNL     1      28.638  -0.946  53.664  1.00  0.00    -0.016 A 
HETATM    9  C13 UNL     1      28.909   0.129  54.489  1.00  0.00    -0.017 A 
HETATM   10  C14 UNL     1      28.140   1.220  54.220  1.00  0.00     0.014 A 
HETATM   11  O1  UNL     1      27.180   1.501  53.395  1.00  0.00     0.000 OA
HETATM   12  C15 UNL     1      26.387   0.087  53.692  1.00  0.00     0.120 C 
HETATM   13  N2  UNL     1      26.533  -0.260  55.008  1.00  0.00    -0.366 N 
HETATM   14  C16 UNL     1      25.432  -1.037  55.499  1.00  0.00     0.204 C 
HETATM   15  N3  UNL     1      24.191  -1.085  55.008  1.00  0.00    -0.241 NA
HETATM   16  H4  UNL     1      24.114   2.019  51.718  1.00  0.00     0.159 HD
HETATM   17  H10 UNL     1      27.103  -0.211  55.883  1.00  0.00     0.161 HD
ENDROOT
BRANCH   1  18
HETATM   18  C5  UNL     1      22.674   0.076  53.303  1.00  0.00    -0.004 A 
HETATM   19  C4  UNL     1      21.548   0.203  54.081  1.00  0.00     0.014 A 
HETATM   20  C3  UNL     1      20.284   0.539  53.637  1.00  0.00     0.002 A 
HETATM   21  C2  UNL     1      20.143   0.766  52.283  1.00  0.00     0.019 A 
HETATM   22  C1  UNL     1      21.258   0.645  51.463  1.00  0.00     0.011 A 
HETATM   23 BR1  UNL     1      21.236   0.921  49.553  1.00  0.00    -0.051 Br
HETATM   24  C17 UNL     1      22.535   0.303  51.937  1.00  0.00     0.033 A 
ENDBRANCH   1  18
TORSDOF 1
ENDMDL
MODEL 4
REMARK VINA RESULT:      -8.1      3.130      5.825
REMARK  1 active torsions:
REMARK  status: ('A' for Active; 'I' for Inactive)
REMARK    1  A    between atoms: C5_6  and  C6_7 
ROOT
HETATM    1  C6  UNL     1      26.337   2.702  51.052  1.00  0.00     0.093 C 
HETATM    2  C7  UNL     1      24.996   3.006  51.294  1.00  0.00     0.068 C 
HETATM    3  N1  UNL     1      24.420   2.430  52.508  1.00  0.00    -0.388 N 
HETATM    4  C8  UNL     1      23.104   3.015  52.434  1.00  0.00     0.132 C 
HETATM    5  C9  UNL     1      23.068   3.724  50.928  1.00  0.00     0.008 A 
HETATM    6  C10 UNL     1      23.202   2.246  50.238  1.00  0.00     0.020 A 
HETATM    7  C11 UNL     1      22.995   3.195  49.382  1.00  0.00     0.027 A 
HETATM    8  C12 UNL     1      22.762   4.247  48.408  1.00  0.00    -0.016 A 
HETATM    9  C13 UNL     1      22.669   5.443  49.093  1.00  0.00    -0.017 A 
HETATM   10  C14 UNL     1      22.814   5.304  50.440  1.00  0.00     0.014 A 
HETATM   11  O1  UNL     1      23.052   4.324  51.254  1.00  0.00     0.000 OA
HETATM   12  C15 UNL     1      24.257   3.712  50.309  1.00  0.00     0.120 C 
HETATM   13  N2  UNL     1      24.945   4.735  49.714  1.00  0.00    -0.366 N 
HETATM   14  C16 UNL     1      26.309   4.392  49.434  1.00  0.00     0.204 C 
HETATM   15  N3  UNL     1      27.046   3.449  50.025  1.00  0.00    -0.241 NA
HETATM   16  H4  UNL     1      24.438   1.844  53.355  1.00  0.00     0.159 HD
HETATM   17  H10 UNL     1      24.945   5.716  49.354  1.00  0.00     0.161 HD
ENDROOT
BRANCH   1  18
HETATM   18  C5  UNL     1      26.997   1.833  52.011  1.00  0.00    -0.004 A 
HETATM   19  C4  UNL     1      27.768   2.296  53.051  1.00  0.00     0.014 A 
HETATM   20  C3  UNL     1      28.394   1.523  54.009  1.00  0.00     0.002 A 
HETATM   21  C2  UNL     1      28.230   0.156  53.907  1.00  0.00     0.019 A 
HETATM   22  C1  UNL     1      27.459  -0.350  52.867  1.00  0.00     0.011 A 
HETATM   23 BR1  UNL     1      27.133  -2.230  52.574  1.00  0.00    -0.051 Br
HETATM   24  C17 UNL     1      26.831   0.456  51.903  1.00  0.00     0.033 A 
ENDBRANCH   1  18
TORSDOF 1
ENDMDL
MODEL 5
REMARK VINA RESULT:      -8.1      3.093      6.666
REMARK  1 active torsions:
REMARK  status: ('A' for Active; 'I' for Inactive)
REMARK    1  A    between atoms: C5_6  and  C6_7 
ROOT
HETATM    1  C6  UNL     1      25.672   3.718  50.169  1.00  0.00     0.093 C 
HETATM    2  C7  UNL     1      25.305   5.052  50.358  1.00  0.00     0.068 C 
HETATM    3  N1  UNL     1      24.296   5.298  51.387  1.00  0.00    -0.388 N 
HETATM    4  C8  UNL     1      24.253   6.738  51.323  1.00  0.00     0.132 C 
HETATM    5  C9  UNL     1      25.173   7.104  49.985  1.00  0.00     0.008 A 
HETATM    6  C10 UNL     1      24.081   6.342  49.034  1.00  0.00     0.020 A 
HETATM    7  C11 UNL     1      25.001   6.958  48.365  1.00  0.00     0.027 A 
HETATM    8  C12 UNL     1      26.026   7.645  47.598  1.00  0.00    -0.016 A 
HETATM    9  C13 UNL     1      26.891   8.247  48.492  1.00  0.00    -0.017 A 
HETATM   10  C14 UNL     1      26.550   8.036  49.793  1.00  0.00     0.014 A 
HETATM   11  O1  UNL     1      25.624   7.378  50.418  1.00  0.00     0.000 OA
HETATM   12  C15 UNL     1      25.809   6.041  49.473  1.00  0.00     0.120 C 
HETATM   13  N2  UNL     1      27.128   5.883  49.144  1.00  0.00    -0.366 N 
HETATM   14  C16 UNL     1      27.479   4.512  48.913  1.00  0.00     0.204 C 
HETATM   15  N3  UNL     1      26.848   3.426  49.367  1.00  0.00    -0.241 NA
HETATM   16  H4  UNL     1      23.614   5.011  52.103  1.00  0.00     0.159 HD
HETATM   17  H10 UNL     1      28.064   6.321  48.982  1.00  0.00     0.161 HD
ENDROOT
BRANCH   1  18
HETATM   18  C5  UNL     1      24.996   2.729  50.991  1.00  0.00    -0.004 A 
HETATM   19  C4  UNL     1      23.704   2.313  50.773  1.00  0.00     0.014 A 
HETATM   20  C3  UNL     1      23.021   1.358  51.500  1.00  0.00     0.002 A 
HETATM   21  C2  UNL     1      23.703   0.770  52.545  1.00  0.00     0.019 A 
HETATM   22  C1  UNL     1      25.011   1.166  52.799  1.00  0.00     0.011 A 
HETATM   23 BR1  UNL     1      26.104   0.451  54.222  1.00  0.00    -0.051 Br
HETATM   24  C17 UNL     1      25.687   2.139  52.046  1.00  0.00     0.033 A 
ENDBRANCH   1  18
TORSDOF 1
ENDMDL
MODEL 6
REMARK VINA RESULT:      -7.8      2.548      3.242
REMARK  1 active torsions:
REMARK  status: ('A' for Active; 'I' for Inactive)
REMARK    1  A    between atoms: C5_6  and  C6_7 
ROOT
HETATM    1  C6  UNL     1      24.111   3.307  49.469  1.00  0.00     0.093 C 
HETATM    2  C7  UNL     1      23.784   3.144  50.816  1.00  0.00     0.068 C 
HETATM    3  N1  UNL     1      24.560   3.943  51.764  1.00  0.00    -0.388 N 
HETATM    4  C8  UNL     1      23.895   3.557  52.984  1.00  0.00     0.132 C 
HETATM    5  C9  UNL     1      22.894   2.312  52.514  1.00  0.00     0.008 A 
HETATM    6  C10 UNL     1      24.207   1.411  52.133  1.00  0.00     0.020 A 
HETATM    7  C11 UNL     1      23.093   0.757  52.049  1.00  0.00     0.027 A 
HETATM    8  C12 UNL     1      21.854   0.007  51.952  1.00  0.00    -0.016 A 
HETATM    9  C13 UNL     1      20.817   0.857  52.289  1.00  0.00    -0.017 A 
HETATM   10  C14 UNL     1      21.236   2.112  52.609  1.00  0.00     0.014 A 
HETATM   11  O1  UNL     1      22.373   2.732  52.649  1.00  0.00     0.000 OA
HETATM   12  C15 UNL     1      22.850   2.141  51.186  1.00  0.00     0.120 C 
HETATM   13  N2  UNL     1      21.770   2.041  50.351  1.00  0.00    -0.366 N 
HETATM   14  C16 UNL     1      22.129   2.170  48.968  1.00  0.00     0.204 C 
HETATM   15  N3  UNL     1      23.214   2.761  48.464  1.00  0.00    -0.241 NA
HETATM   16  H4  UNL     1      25.305   4.603  52.026  1.00  0.00     0.159 HD
HETATM   17  H10 UNL     1      20.738   1.918  50.242  1.00  0.00     0.161 HD
ENDROOT
BRANCH   1  18
HETATM   18  C5  UNL     1      25.194   4.226  49.163  1.00  0.00    -0.004 A 
HETATM   19  C4  UNL     1      26.520   3.863  49.156  1.00  0.00     0.014 A 
HETATM   20  C3  UNL     1      27.589   4.682  48.845  1.00  0.00     0.002 A 
HETATM   21  C2  UNL     1      27.292   5.987  48.512  1.00  0.00     0.019 A 
HETATM   22  C1  UNL     1      25.962   6.393  48.509  1.00  0.00     0.011 A 
HETATM   23 BR1  UNL     1      25.374   8.180  48.074  1.00  0.00    -0.051 Br
HETATM   24  C17 UNL     1      24.891   5.543  48.829  1.00  0.00     0.033 A 
ENDBRANCH   1  18
TORSDOF 1
ENDMDL
MODEL 7
REMARK VINA RESULT:      -7.8      2.811      4.508
REMARK  1 active torsions:
REMARK  status: ('A' for Active; 'I' for Inactive)
REMARK    1  A    between atoms: C5_6  and  C6_7 
ROOT
HETATM    1  C6  UNL     1      24.889   1.569  52.317  1.00  0.00     0.093 C 
HETATM    2  C7  UNL     1      25.476   0.437  52.885  1.00  0.00     0.068 C 
HETATM    3  N1  UNL     1      24.578  -0.689  53.137  1.00  0.00    -0.388 N 
HETATM    4  C8  UNL     1      25.540  -1.641  53.635  1.00  0.00     0.132 C 
HETATM    5  C9  UNL     1      26.932  -0.743  53.809  1.00  0.00     0.008 A 
HETATM    6  C10 UNL     1      26.198   0.157  54.962  1.00  0.00     0.020 A 
HETATM    7  C11 UNL     1      27.457   0.425  54.826  1.00  0.00     0.027 A 
HETATM    8  C12 UNL     1      28.869   0.736  54.689  1.00  0.00    -0.016 A 
HETATM    9  C13 UNL     1      29.386  -0.072  53.694  1.00  0.00    -0.017 A 
HETATM   10  C14 UNL     1      28.460  -0.906  53.145  1.00  0.00     0.014 A 
HETATM   11  O1  UNL     1      27.189  -1.115  53.298  1.00  0.00     0.000 OA
HETATM   12  C15 UNL     1      26.831   0.494  53.302  1.00  0.00     0.120 C 
HETATM   13  N2  UNL     1      27.660   1.156  52.437  1.00  0.00    -0.366 N 
HETATM   14  C16 UNL     1      27.058   2.340  51.895  1.00  0.00     0.204 C 
HETATM   15  N3  UNL     1      25.755   2.613  51.793  1.00  0.00    -0.241 NA
HETATM   16  H4  UNL     1      23.659  -1.155  53.162  1.00  0.00     0.159 HD
HETATM   17  H10 UNL     1      28.581   1.201  51.946  1.00  0.00     0.161 HD
ENDROOT
BRANCH   1  18
HETATM   18  C5  UNL     1      23.459   1.513  52.067  1.00  0.00    -0.004 A 
HETATM   19  C4  UNL     1      22.514   1.461  53.065  1.00  0.00     0.014 A 
HETATM   20  C3  UNL     1      21.144   1.436  52.890  1.00  0.00     0.002 A 
HETATM   21  C2  UNL     1      20.685   1.464  51.589  1.00  0.00     0.019 A 
HETATM   22  C1  UNL     1      21.610   1.514  50.553  1.00  0.00     0.011 A 
HETATM   23 BR1  UNL     1      21.140   1.553  48.680  1.00  0.00    -0.051 Br
HETATM   24  C17 UNL     1      23.000   1.540  50.754  1.00  0.00     0.033 A 
ENDBRANCH   1  18
TORSDOF 1
ENDMDL
MODEL 8
REMARK VINA RESULT:      -7.4      3.490      6.576
REMARK  1 active torsions:
REMARK  status: ('A' for Active; 'I' for Inactive)
REMARK    1  A    between atoms: C5_6  and  C6_7 
ROOT
HETATM    1  C6  UNL     1      23.428   3.008  52.121  1.00  0.00     0.093 C 
HETATM    2  C7  UNL     1      23.387   3.190  50.738  1.00  0.00     0.068 C 
HETATM    3  N1  UNL     1      23.032   2.011  49.948  1.00  0.00    -0.388 N 
HETATM    4  C8  UNL     1      23.029   2.610  48.636  1.00  0.00     0.132 C 
HETATM    5  C9  UNL     1      23.658   4.130  48.891  1.00  0.00     0.008 A 
HETATM    6  C10 UNL     1      25.083   3.458  49.335  1.00  0.00     0.020 A 
HETATM    7  C11 UNL     1      25.130   4.748  49.245  1.00  0.00     0.027 A 
HETATM    8  C12 UNL     1      25.202   6.195  49.147  1.00  0.00    -0.016 A 
HETATM    9  C13 UNL     1      23.955   6.656  48.772  1.00  0.00    -0.017 A 
HETATM   10  C14 UNL     1      23.043   5.659  48.603  1.00  0.00     0.014 A 
HETATM   11  O1  UNL     1      23.038   4.370  48.737  1.00  0.00     0.000 OA
HETATM   12  C15 UNL     1      23.817   4.426  50.189  1.00  0.00     0.120 C 
HETATM   13  N2  UNL     1      23.409   5.527  50.892  1.00  0.00    -0.366 N 
HETATM   14  C16 UNL     1      23.497   5.339  52.311  1.00  0.00     0.204 C 
HETATM   15  N3  UNL     1      23.505   4.181  52.976  1.00  0.00    -0.241 NA
HETATM   16  H4  UNL     1      22.801   1.016  49.822  1.00  0.00     0.159 HD
HETATM   17  H10 UNL     1      23.028   6.501  50.879  1.00  0.00     0.161 HD
ENDROOT
BRANCH   1  18
HETATM   18  C5  UNL     1      23.142   1.672  52.617  1.00  0.00    -0.004 A 
HETATM   19  C4  UNL     1      24.116   0.774  52.987  1.00  0.00     0.014 A 
HETATM   20  C3  UNL     1      23.906  -0.495  53.491  1.00  0.00     0.002 A 
HETATM   21  C2  UNL     1      22.592  -0.895  53.633  1.00  0.00     0.019 A 
HETATM   22  C1  UNL     1      21.580  -0.016  53.267  1.00  0.00     0.011 A 
HETATM   23 BR1  UNL     1      19.696  -0.417  53.395  1.00  0.00    -0.051 Br
HETATM   24  C17 UNL     1      21.817   1.271  52.757  1.00  0.00     0.033 A 
ENDBRANCH   1  18
TORSDOF 1
ENDMDL
MODEL 9
REMARK VINA RESULT:      -7.4      3.786      5.920
REMARK  1 active torsions:
REMARK  status: ('A' for Active; 'I' for Inactive)
REMARK    1  A    between atoms: C5_6  and  C6_7 
ROOT
HETATM    1  C6  UNL     1      22.131   0.232  52.207  1.00  0.00     0.093 C 
HETATM    2  C7  UNL     1      22.813   1.446  52.302  1.00  0.00     0.068 C 
HETATM    3  N1  UNL     1      22.050   2.638  51.935  1.00  0.00    -0.388 N 
HETATM    4  C8  UNL     1      23.043   3.643  52.227  1.00  0.00     0.132 C 
HETATM    5  C9  UNL     1      24.421   2.761  52.535  1.00  0.00     0.008 A 
HETATM    6  C10 UNL     1      24.417   2.228  50.986  1.00  0.00     0.020 A 
HETATM    7  C11 UNL     1      25.474   1.878  51.647  1.00  0.00     0.027 A 
HETATM    8  C12 UNL     1      26.667   1.478  52.372  1.00  0.00    -0.016 A 
HETATM    9  C13 UNL     1      26.566   1.973  53.658  1.00  0.00    -0.017 A 
HETATM   10  C14 UNL     1      25.419   2.674  53.875  1.00  0.00     0.014 A 
HETATM   11  O1  UNL     1      24.366   2.974  53.181  1.00  0.00     0.000 OA
HETATM   12  C15 UNL     1      24.201   1.440  52.600  1.00  0.00     0.120 C 
HETATM   13  N2  UNL     1      24.567   0.537  53.561  1.00  0.00    -0.366 N 
HETATM   14  C16 UNL     1      23.889  -0.719  53.424  1.00  0.00     0.204 C 
HETATM   15  N3  UNL     1      22.728  -0.951  52.806  1.00  0.00    -0.241 NA
HETATM   16  H4  UNL     1      21.219   3.134  51.583  1.00  0.00     0.159 HD
HETATM   17  H10 UNL     1      25.139   0.323  54.410  1.00  0.00     0.161 HD
ENDROOT
BRANCH   1  18
HETATM   18  C5  UNL     1      20.759   0.285  51.733  1.00  0.00    -0.004 A 
HETATM   19  C4  UNL     1      20.382   0.898  50.562  1.00  0.00     0.014 A 
HETATM   20  C3  UNL     1      19.101   0.956  50.046  1.00  0.00     0.002 A 
HETATM   21  C2  UNL     1      18.110   0.338  50.781  1.00  0.00     0.019 A 
HETATM   22  C1  UNL     1      18.451  -0.291  51.973  1.00  0.00     0.011 A 
HETATM   23 BR1  UNL     1      17.190  -1.195  53.122  1.00  0.00    -0.051 Br
HETATM   24  C17 UNL     1      19.761  -0.337  52.478  1.00  0.00     0.033 A 
ENDBRANCH   1  18
TORSDOF 1
ENDMDL
