MODEL 1
REMARK VINA RESULT:      -8.3      0.000      0.000
REMARK  6 active torsions:
REMARK  status: ('A' for Active; 'I' for Inactive)
REMARK    1  A    between atoms: C2_2  and  C3_3 
REMARK       I    between atoms: C3_3  and  N1_5 
REMARK    2  A    between atoms: N1_5  and  C4_6 
REMARK    3  A    between atoms: C9_13  and  C10_14 
REMARK    4  A    between atoms: C10_14  and  C11_15 
REMARK    5  A    between atoms: C11_15  and  C12_16 
REMARK    6  A    between atoms: C13_17  and  C14_18 
ROOT
HETATM    1  C4  UNL     1      25.309  -0.688  54.272  1.00  0.00     0.035 A 
HETATM    2  C5  UNL     1      24.834  -1.298  55.413  1.00  0.00     0.032 A 
HETATM    3  C6  UNL     1      23.481  -1.460  55.642  1.00  0.00     0.035 A 
HETATM    4  C7  UNL     1      22.624  -0.986  54.681  1.00  0.00     0.070 A 
HETATM    5  N2  UNL     1      21.279  -1.112  54.852  1.00  0.00    -0.241 NA
HETATM    6  C8  UNL     1      20.415  -0.651  53.929  1.00  0.00     0.234 A 
HETATM    7  N3  UNL     1      20.778  -0.032  52.766  1.00  0.00    -0.246 NA
HETATM    8  C9  UNL     1      22.120   0.126  52.532  1.00  0.00     0.049 A 
HETATM    9  C18 UNL     1      22.976  -0.354  53.493  1.00  0.00     0.019 A 
HETATM   10  C19 UNL     1      24.367  -0.235  53.349  1.00  0.00     0.045 A 
ENDROOT
BRANCH   8  11
HETATM   11  C10 UNL     1      22.608   0.787  51.318  1.00  0.00     0.064 C 
BRANCH  11  12
HETATM   12  C11 UNL     1      23.015   2.208  51.610  1.00  0.00     0.041 C 
BRANCH  12  13
HETATM   13  C12 UNL     1      24.230   2.653  50.925  1.00  0.00    -0.069 A 
HETATM   14  C13 UNL     1      24.234   3.315  49.754  1.00  0.00    -0.046 A 
HETATM   15  C15 UNL     1      25.590   3.596  49.383  1.00  0.00     0.004 A 
HETATM   16  C16 UNL     1      26.434   3.118  50.311  1.00  0.00    -0.022 A 
HETATM   17  C17 UNL     1      25.609   2.470  51.383  1.00  0.00     0.061 A 
BRANCH  14  18
HETATM   18  C14 UNL     1      23.201   3.810  48.785  1.00  0.00     0.123 C 
HETATM   19 BR1  UNL     1      22.435   2.350  47.817  1.00  0.00    -0.091 Br
ENDBRANCH  14  18
ENDBRANCH  12  13
ENDBRANCH  11  12
ENDBRANCH   8  11
BRANCH   1  20
HETATM   20  N1  UNL     1      26.705  -0.475  53.960  1.00  0.00    -0.324 N 
HETATM   21  C3  UNL     1      27.731   0.493  54.387  1.00  0.00     0.244 C 
HETATM   22  O1  UNL     1      26.921   1.052  55.118  1.00  0.00    -0.268 OA
HETATM   23  H4  UNL     1      26.687  -1.318  53.281  1.00  0.00     0.169 HD
BRANCH  21  24
HETATM   24  C2  UNL     1      28.882   0.047  53.630  1.00  0.00     0.064 C 
HETATM   25  C1  UNL     1      28.952  -1.295  53.522  1.00  0.00     0.017 C 
ENDBRANCH  21  24
ENDBRANCH   1  20
TORSDOF 6
ENDMDL
MODEL 2
REMARK VINA RESULT:      -8.3      2.470      3.437
REMARK  6 active torsions:
REMARK  status: ('A' for Active; 'I' for Inactive)
REMARK    1  A    between atoms: C2_2  and  C3_3 
REMARK       I    between atoms: C3_3  and  N1_5 
REMARK    2  A    between atoms: N1_5  and  C4_6 
REMARK    3  A    between atoms: C9_13  and  C10_14 
REMARK    4  A    between atoms: C10_14  and  C11_15 
REMARK    5  A    between atoms: C11_15  and  C12_16 
REMARK    6  A    between atoms: C13_17  and  C14_18 
ROOT
HETATM    1  C4  UNL     1      26.309   0.010  53.155  1.00  0.00     0.035 A 
HETATM    2  C5  UNL     1      25.199  -0.595  53.704  1.00  0.00     0.032 A 
HETATM    3  C6  UNL     1      23.923  -0.117  53.476  1.00  0.00     0.035 A 
HETATM    4  C7  UNL     1      23.805   0.992  52.676  1.00  0.00     0.070 A 
HETATM    5  N2  UNL     1      22.573   1.513  52.419  1.00  0.00    -0.241 NA
HETATM    6  C8  UNL     1      22.428   2.601  51.642  1.00  0.00     0.234 A 
HETATM    7  N3  UNL     1      23.458   3.277  51.051  1.00  0.00    -0.246 NA
HETATM    8  C9  UNL     1      24.727   2.803  51.269  1.00  0.00     0.049 A 
HETATM    9  C18 UNL     1      24.842   1.689  52.066  1.00  0.00     0.019 A 
HETATM   10  C19 UNL     1      26.097   1.132  52.355  1.00  0.00     0.045 A 
ENDROOT
BRANCH   8  11
HETATM   11  C10 UNL     1      25.897   3.464  50.686  1.00  0.00     0.064 C 
BRANCH  11  12
HETATM   12  C11 UNL     1      25.557   4.073  49.350  1.00  0.00     0.041 C 
BRANCH  12  13
HETATM   13  C12 UNL     1      26.493   5.099  48.885  1.00  0.00    -0.069 A 
HETATM   14  C13 UNL     1      26.164   6.391  48.706  1.00  0.00    -0.046 A 
HETATM   15  C15 UNL     1      27.322   7.106  48.252  1.00  0.00     0.004 A 
HETATM   16  C16 UNL     1      28.370   6.274  48.148  1.00  0.00    -0.022 A 
HETATM   17  C17 UNL     1      27.906   4.907  48.553  1.00  0.00     0.061 A 
BRANCH  14  18
HETATM   18  C14 UNL     1      24.929   7.227  48.861  1.00  0.00     0.123 C 
HETATM   19 BR1  UNL     1      24.361   7.254  50.687  1.00  0.00    -0.091 Br
ENDBRANCH  14  18
ENDBRANCH  12  13
ENDBRANCH  11  12
ENDBRANCH   8  11
BRANCH   1  20
HETATM   20  N1  UNL     1      27.676  -0.423  53.347  1.00  0.00    -0.324 N 
HETATM   21  C3  UNL     1      28.728  -0.137  54.338  1.00  0.00     0.244 C 
HETATM   22  O1  UNL     1      27.977   0.624  54.940  1.00  0.00    -0.268 OA
HETATM   23  H4  UNL     1      27.610  -1.043  52.462  1.00  0.00     0.169 HD
BRANCH  21  24
HETATM   24  C2  UNL     1      29.817  -0.957  53.849  1.00  0.00     0.064 C 
HETATM   25  C1  UNL     1      29.395  -2.101  53.274  1.00  0.00     0.017 C 
ENDBRANCH  21  24
ENDBRANCH   1  20
TORSDOF 6
ENDMDL
MODEL 3
REMARK VINA RESULT:      -8.2      2.072      2.702
REMARK  6 active torsions:
REMARK  status: ('A' for Active; 'I' for Inactive)
REMARK    1  A    between atoms: C2_2  and  C3_3 
REMARK       I    between atoms: C3_3  and  N1_5 
REMARK    2  A    between atoms: N1_5  and  C4_6 
REMARK    3  A    between atoms: C9_13  and  C10_14 
REMARK    4  A    between atoms: C10_14  and  C11_15 
REMARK    5  A    between atoms: C11_15  and  C12_16 
REMARK    6  A    between atoms: C13_17  and  C14_18 
ROOT
HETATM    1  C4  UNL     1      25.503   0.325  53.252  1.00  0.00     0.035 A 
HETATM    2  C5  UNL     1      24.607  -0.613  53.719  1.00  0.00     0.032 A 
HETATM    3  C6  UNL     1      23.241  -0.415  53.641  1.00  0.00     0.035 A 
HETATM    4  C7  UNL     1      22.811   0.760  53.078  1.00  0.00     0.070 A 
HETATM    5  N2  UNL     1      21.477   1.014  52.979  1.00  0.00    -0.241 NA
HETATM    6  C8  UNL     1      21.028   2.160  52.436  1.00  0.00     0.234 A 
HETATM    7  N3  UNL     1      21.826   3.154  51.945  1.00  0.00    -0.246 NA
HETATM    8  C9  UNL     1      23.183   2.960  52.014  1.00  0.00     0.049 A 
HETATM    9  C18 UNL     1      23.610   1.780  52.574  1.00  0.00     0.019 A 
HETATM   10  C19 UNL     1      24.978   1.490  52.696  1.00  0.00     0.045 A 
ENDROOT
BRANCH   8  11
HETATM   11  C10 UNL     1      24.122   3.971  51.523  1.00  0.00     0.064 C 
BRANCH  11  12
HETATM   12  C11 UNL     1      24.210   3.934  50.019  1.00  0.00     0.041 C 
BRANCH  12  13
HETATM   13  C12 UNL     1      25.444   4.492  49.461  1.00  0.00    -0.069 A 
HETATM   14  C13 UNL     1      25.550   5.739  48.968  1.00  0.00    -0.046 A 
HETATM   15  C15 UNL     1      26.894   5.947  48.515  1.00  0.00     0.004 A 
HETATM   16  C16 UNL     1      27.630   4.843  48.721  1.00  0.00    -0.022 A 
HETATM   17  C17 UNL     1      26.738   3.816  49.353  1.00  0.00     0.061 A 
BRANCH  14  18
HETATM   18  C14 UNL     1      24.636   6.915  48.788  1.00  0.00     0.123 C 
HETATM   19 BR1  UNL     1      24.268   7.744  50.471  1.00  0.00    -0.091 Br
ENDBRANCH  14  18
ENDBRANCH  12  13
ENDBRANCH  11  12
ENDBRANCH   8  11
BRANCH   1  20
HETATM   20  N1  UNL     1      26.943   0.197  53.300  1.00  0.00    -0.324 N 
HETATM   21  C3  UNL     1      27.972   0.403  54.334  1.00  0.00     0.244 C 
HETATM   22  O1  UNL     1      27.113   0.730  55.146  1.00  0.00    -0.268 OA
HETATM   23  H4  UNL     1      26.956  -0.110  52.262  1.00  0.00     0.169 HD
BRANCH  21  24
HETATM   24  C2  UNL     1      29.181   0.067  53.611  1.00  0.00     0.064 C 
HETATM   25  C1  UNL     1      29.419  -1.258  53.575  1.00  0.00     0.017 C 
ENDBRANCH  21  24
ENDBRANCH   1  20
TORSDOF 6
ENDMDL
MODEL 4
REMARK VINA RESULT:      -7.8      1.415      1.994
REMARK  6 active torsions:
REMARK  status: ('A' for Active; 'I' for Inactive)
REMARK    1  A    between atoms: C2_2  and  C3_3 
REMARK       I    between atoms: C3_3  and  N1_5 
REMARK    2  A    between atoms: N1_5  and  C4_6 
REMARK    3  A    between atoms: C9_13  and  C10_14 
REMARK    4  A    between atoms: C10_14  and  C11_15 
REMARK    5  A    between atoms: C11_15  and  C12_16 
REMARK    6  A    between atoms: C13_17  and  C14_18 
ROOT
HETATM    1  C4  UNL     1      25.255  -0.586  54.422  1.00  0.00     0.035 A 
HETATM    2  C5  UNL     1      24.752  -1.256  55.516  1.00  0.00     0.032 A 
HETATM    3  C6  UNL     1      23.397  -1.475  55.674  1.00  0.00     0.035 A 
HETATM    4  C7  UNL     1      22.567  -0.995  54.692  1.00  0.00     0.070 A 
HETATM    5  N2  UNL     1      21.222  -1.175  54.795  1.00  0.00    -0.241 NA
HETATM    6  C8  UNL     1      20.385  -0.712  53.849  1.00  0.00     0.234 A 
HETATM    7  N3  UNL     1      20.777  -0.036  52.728  1.00  0.00    -0.246 NA
HETATM    8  C9  UNL     1      22.121   0.179  52.563  1.00  0.00     0.049 A 
HETATM    9  C18 UNL     1      22.950  -0.307  53.546  1.00  0.00     0.019 A 
HETATM   10  C19 UNL     1      24.340  -0.133  53.472  1.00  0.00     0.045 A 
ENDROOT
BRANCH   8  11
HETATM   11  C10 UNL     1      22.639   0.902  51.399  1.00  0.00     0.064 C 
BRANCH  11  12
HETATM   12  C11 UNL     1      22.477   2.390  51.578  1.00  0.00     0.041 C 
BRANCH  12  13
HETATM   13  C12 UNL     1      22.785   3.189  50.390  1.00  0.00    -0.069 A 
HETATM   14  C13 UNL     1      24.018   3.625  50.076  1.00  0.00    -0.046 A 
HETATM   15  C15 UNL     1      23.951   4.368  48.852  1.00  0.00     0.004 A 
HETATM   16  C16 UNL     1      22.689   4.399  48.396  1.00  0.00    -0.022 A 
HETATM   17  C17 UNL     1      21.838   3.633  49.365  1.00  0.00     0.061 A 
BRANCH  14  18
HETATM   18  C14 UNL     1      25.390   3.524  50.676  1.00  0.00     0.123 C 
HETATM   19 BR1  UNL     1      26.720   4.032  49.399  1.00  0.00    -0.091 Br
ENDBRANCH  14  18
ENDBRANCH  12  13
ENDBRANCH  11  12
ENDBRANCH   8  11
BRANCH   1  20
HETATM   20  N1  UNL     1      26.656  -0.312  54.183  1.00  0.00    -0.324 N 
HETATM   21  C3  UNL     1      27.736  -0.987  53.444  1.00  0.00     0.244 C 
HETATM   22  O1  UNL     1      26.969  -1.883  53.109  1.00  0.00    -0.268 OA
HETATM   23  H4  UNL     1      26.585   0.592  54.774  1.00  0.00     0.169 HD
BRANCH  21  24
HETATM   24  C2  UNL     1      28.850  -0.091  53.677  1.00  0.00     0.064 C 
HETATM   25  C1  UNL     1      30.047  -0.694  53.537  1.00  0.00     0.017 C 
ENDBRANCH  21  24
ENDBRANCH   1  20
TORSDOF 6
ENDMDL
MODEL 5
REMARK VINA RESULT:      -7.6      1.989      4.786
REMARK  6 active torsions:
REMARK  status: ('A' for Active; 'I' for Inactive)
REMARK    1  A    between atoms: C2_2  and  C3_3 
REMARK       I    between atoms: C3_3  and  N1_5 
REMARK    2  A    between atoms: N1_5  and  C4_6 
REMARK    3  A    between atoms: C9_13  and  C10_14 
REMARK    4  A    between atoms: C10_14  and  C11_15 
REMARK    5  A    between atoms: C11_15  and  C12_16 
REMARK    6  A    between atoms: C13_17  and  C14_18 
ROOT
HETATM    1  C4  UNL     1      24.203  -0.203  54.077  1.00  0.00     0.035 A 
HETATM    2  C5  UNL     1      25.030  -0.696  55.064  1.00  0.00     0.032 A 
HETATM    3  C6  UNL     1      26.344  -0.285  55.183  1.00  0.00     0.035 A 
HETATM    4  C7  UNL     1      26.795   0.638  54.274  1.00  0.00     0.070 A 
HETATM    5  N2  UNL     1      28.083   1.077  54.337  1.00  0.00    -0.241 NA
HETATM    6  C8  UNL     1      28.553   1.978  53.456  1.00  0.00     0.234 A 
HETATM    7  N3  UNL     1      27.821   2.529  52.442  1.00  0.00    -0.246 NA
HETATM    8  C9  UNL     1      26.514   2.129  52.323  1.00  0.00     0.049 A 
HETATM    9  C18 UNL     1      26.064   1.208  53.238  1.00  0.00     0.019 A 
HETATM   10  C19 UNL     1      24.745   0.731  53.196  1.00  0.00     0.045 A 
ENDROOT
BRANCH   8  11
HETATM   11  C10 UNL     1      25.652   2.655  51.262  1.00  0.00     0.064 C 
BRANCH  11  12
HETATM   12  C11 UNL     1      26.394   2.722  49.952  1.00  0.00     0.041 C 
BRANCH  12  13
HETATM   13  C12 UNL     1      26.503   4.063  49.375  1.00  0.00    -0.069 A 
HETATM   14  C13 UNL     1      25.481   4.934  49.297  1.00  0.00    -0.046 A 
HETATM   15  C15 UNL     1      25.946   6.143  48.683  1.00  0.00     0.004 A 
HETATM   16  C16 UNL     1      27.249   6.038  48.379  1.00  0.00    -0.022 A 
HETATM   17  C17 UNL     1      27.707   4.676  48.808  1.00  0.00     0.061 A 
BRANCH  14  18
HETATM   18  C14 UNL     1      24.031   4.941  49.682  1.00  0.00     0.123 C 
HETATM   19 BR1  UNL     1      23.052   3.674  48.638  1.00  0.00    -0.091 Br
ENDBRANCH  14  18
ENDBRANCH  12  13
ENDBRANCH  11  12
ENDBRANCH   8  11
BRANCH   1  20
HETATM   20  N1  UNL     1      22.821  -0.583  53.881  1.00  0.00    -0.324 N 
HETATM   21  C3  UNL     1      21.830  -1.341  54.665  1.00  0.00     0.244 C 
HETATM   22  O1  UNL     1      22.652  -1.524  55.557  1.00  0.00    -0.268 OA
HETATM   23  H4  UNL     1      22.815  -0.085  52.921  1.00  0.00     0.169 HD
BRANCH  21  24
HETATM   24  C2  UNL     1      20.672  -1.287  53.796  1.00  0.00     0.064 C 
HETATM   25  C1  UNL     1      20.673  -0.208  52.988  1.00  0.00     0.017 C 
ENDBRANCH  21  24
ENDBRANCH   1  20
TORSDOF 6
ENDMDL
MODEL 6
REMARK VINA RESULT:      -7.6      2.523      4.963
REMARK  6 active torsions:
REMARK  status: ('A' for Active; 'I' for Inactive)
REMARK    1  A    between atoms: C2_2  and  C3_3 
REMARK       I    between atoms: C3_3  and  N1_5 
REMARK    2  A    between atoms: N1_5  and  C4_6 
REMARK    3  A    between atoms: C9_13  and  C10_14 
REMARK    4  A    between atoms: C10_14  and  C11_15 
REMARK    5  A    between atoms: C11_15  and  C12_16 
REMARK    6  A    between atoms: C13_17  and  C14_18 
ROOT
HETATM    1  C4  UNL     1      26.386   2.522  51.887  1.00  0.00     0.035 A 
HETATM    2  C5  UNL     1      27.511   2.007  52.494  1.00  0.00     0.032 A 
HETATM    3  C6  UNL     1      27.435   0.974  53.408  1.00  0.00     0.035 A 
HETATM    4  C7  UNL     1      26.186   0.479  53.689  1.00  0.00     0.070 A 
HETATM    5  N2  UNL     1      26.047  -0.536  54.586  1.00  0.00    -0.241 NA
HETATM    6  C8  UNL     1      24.834  -1.038  54.884  1.00  0.00     0.234 A 
HETATM    7  N3  UNL     1      23.658  -0.601  54.343  1.00  0.00    -0.246 NA
HETATM    8  C9  UNL     1      23.729   0.420  53.430  1.00  0.00     0.049 A 
HETATM    9  C18 UNL     1      24.981   0.910  53.147  1.00  0.00     0.019 A 
HETATM   10  C19 UNL     1      25.158   1.959  52.231  1.00  0.00     0.045 A 
ENDROOT
BRANCH   8  11
HETATM   11  C10 UNL     1      22.522   0.963  52.802  1.00  0.00     0.064 C 
BRANCH  11  12
HETATM   12  C11 UNL     1      21.891  -0.054  51.887  1.00  0.00     0.041 C 
BRANCH  12  13
HETATM   13  C12 UNL     1      20.696   0.411  51.179  1.00  0.00    -0.069 A 
HETATM   14  C13 UNL     1      20.716   0.958  49.950  1.00  0.00    -0.046 A 
HETATM   15  C15 UNL     1      19.375   1.290  49.568  1.00  0.00     0.004 A 
HETATM   16  C16 UNL     1      18.517   0.955  50.544  1.00  0.00    -0.022 A 
HETATM   17  C17 UNL     1      19.316   0.358  51.664  1.00  0.00     0.061 A 
BRANCH  14  18
HETATM   18  C14 UNL     1      21.762   1.288  48.927  1.00  0.00     0.123 C 
HETATM   19 BR1  UNL     1      22.729   2.857  49.438  1.00  0.00    -0.091 Br
ENDBRANCH  14  18
ENDBRANCH  12  13
ENDBRANCH  11  12
ENDBRANCH   8  11
BRANCH   1  20
HETATM   20  N1  UNL     1      26.379   3.603  50.925  1.00  0.00    -0.324 N 
HETATM   21  C3  UNL     1      26.554   3.697  49.465  1.00  0.00     0.244 C 
HETATM   22  O1  UNL     1      26.712   2.483  49.390  1.00  0.00    -0.268 OA
HETATM   23  H4  UNL     1      26.194   4.315  51.719  1.00  0.00     0.169 HD
BRANCH  21  24
HETATM   24  C2  UNL     1      26.408   5.121  49.248  1.00  0.00     0.064 C 
HETATM   25  C1  UNL     1      27.438   5.656  48.563  1.00  0.00     0.017 C 
ENDBRANCH  21  24
ENDBRANCH   1  20
TORSDOF 6
ENDMDL
MODEL 7
REMARK VINA RESULT:      -7.5      1.767      4.730
REMARK  6 active torsions:
REMARK  status: ('A' for Active; 'I' for Inactive)
REMARK    1  A    between atoms: C2_2  and  C3_3 
REMARK       I    between atoms: C3_3  and  N1_5 
REMARK    2  A    between atoms: N1_5  and  C4_6 
REMARK    3  A    between atoms: C9_13  and  C10_14 
REMARK    4  A    between atoms: C10_14  and  C11_15 
REMARK    5  A    between atoms: C11_15  and  C12_16 
REMARK    6  A    between atoms: C13_17  and  C14_18 
ROOT
HETATM    1  C4  UNL     1      22.654  -0.748  53.999  1.00  0.00     0.035 A 
HETATM    2  C5  UNL     1      23.043  -1.338  55.182  1.00  0.00     0.032 A 
HETATM    3  C6  UNL     1      24.349  -1.280  55.628  1.00  0.00     0.035 A 
HETATM    4  C7  UNL     1      25.249  -0.607  54.841  1.00  0.00     0.070 A 
HETATM    5  N2  UNL     1      26.553  -0.520  55.225  1.00  0.00    -0.241 NA
HETATM    6  C8  UNL     1      27.457   0.129  54.470  1.00  0.00     0.234 A 
HETATM    7  N3  UNL     1      27.180   0.747  53.284  1.00  0.00    -0.246 NA
HETATM    8  C9  UNL     1      25.883   0.697  52.839  1.00  0.00     0.049 A 
HETATM    9  C18 UNL     1      24.983   0.027  53.632  1.00  0.00     0.019 A 
HETATM   10  C19 UNL     1      23.634  -0.085  53.262  1.00  0.00     0.045 A 
ENDROOT
BRANCH   8  11
HETATM   11  C10 UNL     1      25.488   1.321  51.573  1.00  0.00     0.064 C 
BRANCH  11  12
HETATM   12  C11 UNL     1      25.024   2.737  51.797  1.00  0.00     0.041 C 
BRANCH  12  13
HETATM   13  C12 UNL     1      24.416   3.377  50.629  1.00  0.00    -0.069 A 
HETATM   14  C13 UNL     1      23.203   3.057  50.142  1.00  0.00    -0.046 A 
HETATM   15  C15 UNL     1      22.927   3.883  49.003  1.00  0.00     0.004 A 
HETATM   16  C16 UNL     1      23.953   4.716  48.774  1.00  0.00    -0.022 A 
HETATM   17  C17 UNL     1      24.997   4.448  49.816  1.00  0.00     0.061 A 
BRANCH  14  18
HETATM   18  C14 UNL     1      22.117   2.084  50.493  1.00  0.00     0.123 C 
HETATM   19 BR1  UNL     1      21.499   1.175  48.928  1.00  0.00    -0.091 Br
ENDBRANCH  14  18
ENDBRANCH  12  13
ENDBRANCH  11  12
ENDBRANCH   8  11
BRANCH   1  20
HETATM   20  N1  UNL     1      21.311  -0.766  53.460  1.00  0.00    -0.324 N 
HETATM   21  C3  UNL     1      20.063  -0.041  53.753  1.00  0.00     0.244 C 
HETATM   22  O1  UNL     1      20.620   0.590  54.645  1.00  0.00    -0.268 OA
HETATM   23  H4  UNL     1      21.600  -1.534  52.754  1.00  0.00     0.169 HD
BRANCH  21  24
HETATM   24  C2  UNL     1      19.158  -0.619  52.781  1.00  0.00     0.064 C 
HETATM   25  C1  UNL     1      19.059   0.114  51.655  1.00  0.00     0.017 C 
ENDBRANCH  21  24
ENDBRANCH   1  20
TORSDOF 6
ENDMDL
MODEL 8
REMARK VINA RESULT:      -7.4      2.192      4.942
REMARK  6 active torsions:
REMARK  status: ('A' for Active; 'I' for Inactive)
REMARK    1  A    between atoms: C2_2  and  C3_3 
REMARK       I    between atoms: C3_3  and  N1_5 
REMARK    2  A    between atoms: N1_5  and  C4_6 
REMARK    3  A    between atoms: C9_13  and  C10_14 
REMARK    4  A    between atoms: C10_14  and  C11_15 
REMARK    5  A    between atoms: C11_15  and  C12_16 
REMARK    6  A    between atoms: C13_17  and  C14_18 
ROOT
HETATM    1  C4  UNL     1      22.145  -0.445  53.398  1.00  0.00     0.035 A 
HETATM    2  C5  UNL     1      22.209  -1.080  54.620  1.00  0.00     0.032 A 
HETATM    3  C6  UNL     1      23.397  -1.201  55.315  1.00  0.00     0.035 A 
HETATM    4  C7  UNL     1      24.517  -0.660  54.736  1.00  0.00     0.070 A 
HETATM    5  N2  UNL     1      25.718  -0.753  55.372  1.00  0.00    -0.241 NA
HETATM    6  C8  UNL     1      26.834  -0.235  54.825  1.00  0.00     0.234 A 
HETATM    7  N3  UNL     1      26.883   0.412  53.623  1.00  0.00    -0.246 NA
HETATM    8  C9  UNL     1      25.705   0.540  52.932  1.00  0.00     0.049 A 
HETATM    9  C18 UNL     1      24.583   0.001  53.516  1.00  0.00     0.019 A 
HETATM   10  C19 UNL     1      23.332   0.075  52.885  1.00  0.00     0.045 A 
ENDROOT
BRANCH   8  11
HETATM   11  C10 UNL     1      25.656   1.209  51.629  1.00  0.00     0.064 C 
BRANCH  11  12
HETATM   12  C11 UNL     1      25.100   2.603  51.765  1.00  0.00     0.041 C 
BRANCH  12  13
HETATM   13  C12 UNL     1      24.289   3.055  50.632  1.00  0.00    -0.069 A 
HETATM   14  C13 UNL     1      24.563   4.149  49.900  1.00  0.00    -0.046 A 
HETATM   15  C15 UNL     1      23.568   4.284  48.876  1.00  0.00     0.004 A 
HETATM   16  C16 UNL     1      22.677   3.285  48.960  1.00  0.00    -0.022 A 
HETATM   17  C17 UNL     1      23.082   2.411  50.110  1.00  0.00     0.061 A 
BRANCH  14  18
HETATM   18  C14 UNL     1      25.617   5.216  49.898  1.00  0.00     0.123 C 
HETATM   19 BR1  UNL     1      27.172   4.624  48.956  1.00  0.00    -0.091 Br
ENDBRANCH  14  18
ENDBRANCH  12  13
ENDBRANCH  11  12
ENDBRANCH   8  11
BRANCH   1  20
HETATM   20  N1  UNL     1      20.946  -0.280  52.606  1.00  0.00    -0.324 N 
HETATM   21  C3  UNL     1      19.964   0.802  52.419  1.00  0.00     0.244 C 
HETATM   22  O1  UNL     1      20.573   1.514  53.211  1.00  0.00    -0.268 OA
HETATM   23  H4  UNL     1      21.065  -1.280  52.209  1.00  0.00     0.169 HD
BRANCH  21  24
HETATM   24  C2  UNL     1      19.054   0.205  51.463  1.00  0.00     0.064 C 
HETATM   25  C1  UNL     1      18.145  -0.606  52.040  1.00  0.00     0.017 C 
ENDBRANCH  21  24
ENDBRANCH   1  20
TORSDOF 6
ENDMDL
MODEL 9
REMARK VINA RESULT:      -7.4      2.771      5.532
REMARK  6 active torsions:
REMARK  status: ('A' for Active; 'I' for Inactive)
REMARK    1  A    between atoms: C2_2  and  C3_3 
REMARK       I    between atoms: C3_3  and  N1_5 
REMARK    2  A    between atoms: N1_5  and  C4_6 
REMARK    3  A    between atoms: C9_13  and  C10_14 
REMARK    4  A    between atoms: C10_14  and  C11_15 
REMARK    5  A    between atoms: C11_15  and  C12_16 
REMARK    6  A    between atoms: C13_17  and  C14_18 
ROOT
HETATM    1  C4  UNL     1      26.064   2.195  51.760  1.00  0.00     0.035 A 
HETATM    2  C5  UNL     1      26.726   2.848  50.743  1.00  0.00     0.032 A 
HETATM    3  C6  UNL     1      26.044   3.537  49.758  1.00  0.00     0.035 A 
HETATM    4  C7  UNL     1      24.674   3.544  49.834  1.00  0.00     0.070 A 
HETATM    5  N2  UNL     1      23.948   4.202  48.889  1.00  0.00    -0.241 NA
HETATM    6  C8  UNL     1      22.603   4.222  48.936  1.00  0.00     0.234 A 
HETATM    7  N3  UNL     1      21.850   3.609  49.897  1.00  0.00    -0.246 NA
HETATM    8  C9  UNL     1      22.522   2.928  50.881  1.00  0.00     0.049 A 
HETATM    9  C18 UNL     1      23.894   2.927  50.805  1.00  0.00     0.019 A 
HETATM   10  C19 UNL     1      24.672   2.254  51.760  1.00  0.00     0.045 A 
ENDROOT
BRANCH   8  11
HETATM   11  C10 UNL     1      21.803   2.230  51.950  1.00  0.00     0.064 C 
BRANCH  11  12
HETATM   12  C11 UNL     1      21.586   0.782  51.591  1.00  0.00     0.041 C 
BRANCH  12  13
HETATM   13  C12 UNL     1      21.516  -0.131  52.734  1.00  0.00    -0.069 A 
HETATM   14  C13 UNL     1      20.371  -0.648  53.215  1.00  0.00    -0.046 A 
HETATM   15  C15 UNL     1      20.677  -1.500  54.327  1.00  0.00     0.004 A 
HETATM   16  C16 UNL     1      22.001  -1.522  54.545  1.00  0.00    -0.022 A 
HETATM   17  C17 UNL     1      22.644  -0.632  53.523  1.00  0.00     0.061 A 
BRANCH  14  18
HETATM   18  C14 UNL     1      18.912  -0.551  52.879  1.00  0.00     0.123 C 
HETATM   19 BR1  UNL     1      17.961  -2.053  53.579  1.00  0.00    -0.091 Br
ENDBRANCH  14  18
ENDBRANCH  12  13
ENDBRANCH  11  12
ENDBRANCH   8  11
BRANCH   1  20
HETATM   20  N1  UNL     1      26.701   1.449  52.824  1.00  0.00    -0.324 N 
HETATM   21  C3  UNL     1      27.133   0.051  53.000  1.00  0.00     0.244 C 
HETATM   22  O1  UNL     1      26.733  -0.231  51.875  1.00  0.00    -0.268 OA
HETATM   23  H4  UNL     1      26.727   2.339  53.439  1.00  0.00     0.169 HD
BRANCH  21  24
HETATM   24  C2  UNL     1      27.686   0.086  54.338  1.00  0.00     0.064 C 
HETATM   25  C1  UNL     1      28.992   0.418  54.358  1.00  0.00     0.017 C 
ENDBRANCH  21  24
ENDBRANCH   1  20
TORSDOF 6
ENDMDL
