MODEL 1
REMARK VINA RESULT:      -7.1      0.000      0.000
REMARK  10 active torsions:
REMARK  status: ('A' for Active; 'I' for Inactive)
REMARK    1  A    between atoms: C2_2  and  C3_3 
REMARK    2  A    between atoms: C3_3  and  C4_4 
REMARK    3  A    between atoms: C4_4  and  C5_5 
REMARK    4  A    between atoms: C5_5  and  C6_6 
REMARK    5  A    between atoms: C6_6  and  C7_7 
REMARK    6  A    between atoms: C7_7  and  N1_9 
REMARK    7  A    between atoms: N1_9  and  C9_10 
REMARK    8  A    between atoms: C14_17  and  N4_18 
REMARK       I    between atoms: N4_18  and  C15_19 
REMARK    9  A    between atoms: C15_19  and  C16_21 
REMARK   10  A    between atoms: C18_23  and  O2_24 
ROOT
HETATM    1  C9  UNL     1      22.883   1.835  51.792  1.00  0.00     0.137 A 
HETATM    2  N2  UNL     1      21.650   1.586  52.266  1.00  0.00    -0.224 NA
HETATM    3  C10 UNL     1      21.426   0.638  53.190  1.00  0.00     0.235 A 
HETATM    4  N3  UNL     1      22.452  -0.106  53.675  1.00  0.00    -0.242 NA
HETATM    5  C11 UNL     1      23.716   0.077  53.255  1.00  0.00     0.084 A 
HETATM    6  C12 UNL     1      23.915   1.057  52.308  1.00  0.00     0.039 A 
HETATM    7  C13 UNL     1      25.339   1.107  51.979  1.00  0.00     0.045 A 
HETATM    8  C14 UNL     1      25.980   0.200  52.693  1.00  0.00     0.048 A 
HETATM    9  C18 UNL     1      25.031  -0.539  53.565  1.00  0.00     0.223 A 
ENDROOT
BRANCH   1  10
HETATM   10  N1  UNL     1      23.146   2.833  50.816  1.00  0.00    -0.369 N 
HETATM   11  H12 UNL     1      23.261   2.541  49.821  1.00  0.00     0.161 HD
BRANCH  10  12
HETATM   12  C7  UNL     1      23.264   4.243  51.124  1.00  0.00     0.082 C 
HETATM   13  C8  UNL     1      23.515   4.478  52.592  1.00  0.00     0.032 C 
BRANCH  12  14
HETATM   14  C6  UNL     1      24.259   4.957  50.237  1.00  0.00     0.051 C 
BRANCH  14  15
HETATM   15  C5  UNL     1      25.230   4.056  49.600  1.00  0.00    -0.024 C 
BRANCH  15  16
HETATM   16  C4  UNL     1      26.533   4.175  49.404  1.00  0.00     0.004 C 
BRANCH  16  17
HETATM   17  C3  UNL     1      27.084   5.343  48.783  1.00  0.00     0.050 C 
BRANCH  17  18
HETATM   18  C2  UNL     1      28.337   5.347  48.356  1.00  0.00    -0.155 C 
HETATM   19  C1  UNL     1      29.606   5.586  48.075  1.00  0.00     0.096 C 
ENDBRANCH  17  18
ENDBRANCH  16  17
ENDBRANCH  15  16
ENDBRANCH  14  15
ENDBRANCH  12  14
ENDBRANCH  10  12
ENDBRANCH   1  10
BRANCH   9  20
HETATM   20  O2  UNL     1      25.301  -0.248  54.900  1.00  0.00    -0.378 OA
HETATM   21  C19 UNL     1      24.879  -1.256  55.756  1.00  0.00     0.203 C 
ENDBRANCH   9  20
BRANCH   8  22
HETATM   22  N4  UNL     1      27.362  -0.196  52.785  1.00  0.00    -0.328 N 
HETATM   23  C15 UNL     1      28.323   0.506  53.563  1.00  0.00     0.221 C 
HETATM   24  O1  UNL     1      28.006   1.538  54.230  1.00  0.00    -0.273 OA
HETATM   25  H15 UNL     1      27.658  -1.035  52.252  1.00  0.00     0.168 HD
BRANCH  23  26
HETATM   26  C16 UNL     1      29.729   0.012  53.589  1.00  0.00     0.098 C 
HETATM   27  C17 UNL     1      29.745  -1.499  53.531  1.00  0.00     0.014 C 
ENDBRANCH  23  26
ENDBRANCH   8  22
TORSDOF 10
ENDMDL
MODEL 2
REMARK VINA RESULT:      -7.0      1.643      3.338
REMARK  10 active torsions:
REMARK  status: ('A' for Active; 'I' for Inactive)
REMARK    1  A    between atoms: C2_2  and  C3_3 
REMARK    2  A    between atoms: C3_3  and  C4_4 
REMARK    3  A    between atoms: C4_4  and  C5_5 
REMARK    4  A    between atoms: C5_5  and  C6_6 
REMARK    5  A    between atoms: C6_6  and  C7_7 
REMARK    6  A    between atoms: C7_7  and  N1_9 
REMARK    7  A    between atoms: N1_9  and  C9_10 
REMARK    8  A    between atoms: C14_17  and  N4_18 
REMARK       I    between atoms: N4_18  and  C15_19 
REMARK    9  A    between atoms: C15_19  and  C16_21 
REMARK   10  A    between atoms: C18_23  and  O2_24 
ROOT
HETATM    1  C9  UNL     1      25.140   4.261  50.304  1.00  0.00     0.137 A 
HETATM    2  N2  UNL     1      23.865   4.458  49.930  1.00  0.00    -0.224 NA
HETATM    3  C10 UNL     1      22.902   3.560  50.197  1.00  0.00     0.235 A 
HETATM    4  N3  UNL     1      23.197   2.414  50.860  1.00  0.00    -0.242 NA
HETATM    5  C11 UNL     1      24.447   2.137  51.270  1.00  0.00     0.084 A 
HETATM    6  C12 UNL     1      25.412   3.076  50.983  1.00  0.00     0.039 A 
HETATM    7  C13 UNL     1      26.695   2.604  51.503  1.00  0.00     0.045 A 
HETATM    8  C14 UNL     1      26.521   1.430  52.081  1.00  0.00     0.048 A 
HETATM    9  C18 UNL     1      25.097   1.015  51.996  1.00  0.00     0.223 A 
ENDROOT
BRANCH   1  10
HETATM   10  N1  UNL     1      26.175   5.196  50.034  1.00  0.00    -0.369 N 
HETATM   11  H12 UNL     1      26.610   5.705  50.835  1.00  0.00     0.161 HD
BRANCH  10  12
HETATM   12  C7  UNL     1      26.665   5.486  48.703  1.00  0.00     0.082 C 
HETATM   13  C8  UNL     1      26.345   6.899  48.283  1.00  0.00     0.032 C 
BRANCH  12  14
HETATM   14  C6  UNL     1      28.125   5.138  48.525  1.00  0.00     0.051 C 
BRANCH  14  15
HETATM   15  C5  UNL     1      28.928   6.237  47.968  1.00  0.00    -0.024 C 
BRANCH  15  16
HETATM   16  C4  UNL     1      30.210   6.307  47.650  1.00  0.00     0.004 C 
BRANCH  16  17
HETATM   17  C3  UNL     1      31.144   5.330  48.123  1.00  0.00     0.050 C 
BRANCH  17  18
HETATM   18  C2  UNL     1      31.551   4.352  47.329  1.00  0.00    -0.155 C 
HETATM   19  C1  UNL     1      32.166   3.548  46.480  1.00  0.00     0.096 C 
ENDBRANCH  17  18
ENDBRANCH  16  17
ENDBRANCH  15  16
ENDBRANCH  14  15
ENDBRANCH  12  14
ENDBRANCH  10  12
ENDBRANCH   1  10
BRANCH   9  20
HETATM   20  O2  UNL     1      24.540   0.994  53.272  1.00  0.00    -0.378 OA
HETATM   21  C19 UNL     1      23.874  -0.195  53.537  1.00  0.00     0.203 C 
ENDBRANCH   9  20
BRANCH   8  22
HETATM   22  N4  UNL     1      27.406   0.512  52.750  1.00  0.00    -0.328 N 
HETATM   23  C15 UNL     1      28.194   0.870  53.878  1.00  0.00     0.221 C 
HETATM   24  O1  UNL     1      28.155   2.042  54.364  1.00  0.00    -0.273 OA
HETATM   25  H15 UNL     1      27.465  -0.456  52.380  1.00  0.00     0.168 HD
BRANCH  23  26
HETATM   26  C16 UNL     1      29.079  -0.157  54.496  1.00  0.00     0.098 C 
HETATM   27  C17 UNL     1      29.924  -0.816  53.430  1.00  0.00     0.014 C 
ENDBRANCH  23  26
ENDBRANCH   8  22
TORSDOF 10
ENDMDL
MODEL 3
REMARK VINA RESULT:      -7.0      1.486      2.037
REMARK  10 active torsions:
REMARK  status: ('A' for Active; 'I' for Inactive)
REMARK    1  A    between atoms: C2_2  and  C3_3 
REMARK    2  A    between atoms: C3_3  and  C4_4 
REMARK    3  A    between atoms: C4_4  and  C5_5 
REMARK    4  A    between atoms: C5_5  and  C6_6 
REMARK    5  A    between atoms: C6_6  and  C7_7 
REMARK    6  A    between atoms: C7_7  and  N1_9 
REMARK    7  A    between atoms: N1_9  and  C9_10 
REMARK    8  A    between atoms: C14_17  and  N4_18 
REMARK       I    between atoms: N4_18  and  C15_19 
REMARK    9  A    between atoms: C15_19  and  C16_21 
REMARK   10  A    between atoms: C18_23  and  O2_24 
ROOT
HETATM    1  C9  UNL     1      23.153   4.293  52.098  1.00  0.00     0.137 A 
HETATM    2  N2  UNL     1      21.811   4.363  52.117  1.00  0.00    -0.224 NA
HETATM    3  C10 UNL     1      21.048   3.270  52.278  1.00  0.00     0.235 A 
HETATM    4  N3  UNL     1      21.619   2.048  52.428  1.00  0.00    -0.242 NA
HETATM    5  C11 UNL     1      22.954   1.888  52.421  1.00  0.00     0.084 A 
HETATM    6  C12 UNL     1      23.710   3.026  52.255  1.00  0.00     0.039 A 
HETATM    7  C13 UNL     1      25.125   2.655  52.274  1.00  0.00     0.045 A 
HETATM    8  C14 UNL     1      25.227   1.350  52.445  1.00  0.00     0.048 A 
HETATM    9  C18 UNL     1      23.880   0.734  52.554  1.00  0.00     0.223 A 
ENDROOT
BRANCH   1  10
HETATM   10  N1  UNL     1      23.982   5.434  51.931  1.00  0.00    -0.369 N 
HETATM   11  H12 UNL     1      24.571   5.746  52.734  1.00  0.00     0.161 HD
BRANCH  10  12
HETATM   12  C7  UNL     1      24.057   6.195  50.702  1.00  0.00     0.082 C 
HETATM   13  C8  UNL     1      25.007   7.361  50.821  1.00  0.00     0.032 C 
BRANCH  12  14
HETATM   14  C6  UNL     1      24.335   5.334  49.491  1.00  0.00     0.051 C 
BRANCH  14  15
HETATM   15  C5  UNL     1      25.718   5.436  49.002  1.00  0.00    -0.024 C 
BRANCH  15  16
HETATM   16  C4  UNL     1      26.738   4.597  49.085  1.00  0.00     0.004 C 
BRANCH  16  17
HETATM   17  C3  UNL     1      28.025   4.944  48.562  1.00  0.00     0.050 C 
BRANCH  17  18
HETATM   18  C2  UNL     1      28.269   6.177  48.145  1.00  0.00    -0.155 C 
HETATM   19  C1  UNL     1      28.513   7.291  47.479  1.00  0.00     0.096 C 
ENDBRANCH  17  18
ENDBRANCH  16  17
ENDBRANCH  15  16
ENDBRANCH  14  15
ENDBRANCH  12  14
ENDBRANCH  10  12
ENDBRANCH   1  10
BRANCH   9  20
HETATM   20  O2  UNL     1      23.701   0.229  53.840  1.00  0.00    -0.378 OA
HETATM   21  C19 UNL     1      22.919  -0.918  53.851  1.00  0.00     0.203 C 
ENDBRANCH   9  20
BRANCH   8  22
HETATM   22  N4  UNL     1      26.344   0.446  52.541  1.00  0.00    -0.328 N 
HETATM   23  C15 UNL     1      27.155   0.330  53.703  1.00  0.00     0.221 C 
HETATM   24  O1  UNL     1      26.931   1.032  54.737  1.00  0.00    -0.273 OA
HETATM   25  H15 UNL     1      26.558  -0.143  51.715  1.00  0.00     0.168 HD
BRANCH  23  26
HETATM   26  C16 UNL     1      28.289  -0.637  53.698  1.00  0.00     0.098 C 
HETATM   27  C17 UNL     1      29.600   0.107  53.582  1.00  0.00     0.014 C 
ENDBRANCH  23  26
ENDBRANCH   8  22
TORSDOF 10
ENDMDL
MODEL 4
REMARK VINA RESULT:      -7.0      2.766      7.231
REMARK  10 active torsions:
REMARK  status: ('A' for Active; 'I' for Inactive)
REMARK    1  A    between atoms: C2_2  and  C3_3 
REMARK    2  A    between atoms: C3_3  and  C4_4 
REMARK    3  A    between atoms: C4_4  and  C5_5 
REMARK    4  A    between atoms: C5_5  and  C6_6 
REMARK    5  A    between atoms: C6_6  and  C7_7 
REMARK    6  A    between atoms: C7_7  and  N1_9 
REMARK    7  A    between atoms: N1_9  and  C9_10 
REMARK    8  A    between atoms: C14_17  and  N4_18 
REMARK       I    between atoms: N4_18  and  C15_19 
REMARK    9  A    between atoms: C15_19  and  C16_21 
REMARK   10  A    between atoms: C18_23  and  O2_24 
ROOT
HETATM    1  C9  UNL     1      23.825  -0.478  53.841  1.00  0.00     0.137 A 
HETATM    2  N2  UNL     1      24.051  -1.071  55.025  1.00  0.00    -0.224 NA
HETATM    3  C10 UNL     1      25.249  -1.009  55.630  1.00  0.00     0.235 A 
HETATM    4  N3  UNL     1      26.277  -0.337  55.052  1.00  0.00    -0.242 NA
HETATM    5  C11 UNL     1      26.136   0.285  53.868  1.00  0.00     0.084 A 
HETATM    6  C12 UNL     1      24.897   0.204  53.273  1.00  0.00     0.039 A 
HETATM    7  C13 UNL     1      24.938   0.934  52.006  1.00  0.00     0.045 A 
HETATM    8  C14 UNL     1      26.147   1.436  51.836  1.00  0.00     0.048 A 
HETATM    9  C18 UNL     1      27.022   1.083  52.983  1.00  0.00     0.223 A 
ENDROOT
BRANCH   1  10
HETATM   10  N1  UNL     1      22.567  -0.529  53.183  1.00  0.00    -0.369 N 
HETATM   11  H12 UNL     1      22.400  -1.285  52.483  1.00  0.00     0.161 HD
BRANCH  10  12
HETATM   12  C7  UNL     1      21.496   0.415  53.427  1.00  0.00     0.082 C 
HETATM   13  C8  UNL     1      21.192   1.247  52.207  1.00  0.00     0.032 C 
BRANCH  12  14
HETATM   14  C6  UNL     1      20.265  -0.233  54.018  1.00  0.00     0.051 C 
BRANCH  14  15
HETATM   15  C5  UNL     1      19.235  -0.555  53.020  1.00  0.00    -0.024 C 
BRANCH  15  16
HETATM   16  C4  UNL     1      18.161  -1.325  53.090  1.00  0.00     0.004 C 
BRANCH  16  17
HETATM   17  C3  UNL     1      18.154  -2.512  53.891  1.00  0.00     0.050 C 
BRANCH  17  18
HETATM   18  C2  UNL     1      17.297  -3.489  53.635  1.00  0.00    -0.155 C 
HETATM   19  C1  UNL     1      16.642  -4.555  53.212  1.00  0.00     0.096 C 
ENDBRANCH  17  18
ENDBRANCH  16  17
ENDBRANCH  15  16
ENDBRANCH  14  15
ENDBRANCH  12  14
ENDBRANCH  10  12
ENDBRANCH   1  10
BRANCH   9  20
HETATM   20  O2  UNL     1      27.354   2.236  53.689  1.00  0.00    -0.378 OA
HETATM   21  C19 UNL     1      28.727   2.404  53.809  1.00  0.00     0.203 C 
ENDBRANCH   9  20
BRANCH   8  22
HETATM   22  N4  UNL     1      26.755   2.227  50.797  1.00  0.00    -0.328 N 
HETATM   23  C15 UNL     1      26.222   3.466  50.347  1.00  0.00     0.221 C 
HETATM   24  O1  UNL     1      25.160   3.948  50.848  1.00  0.00    -0.273 OA
HETATM   25  H15 UNL     1      27.625   1.864  50.363  1.00  0.00     0.168 HD
BRANCH  23  26
HETATM   26  C16 UNL     1      26.931   4.206  49.265  1.00  0.00     0.098 C 
HETATM   27  C17 UNL     1      26.247   5.531  49.014  1.00  0.00     0.014 C 
ENDBRANCH  23  26
ENDBRANCH   8  22
TORSDOF 10
ENDMDL
MODEL 5
REMARK VINA RESULT:      -7.0      1.993      3.245
REMARK  10 active torsions:
REMARK  status: ('A' for Active; 'I' for Inactive)
REMARK    1  A    between atoms: C2_2  and  C3_3 
REMARK    2  A    between atoms: C3_3  and  C4_4 
REMARK    3  A    between atoms: C4_4  and  C5_5 
REMARK    4  A    between atoms: C5_5  and  C6_6 
REMARK    5  A    between atoms: C6_6  and  C7_7 
REMARK    6  A    between atoms: C7_7  and  N1_9 
REMARK    7  A    between atoms: N1_9  and  C9_10 
REMARK    8  A    between atoms: C14_17  and  N4_18 
REMARK       I    between atoms: N4_18  and  C15_19 
REMARK    9  A    between atoms: C15_19  and  C16_21 
REMARK   10  A    between atoms: C18_23  and  O2_24 
ROOT
HETATM    1  C9  UNL     1      22.872   4.376  52.271  1.00  0.00     0.137 A 
HETATM    2  N2  UNL     1      21.530   4.457  52.280  1.00  0.00    -0.224 NA
HETATM    3  C10 UNL     1      20.756   3.364  52.386  1.00  0.00     0.235 A 
HETATM    4  N3  UNL     1      21.316   2.132  52.486  1.00  0.00    -0.242 NA
HETATM    5  C11 UNL     1      22.650   1.961  52.484  1.00  0.00     0.084 A 
HETATM    6  C12 UNL     1      23.417   3.099  52.375  1.00  0.00     0.039 A 
HETATM    7  C13 UNL     1      24.828   2.715  52.391  1.00  0.00     0.045 A 
HETATM    8  C14 UNL     1      24.918   1.403  52.504  1.00  0.00     0.048 A 
HETATM    9  C18 UNL     1      23.565   0.794  52.574  1.00  0.00     0.223 A 
ENDROOT
BRANCH   1  10
HETATM   10  N1  UNL     1      23.711   5.516  52.161  1.00  0.00    -0.369 N 
HETATM   11  H12 UNL     1      24.175   5.879  53.022  1.00  0.00     0.161 HD
BRANCH  10  12
HETATM   12  C7  UNL     1      23.961   6.210  50.915  1.00  0.00     0.082 C 
HETATM   13  C8  UNL     1      23.999   7.706  51.103  1.00  0.00     0.032 C 
BRANCH  12  14
HETATM   14  C6  UNL     1      25.171   5.681  50.180  1.00  0.00     0.051 C 
BRANCH  14  15
HETATM   15  C5  UNL     1      24.834   4.824  49.034  1.00  0.00    -0.024 C 
BRANCH  15  16
HETATM   16  C4  UNL     1      24.313   3.609  48.976  1.00  0.00     0.004 C 
BRANCH  16  17
HETATM   17  C3  UNL     1      22.936   3.411  48.633  1.00  0.00     0.050 C 
BRANCH  17  18
HETATM   18  C2  UNL     1      22.346   2.249  48.872  1.00  0.00    -0.155 C 
HETATM   19  C1  UNL     1      21.588   1.168  48.907  1.00  0.00     0.096 C 
ENDBRANCH  17  18
ENDBRANCH  16  17
ENDBRANCH  15  16
ENDBRANCH  14  15
ENDBRANCH  12  14
ENDBRANCH  10  12
ENDBRANCH   1  10
BRANCH   9  20
HETATM   20  O2  UNL     1      23.370   0.234  53.834  1.00  0.00    -0.378 OA
HETATM   21  C19 UNL     1      22.694  -0.977  53.773  1.00  0.00     0.203 C 
ENDBRANCH   9  20
BRANCH   8  22
HETATM   22  N4  UNL     1      26.026   0.486  52.570  1.00  0.00    -0.328 N 
HETATM   23  C15 UNL     1      26.922   0.423  53.672  1.00  0.00     0.221 C 
HETATM   24  O1  UNL     1      26.786   1.187  54.677  1.00  0.00    -0.273 OA
HETATM   25  H15 UNL     1      26.169  -0.154  51.766  1.00  0.00     0.168 HD
BRANCH  23  26
HETATM   26  C16 UNL     1      28.039  -0.563  53.639  1.00  0.00     0.098 C 
HETATM   27  C17 UNL     1      29.358   0.146  53.843  1.00  0.00     0.014 C 
ENDBRANCH  23  26
ENDBRANCH   8  22
TORSDOF 10
ENDMDL
MODEL 6
REMARK VINA RESULT:      -6.7      2.699      6.118
REMARK  10 active torsions:
REMARK  status: ('A' for Active; 'I' for Inactive)
REMARK    1  A    between atoms: C2_2  and  C3_3 
REMARK    2  A    between atoms: C3_3  and  C4_4 
REMARK    3  A    between atoms: C4_4  and  C5_5 
REMARK    4  A    between atoms: C5_5  and  C6_6 
REMARK    5  A    between atoms: C6_6  and  C7_7 
REMARK    6  A    between atoms: C7_7  and  N1_9 
REMARK    7  A    between atoms: N1_9  and  C9_10 
REMARK    8  A    between atoms: C14_17  and  N4_18 
REMARK       I    between atoms: N4_18  and  C15_19 
REMARK    9  A    between atoms: C15_19  and  C16_21 
REMARK   10  A    between atoms: C18_23  and  O2_24 
ROOT
HETATM    1  C9  UNL     1      22.297   1.542  52.404  1.00  0.00     0.137 A 
HETATM    2  N2  UNL     1      21.010   1.307  52.708  1.00  0.00    -0.224 NA
HETATM    3  C10 UNL     1      20.095   2.290  52.720  1.00  0.00     0.235 A 
HETATM    4  N3  UNL     1      20.451   3.565  52.423  1.00  0.00    -0.242 NA
HETATM    5  C11 UNL     1      21.718   3.888  52.108  1.00  0.00     0.084 A 
HETATM    6  C12 UNL     1      22.633   2.860  52.103  1.00  0.00     0.039 A 
HETATM    7  C13 UNL     1      23.943   3.400  51.742  1.00  0.00     0.045 A 
HETATM    8  C14 UNL     1      23.832   4.700  51.535  1.00  0.00     0.048 A 
HETATM    9  C18 UNL     1      22.429   5.140  51.743  1.00  0.00     0.223 A 
ENDROOT
BRANCH   1  10
HETATM   10  N1  UNL     1      23.283   0.520  52.384  1.00  0.00    -0.369 N 
HETATM   11  H12 UNL     1      23.559   0.111  51.464  1.00  0.00     0.161 HD
BRANCH  10  12
HETATM   12  C7  UNL     1      23.931   0.008  53.573  1.00  0.00     0.082 C 
HETATM   13  C8  UNL     1      23.038  -0.938  54.336  1.00  0.00     0.032 C 
BRANCH  12  14
HETATM   14  C6  UNL     1      25.298  -0.573  53.294  1.00  0.00     0.051 C 
BRANCH  14  15
HETATM   15  C5  UNL     1      26.043   0.152  52.254  1.00  0.00    -0.024 C 
BRANCH  15  16
HETATM   16  C4  UNL     1      27.067   0.986  52.335  1.00  0.00     0.004 C 
BRANCH  16  17
HETATM   17  C3  UNL     1      27.950   0.966  53.462  1.00  0.00     0.050 C 
BRANCH  17  18
HETATM   18  C2  UNL     1      28.869   0.019  53.577  1.00  0.00    -0.155 C 
HETATM   19  C1  UNL     1      29.676  -1.020  53.458  1.00  0.00     0.096 C 
ENDBRANCH  17  18
ENDBRANCH  16  17
ENDBRANCH  15  16
ENDBRANCH  14  15
ENDBRANCH  12  14
ENDBRANCH  10  12
ENDBRANCH   1  10
BRANCH   9  20
HETATM   20  O2  UNL     1      21.889   5.564  50.531  1.00  0.00    -0.378 OA
HETATM   21  C19 UNL     1      21.422   6.870  50.590  1.00  0.00     0.203 C 
ENDBRANCH   9  20
BRANCH   8  22
HETATM   22  N4  UNL     1      24.769   5.729  51.164  1.00  0.00    -0.328 N 
HETATM   23  C15 UNL     1      25.281   5.878  49.846  1.00  0.00     0.221 C 
HETATM   24  O1  UNL     1      24.931   5.096  48.909  1.00  0.00    -0.273 OA
HETATM   25  H15 UNL     1      25.078   6.387  51.903  1.00  0.00     0.168 HD
BRANCH  23  26
HETATM   26  C16 UNL     1      26.247   6.978  49.567  1.00  0.00     0.098 C 
HETATM   27  C17 UNL     1      27.125   6.606  48.394  1.00  0.00     0.014 C 
ENDBRANCH  23  26
ENDBRANCH   8  22
TORSDOF 10
ENDMDL
MODEL 7
REMARK VINA RESULT:      -6.6      2.772      5.773
REMARK  10 active torsions:
REMARK  status: ('A' for Active; 'I' for Inactive)
REMARK    1  A    between atoms: C2_2  and  C3_3 
REMARK    2  A    between atoms: C3_3  and  C4_4 
REMARK    3  A    between atoms: C4_4  and  C5_5 
REMARK    4  A    between atoms: C5_5  and  C6_6 
REMARK    5  A    between atoms: C6_6  and  C7_7 
REMARK    6  A    between atoms: C7_7  and  N1_9 
REMARK    7  A    between atoms: N1_9  and  C9_10 
REMARK    8  A    between atoms: C14_17  and  N4_18 
REMARK       I    between atoms: N4_18  and  C15_19 
REMARK    9  A    between atoms: C15_19  and  C16_21 
REMARK   10  A    between atoms: C18_23  and  O2_24 
ROOT
HETATM    1  C9  UNL     1      24.803  -0.407  53.983  1.00  0.00     0.137 A 
HETATM    2  N2  UNL     1      24.814  -1.152  55.102  1.00  0.00    -0.224 NA
HETATM    3  C10 UNL     1      23.681  -1.484  55.742  1.00  0.00     0.235 A 
HETATM    4  N3  UNL     1      22.478  -1.069  55.270  1.00  0.00    -0.242 NA
HETATM    5  C11 UNL     1      22.377  -0.320  54.158  1.00  0.00     0.084 A 
HETATM    6  C12 UNL     1      23.555   0.003  53.524  1.00  0.00     0.039 A 
HETATM    7  C13 UNL     1      23.245   0.813  52.346  1.00  0.00     0.045 A 
HETATM    8  C14 UNL     1      21.937   0.976  52.265  1.00  0.00     0.048 A 
HETATM    9  C18 UNL     1      21.258   0.284  53.391  1.00  0.00     0.223 A 
ENDROOT
BRANCH   1  10
HETATM   10  N1  UNL     1      25.987  -0.044  53.288  1.00  0.00    -0.369 N 
HETATM   11  H12 UNL     1      26.167  -0.469  52.352  1.00  0.00     0.161 HD
BRANCH  10  12
HETATM   12  C7  UNL     1      26.968   0.887  53.807  1.00  0.00     0.082 C 
HETATM   13  C8  UNL     1      28.144   0.176  54.428  1.00  0.00     0.032 C 
BRANCH  12  14
HETATM   14  C6  UNL     1      27.380   1.931  52.795  1.00  0.00     0.051 C 
BRANCH  14  15
HETATM   15  C5  UNL     1      26.620   1.865  51.539  1.00  0.00    -0.024 C 
BRANCH  15  16
HETATM   16  C4  UNL     1      26.387   2.778  50.610  1.00  0.00     0.004 C 
BRANCH  16  17
HETATM   17  C3  UNL     1      25.186   3.559  50.626  1.00  0.00     0.050 C 
BRANCH  17  18
HETATM   18  C2  UNL     1      24.243   3.356  49.719  1.00  0.00    -0.155 C 
HETATM   19  C1  UNL     1      23.329   2.888  48.887  1.00  0.00     0.096 C 
ENDBRANCH  17  18
ENDBRANCH  16  17
ENDBRANCH  15  16
ENDBRANCH  14  15
ENDBRANCH  12  14
ENDBRANCH  10  12
ENDBRANCH   1  10
BRANCH   9  20
HETATM   20  O2  UNL     1      20.498  -0.774  52.897  1.00  0.00    -0.378 OA
HETATM   21  C19 UNL     1      19.163  -0.680  53.266  1.00  0.00     0.203 C 
ENDBRANCH   9  20
BRANCH   8  22
HETATM   22  N4  UNL     1      21.079   1.666  51.338  1.00  0.00    -0.328 N 
HETATM   23  C15 UNL     1      20.320   2.817  51.685  1.00  0.00     0.221 C 
HETATM   24  O1  UNL     1      20.363   3.307  52.855  1.00  0.00    -0.273 OA
HETATM   25  H15 UNL     1      21.018   1.294  50.371  1.00  0.00     0.168 HD
BRANCH  23  26
HETATM   26  C16 UNL     1      19.461   3.456  50.648  1.00  0.00     0.098 C 
HETATM   27  C17 UNL     1      19.351   2.550  49.442  1.00  0.00     0.014 C 
ENDBRANCH  23  26
ENDBRANCH   8  22
TORSDOF 10
ENDMDL
MODEL 8
REMARK VINA RESULT:      -6.6      2.797      6.378
REMARK  10 active torsions:
REMARK  status: ('A' for Active; 'I' for Inactive)
REMARK    1  A    between atoms: C2_2  and  C3_3 
REMARK    2  A    between atoms: C3_3  and  C4_4 
REMARK    3  A    between atoms: C4_4  and  C5_5 
REMARK    4  A    between atoms: C5_5  and  C6_6 
REMARK    5  A    between atoms: C6_6  and  C7_7 
REMARK    6  A    between atoms: C7_7  and  N1_9 
REMARK    7  A    between atoms: N1_9  and  C9_10 
REMARK    8  A    between atoms: C14_17  and  N4_18 
REMARK       I    between atoms: N4_18  and  C15_19 
REMARK    9  A    between atoms: C15_19  and  C16_21 
REMARK   10  A    between atoms: C18_23  and  O2_24 
ROOT
HETATM    1  C9  UNL     1      24.072   2.219  51.613  1.00  0.00     0.137 A 
HETATM    2  N2  UNL     1      22.825   2.349  52.096  1.00  0.00    -0.224 NA
HETATM    3  C10 UNL     1      22.056   3.408  51.795  1.00  0.00     0.235 A 
HETATM    4  N3  UNL     1      22.526   4.391  50.986  1.00  0.00    -0.242 NA
HETATM    5  C11 UNL     1      23.763   4.341  50.460  1.00  0.00     0.084 A 
HETATM    6  C12 UNL     1      24.526   3.242  50.785  1.00  0.00     0.039 A 
HETATM    7  C13 UNL     1      25.826   3.364  50.126  1.00  0.00     0.045 A 
HETATM    8  C14 UNL     1      25.854   4.486  49.430  1.00  0.00     0.048 A 
HETATM    9  C18 UNL     1      24.567   5.214  49.567  1.00  0.00     0.223 A 
ENDROOT
BRANCH   1  10
HETATM   10  N1  UNL     1      24.903   1.108  51.915  1.00  0.00    -0.369 N 
HETATM   11  H12 UNL     1      25.275   0.534  51.127  1.00  0.00     0.161 HD
BRANCH  10  12
HETATM   12  C7  UNL     1      25.266   0.722  53.262  1.00  0.00     0.082 C 
HETATM   13  C8  UNL     1      25.846  -0.670  53.311  1.00  0.00     0.032 C 
BRANCH  12  14
HETATM   14  C6  UNL     1      26.138   1.745  53.953  1.00  0.00     0.051 C 
BRANCH  14  15
HETATM   15  C5  UNL     1      27.361   2.074  53.207  1.00  0.00    -0.024 C 
BRANCH  15  16
HETATM   16  C4  UNL     1      28.593   2.327  53.618  1.00  0.00     0.004 C 
BRANCH  16  17
HETATM   17  C3  UNL     1      29.374   1.324  54.278  1.00  0.00     0.050 C 
BRANCH  17  18
HETATM   18  C2  UNL     1      29.528   0.128  53.732  1.00  0.00    -0.155 C 
HETATM   19  C1  UNL     1      29.566  -1.156  53.421  1.00  0.00     0.096 C 
ENDBRANCH  17  18
ENDBRANCH  16  17
ENDBRANCH  15  16
ENDBRANCH  14  15
ENDBRANCH  12  14
ENDBRANCH  10  12
ENDBRANCH   1  10
BRANCH   9  20
HETATM   20  O2  UNL     1      23.911   5.236  48.338  1.00  0.00    -0.378 OA
HETATM   21  C19 UNL     1      23.425   6.497  48.023  1.00  0.00     0.203 C 
ENDBRANCH   9  20
BRANCH   8  22
HETATM   22  N4  UNL     1      26.849   5.114  48.600  1.00  0.00    -0.328 N 
HETATM   23  C15 UNL     1      27.196   6.489  48.703  1.00  0.00     0.221 C 
HETATM   24  O1  UNL     1      26.634   7.250  49.549  1.00  0.00    -0.273 OA
HETATM   25  H15 UNL     1      27.330   4.523  47.895  1.00  0.00     0.168 HD
BRANCH  23  26
HETATM   26  C16 UNL     1      28.241   7.040  47.794  1.00  0.00     0.098 C 
HETATM   27  C17 UNL     1      29.558   6.342  48.042  1.00  0.00     0.014 C 
ENDBRANCH  23  26
ENDBRANCH   8  22
TORSDOF 10
ENDMDL
MODEL 9
REMARK VINA RESULT:      -6.6      2.196      4.762
REMARK  10 active torsions:
REMARK  status: ('A' for Active; 'I' for Inactive)
REMARK    1  A    between atoms: C2_2  and  C3_3 
REMARK    2  A    between atoms: C3_3  and  C4_4 
REMARK    3  A    between atoms: C4_4  and  C5_5 
REMARK    4  A    between atoms: C5_5  and  C6_6 
REMARK    5  A    between atoms: C6_6  and  C7_7 
REMARK    6  A    between atoms: C7_7  and  N1_9 
REMARK    7  A    between atoms: N1_9  and  C9_10 
REMARK    8  A    between atoms: C14_17  and  N4_18 
REMARK       I    between atoms: N4_18  and  C15_19 
REMARK    9  A    between atoms: C15_19  and  C16_21 
REMARK   10  A    between atoms: C18_23  and  O2_24 
ROOT
HETATM    1  C9  UNL     1      21.501   2.257  52.768  1.00  0.00     0.137 A 
HETATM    2  N2  UNL     1      20.978   3.426  52.362  1.00  0.00    -0.224 NA
HETATM    3  C10 UNL     1      21.735   4.385  51.803  1.00  0.00     0.235 A 
HETATM    4  N3  UNL     1      23.068   4.195  51.632  1.00  0.00    -0.242 NA
HETATM    5  C11 UNL     1      23.673   3.055  52.010  1.00  0.00     0.084 A 
HETATM    6  C12 UNL     1      22.871   2.092  52.579  1.00  0.00     0.039 A 
HETATM    7  C13 UNL     1      23.699   0.936  52.921  1.00  0.00     0.045 A 
HETATM    8  C14 UNL     1      24.950   1.183  52.577  1.00  0.00     0.048 A 
HETATM    9  C18 UNL     1      25.063   2.535  51.971  1.00  0.00     0.223 A 
ENDROOT
BRANCH   1  10
HETATM   10  N1  UNL     1      20.722   1.229  53.361  1.00  0.00    -0.369 N 
HETATM   11  H12 UNL     1      20.576   1.244  54.394  1.00  0.00     0.161 HD
BRANCH  10  12
HETATM   12  C7  UNL     1      20.113   0.151  52.609  1.00  0.00     0.082 C 
HETATM   13  C8  UNL     1      19.841  -1.054  53.475  1.00  0.00     0.032 C 
BRANCH  12  14
HETATM   14  C6  UNL     1      18.900   0.594  51.823  1.00  0.00     0.051 C 
BRANCH  14  15
HETATM   15  C5  UNL     1      19.117   0.611  50.369  1.00  0.00    -0.024 C 
BRANCH  15  16
HETATM   16  C4  UNL     1      19.904   1.358  49.612  1.00  0.00     0.004 C 
BRANCH  16  17
HETATM   17  C3  UNL     1      21.241   0.948  49.304  1.00  0.00     0.050 C 
BRANCH  17  18
HETATM   18  C2  UNL     1      22.137   1.833  48.895  1.00  0.00    -0.155 C 
HETATM   19  C1  UNL     1      22.861   2.744  48.269  1.00  0.00     0.096 C 
ENDBRANCH  17  18
ENDBRANCH  16  17
ENDBRANCH  15  16
ENDBRANCH  14  15
ENDBRANCH  12  14
ENDBRANCH  10  12
ENDBRANCH   1  10
BRANCH   9  20
HETATM   20  O2  UNL     1      25.404   2.416  50.626  1.00  0.00    -0.378 OA
HETATM   21  C19 UNL     1      26.401   3.308  50.254  1.00  0.00     0.203 C 
ENDBRANCH   9  20
BRANCH   8  22
HETATM   22  N4  UNL     1      26.172   0.429  52.671  1.00  0.00    -0.328 N 
HETATM   23  C15 UNL     1      26.976   0.389  53.843  1.00  0.00     0.221 C 
HETATM   24  O1  UNL     1      26.650   1.030  54.889  1.00  0.00    -0.273 OA
HETATM   25  H15 UNL     1      26.472  -0.108  51.835  1.00  0.00     0.168 HD
BRANCH  23  26
HETATM   26  C16 UNL     1      28.225  -0.424  53.834  1.00  0.00     0.098 C 
HETATM   27  C17 UNL     1      29.430   0.484  53.732  1.00  0.00     0.014 C 
ENDBRANCH  23  26
ENDBRANCH   8  22
TORSDOF 10
ENDMDL
