MODEL 1
REMARK VINA RESULT:      -8.3      0.000      0.000
REMARK  5 active torsions:
REMARK  status: ('A' for Active; 'I' for Inactive)
REMARK    1  A    between atoms: N1_2  and  C2_3 
REMARK    2  A    between atoms: N1_2  and  C8_9 
REMARK    3  A    between atoms: C9_11  and  N3_12 
REMARK    4  A    between atoms: C10_14  and  N5_15 
REMARK    5  A    between atoms: N5_15  and  C11_16 
ROOT
HETATM    1  C8  UNL     1      25.521   1.275  53.480  1.00  0.00     0.175 A 
HETATM    2  N2  UNL     1      24.219   0.934  53.129  1.00  0.00    -0.193 NA
HETATM    3  C9  UNL     1      23.137   1.651  52.323  1.00  0.00     0.177 A 
HETATM    4  N4  UNL     1      22.771   2.843  51.562  1.00  0.00    -0.225 NA
HETATM    5  C10 UNL     1      24.140   3.869  51.585  1.00  0.00     0.280 A 
HETATM    6  C17 UNL     1      24.695   2.890  52.314  1.00  0.00    -0.102 A 
HETATM    7  C18 UNL     1      25.082   2.160  52.847  1.00  0.00     0.158 A 
ENDROOT
BRANCH   5   8
HETATM    8  N5  UNL     1      24.458   3.990  50.242  1.00  0.00    -0.358 N 
HETATM    9  H12 UNL     1      23.750   3.483  49.627  1.00  0.00     0.162 HD
BRANCH   8  10
HETATM   10  C11 UNL     1      25.517   4.643  49.583  1.00  0.00     0.031 A 
HETATM   11  C12 UNL     1      26.754   4.032  49.353  1.00  0.00     0.029 A 
HETATM   12  C13 UNL     1      27.733   4.724  48.710  1.00  0.00     0.004 A 
HETATM   13  C14 UNL     1      27.544   6.024  48.272  1.00  0.00     0.019 A 
HETATM   14  C15 UNL     1      26.321   6.635  48.496  1.00  0.00     0.013 A 
HETATM   15 BR1  UNL     1      26.127   8.415  47.872  1.00  0.00    -0.051 Br
HETATM   16  C16 UNL     1      25.306   5.943  49.153  1.00  0.00     0.048 A 
ENDBRANCH   8  10
ENDBRANCH   5   8
BRANCH   3  17
HETATM   17  N3  UNL     1      21.752   0.981  52.109  1.00  0.00    -0.374 N 
HETATM   18  H9  UNL     1      21.882   0.138  52.729  1.00  0.00     0.158 HD
HETATM   19  H10 UNL     1      21.340   1.689  51.444  1.00  0.00     0.158 HD
ENDBRANCH   3  17
BRANCH   1  20
HETATM   20  N1  UNL     1      25.576   0.033  54.142  1.00  0.00    -0.359 N 
HETATM   21  C1  UNL     1      24.911  -0.990  54.905  1.00  0.00     0.152 C 
BRANCH  20  22
HETATM   22  C2  UNL     1      26.942  -0.125  53.812  1.00  0.00     0.023 C 
HETATM   23  C3  UNL     1      27.103  -1.025  52.870  1.00  0.00    -0.001 C 
HETATM   24  C4  UNL     1      28.108  -1.849  52.972  1.00  0.00     0.014 C 
HETATM   25  C5  UNL     1      29.376  -1.244  53.354  1.00  0.00    -0.003 C 
HETATM   26  C6  UNL     1      29.338  -0.107  54.020  1.00  0.00    -0.021 C 
HETATM   27  C7  UNL     1      28.092   0.591  54.405  1.00  0.00     0.084 C 
ENDBRANCH  20  22
ENDBRANCH   1  20
TORSDOF 5
ENDMDL
MODEL 2
REMARK VINA RESULT:      -8.1      1.675      2.293
REMARK  5 active torsions:
REMARK  status: ('A' for Active; 'I' for Inactive)
REMARK    1  A    between atoms: N1_2  and  C2_3 
REMARK    2  A    between atoms: N1_2  and  C8_9 
REMARK    3  A    between atoms: C9_11  and  N3_12 
REMARK    4  A    between atoms: C10_14  and  N5_15 
REMARK    5  A    between atoms: N5_15  and  C11_16 
ROOT
HETATM    1  C8  UNL     1      24.748   1.395  52.567  1.00  0.00     0.175 A 
HETATM    2  N2  UNL     1      23.716   1.253  51.645  1.00  0.00    -0.193 NA
HETATM    3  C9  UNL     1      23.248   2.108  50.468  1.00  0.00     0.177 A 
HETATM    4  N4  UNL     1      23.460   3.320  49.681  1.00  0.00    -0.225 NA
HETATM    5  C10 UNL     1      24.805   4.118  50.375  1.00  0.00     0.280 A 
HETATM    6  C17 UNL     1      24.807   3.085  51.230  1.00  0.00    -0.102 A 
HETATM    7  C18 UNL     1      24.790   2.319  51.846  1.00  0.00     0.158 A 
ENDROOT
BRANCH   5   8
HETATM    8  N5  UNL     1      25.717   4.148  49.333  1.00  0.00    -0.358 N 
HETATM    9  H12 UNL     1      25.769   3.208  48.832  1.00  0.00     0.162 HD
BRANCH   8  10
HETATM   10  C11 UNL     1      26.552   5.172  48.846  1.00  0.00     0.031 A 
HETATM   11  C12 UNL     1      26.077   6.453  48.544  1.00  0.00     0.029 A 
HETATM   12  C13 UNL     1      26.941   7.394  48.077  1.00  0.00     0.004 A 
HETATM   13  C14 UNL     1      28.286   7.124  47.889  1.00  0.00     0.019 A 
HETATM   14  C15 UNL     1      28.763   5.857  48.186  1.00  0.00     0.013 A 
HETATM   15 BR1  UNL     1      30.613   5.553  47.906  1.00  0.00    -0.051 Br
HETATM   16  C16 UNL     1      27.894   4.881  48.665  1.00  0.00     0.048 A 
ENDBRANCH   8  10
ENDBRANCH   5   8
BRANCH   3  17
HETATM   17  N3  UNL     1      22.031   1.659  49.614  1.00  0.00    -0.374 N 
HETATM   18  H9  UNL     1      21.775   2.591  49.195  1.00  0.00     0.158 HD
HETATM   19  H10 UNL     1      22.040   0.633  49.861  1.00  0.00     0.158 HD
ENDBRANCH   3  17
BRANCH   1  20
HETATM   20  N1  UNL     1      24.302   0.179  53.123  1.00  0.00    -0.359 N 
HETATM   21  C1  UNL     1      23.211  -0.682  53.494  1.00  0.00     0.152 C 
BRANCH  20  22
HETATM   22  C2  UNL     1      25.630  -0.244  53.358  1.00  0.00     0.023 C 
HETATM   23  C3  UNL     1      25.949  -0.130  54.627  1.00  0.00    -0.001 C 
HETATM   24  C4  UNL     1      27.140   0.305  54.926  1.00  0.00     0.014 C 
HETATM   25  C5  UNL     1      28.230  -0.274  54.152  1.00  0.00    -0.003 C 
HETATM   26  C6  UNL     1      27.945  -0.763  52.961  1.00  0.00    -0.021 C 
HETATM   27  C7  UNL     1      26.594  -0.758  52.361  1.00  0.00     0.084 C 
ENDBRANCH  20  22
ENDBRANCH   1  20
TORSDOF 5
ENDMDL
MODEL 3
REMARK VINA RESULT:      -8.0      2.146      4.268
REMARK  5 active torsions:
REMARK  status: ('A' for Active; 'I' for Inactive)
REMARK    1  A    between atoms: N1_2  and  C2_3 
REMARK    2  A    between atoms: N1_2  and  C8_9 
REMARK    3  A    between atoms: C9_11  and  N3_12 
REMARK    4  A    between atoms: C10_14  and  N5_15 
REMARK    5  A    between atoms: N5_15  and  C11_16 
ROOT
HETATM    1  C8  UNL     1      24.817   0.233  53.065  1.00  0.00     0.175 A 
HETATM    2  N2  UNL     1      25.948   0.633  53.768  1.00  0.00    -0.193 NA
HETATM    3  C9  UNL     1      27.134   1.528  53.409  1.00  0.00     0.177 A 
HETATM    4  N4  UNL     1      27.767   2.364  52.392  1.00  0.00    -0.225 NA
HETATM    5  C10 UNL     1      26.740   2.320  51.023  1.00  0.00     0.280 A 
HETATM    6  C17 UNL     1      25.982   1.517  51.784  1.00  0.00    -0.102 A 
HETATM    7  C18 UNL     1      25.442   0.930  52.360  1.00  0.00     0.158 A 
ENDROOT
BRANCH   5   8
HETATM    8  N5  UNL     1      26.385   3.649  50.862  1.00  0.00    -0.358 N 
HETATM    9  H12 UNL     1      26.918   4.280  51.535  1.00  0.00     0.162 HD
BRANCH   8  10
HETATM   10  C11 UNL     1      25.473   4.277  49.992  1.00  0.00     0.031 A 
HETATM   11  C12 UNL     1      24.229   3.721  49.672  1.00  0.00     0.029 A 
HETATM   12  C13 UNL     1      23.398   4.384  48.823  1.00  0.00     0.004 A 
HETATM   13  C14 UNL     1      23.745   5.602  48.261  1.00  0.00     0.019 A 
HETATM   14  C15 UNL     1      24.974   6.158  48.575  1.00  0.00     0.013 A 
HETATM   15 BR1  UNL     1      25.387   7.825  47.772  1.00  0.00    -0.051 Br
HETATM   16  C16 UNL     1      25.839   5.495  49.441  1.00  0.00     0.048 A 
ENDBRANCH   8  10
ENDBRANCH   5   8
BRANCH   3  17
HETATM   17  N3  UNL     1      28.262   1.781  54.446  1.00  0.00    -0.374 N 
HETATM   18  H9  UNL     1      29.093   1.545  53.841  1.00  0.00     0.158 HD
HETATM   19  H10 UNL     1      27.659   2.067  55.262  1.00  0.00     0.158 HD
ENDBRANCH   3  17
BRANCH   1  20
HETATM   20  N1  UNL     1      24.461  -0.490  54.221  1.00  0.00    -0.359 N 
HETATM   21  C1  UNL     1      24.865  -1.214  55.397  1.00  0.00     0.152 C 
BRANCH  20  22
HETATM   22  C2  UNL     1      23.084  -0.338  53.939  1.00  0.00     0.023 C 
HETATM   23  C3  UNL     1      22.342  -0.877  54.878  1.00  0.00    -0.001 C 
HETATM   24  C4  UNL     1      21.276  -1.536  54.519  1.00  0.00     0.014 C 
HETATM   25  C5  UNL     1      20.460  -0.894  53.498  1.00  0.00    -0.003 C 
HETATM   26  C6  UNL     1      21.048  -0.030  52.695  1.00  0.00    -0.021 C 
HETATM   27  C7  UNL     1      22.482   0.328  52.763  1.00  0.00     0.084 C 
ENDBRANCH  20  22
ENDBRANCH   1  20
TORSDOF 5
ENDMDL
MODEL 4
REMARK VINA RESULT:      -8.0      2.556      4.525
REMARK  5 active torsions:
REMARK  status: ('A' for Active; 'I' for Inactive)
REMARK    1  A    between atoms: N1_2  and  C2_3 
REMARK    2  A    between atoms: N1_2  and  C8_9 
REMARK    3  A    between atoms: C9_11  and  N3_12 
REMARK    4  A    between atoms: C10_14  and  N5_15 
REMARK    5  A    between atoms: N5_15  and  C11_16 
ROOT
HETATM    1  C8  UNL     1      24.768   0.245  53.091  1.00  0.00     0.175 A 
HETATM    2  N2  UNL     1      25.917   0.624  53.777  1.00  0.00    -0.193 NA
HETATM    3  C9  UNL     1      27.111   1.500  53.400  1.00  0.00     0.177 A 
HETATM    4  N4  UNL     1      27.742   2.328  52.375  1.00  0.00    -0.225 NA
HETATM    5  C10 UNL     1      26.693   2.304  51.023  1.00  0.00     0.280 A 
HETATM    6  C17 UNL     1      25.934   1.512  51.794  1.00  0.00    -0.102 A 
HETATM    7  C18 UNL     1      25.394   0.933  52.377  1.00  0.00     0.158 A 
ENDROOT
BRANCH   5   8
HETATM    8  N5  UNL     1      26.357   3.639  50.870  1.00  0.00    -0.358 N 
HETATM    9  H12 UNL     1      26.901   4.258  51.545  1.00  0.00     0.162 HD
BRANCH   8  10
HETATM   10  C11 UNL     1      25.453   4.286  50.006  1.00  0.00     0.031 A 
HETATM   11  C12 UNL     1      25.608   5.620  49.612  1.00  0.00     0.029 A 
HETATM   12  C13 UNL     1      24.695   6.181  48.774  1.00  0.00     0.004 A 
HETATM   13  C14 UNL     1      23.608   5.470  48.293  1.00  0.00     0.019 A 
HETATM   14  C15 UNL     1      23.449   4.149  48.679  1.00  0.00     0.013 A 
HETATM   15 BR1  UNL     1      21.941   3.232  47.986  1.00  0.00    -0.051 Br
HETATM   16  C16 UNL     1      24.373   3.557  49.536  1.00  0.00     0.048 A 
ENDBRANCH   8  10
ENDBRANCH   5   8
BRANCH   3  17
HETATM   17  N3  UNL     1      28.260   1.732  54.419  1.00  0.00    -0.374 N 
HETATM   18  H9  UNL     1      27.800   2.467  55.018  1.00  0.00     0.158 HD
HETATM   19  H10 UNL     1      28.956   1.042  54.026  1.00  0.00     0.158 HD
ENDBRANCH   3  17
BRANCH   1  20
HETATM   20  N1  UNL     1      24.419  -0.476  54.250  1.00  0.00    -0.359 N 
HETATM   21  C1  UNL     1      24.829  -1.202  55.423  1.00  0.00     0.152 C 
BRANCH  20  22
HETATM   22  C2  UNL     1      23.041  -0.313  53.983  1.00  0.00     0.023 C 
HETATM   23  C3  UNL     1      22.305  -0.939  54.872  1.00  0.00    -0.001 C 
HETATM   24  C4  UNL     1      21.245  -1.574  54.457  1.00  0.00     0.014 C 
HETATM   25  C5  UNL     1      20.421  -0.854  53.496  1.00  0.00    -0.003 C 
HETATM   26  C6  UNL     1      21.001   0.082  52.771  1.00  0.00    -0.021 C 
HETATM   27  C7  UNL     1      22.431   0.446  52.870  1.00  0.00     0.084 C 
ENDBRANCH  20  22
ENDBRANCH   1  20
TORSDOF 5
ENDMDL
MODEL 5
REMARK VINA RESULT:      -7.9      3.900      7.969
REMARK  5 active torsions:
REMARK  status: ('A' for Active; 'I' for Inactive)
REMARK    1  A    between atoms: N1_2  and  C2_3 
REMARK    2  A    between atoms: N1_2  and  C8_9 
REMARK    3  A    between atoms: C9_11  and  N3_12 
REMARK    4  A    between atoms: C10_14  and  N5_15 
REMARK    5  A    between atoms: N5_15  and  C11_16 
ROOT
HETATM    1  C8  UNL     1      28.934   5.793  48.052  1.00  0.00     0.175 A 
HETATM    2  N2  UNL     1      27.787   6.567  48.197  1.00  0.00    -0.193 NA
HETATM    3  C9  UNL     1      26.390   6.265  48.738  1.00  0.00     0.177 A 
HETATM    4  N4  UNL     1      25.497   5.267  49.319  1.00  0.00    -0.225 NA
HETATM    5  C10 UNL     1      26.406   3.823  49.449  1.00  0.00     0.280 A 
HETATM    6  C17 UNL     1      27.394   4.555  48.914  1.00  0.00    -0.102 A 
HETATM    7  C18 UNL     1      28.104   5.110  48.521  1.00  0.00     0.158 A 
ENDROOT
BRANCH   5   8
HETATM    8  N5  UNL     1      26.397   3.574  50.811  1.00  0.00    -0.358 N 
HETATM    9  H12 UNL     1      26.948   4.312  51.347  1.00  0.00     0.162 HD
BRANCH   8  10
HETATM   10  C11 UNL     1      25.804   2.548  51.573  1.00  0.00     0.031 A 
HETATM   11  C12 UNL     1      24.558   2.694  52.194  1.00  0.00     0.029 A 
HETATM   12  C13 UNL     1      24.045   1.661  52.915  1.00  0.00     0.004 A 
HETATM   13  C14 UNL     1      24.721   0.460  53.057  1.00  0.00     0.019 A 
HETATM   14  C15 UNL     1      25.955   0.310  52.445  1.00  0.00     0.013 A 
HETATM   15 BR1  UNL     1      26.827  -1.357  52.678  1.00  0.00    -0.051 Br
HETATM   16  C16 UNL     1      26.496   1.356  51.702  1.00  0.00     0.048 A 
ENDBRANCH   8  10
ENDBRANCH   5   8
BRANCH   3  17
HETATM   17  N3  UNL     1      25.307   7.378  48.762  1.00  0.00    -0.374 N 
HETATM   18  H9  UNL     1      25.238   7.514  49.806  1.00  0.00     0.158 HD
HETATM   19  H10 UNL     1      25.155   7.468  47.722  1.00  0.00     0.158 HD
ENDBRANCH   3  17
BRANCH   1  20
HETATM   20  N1  UNL     1      29.540   6.948  47.517  1.00  0.00    -0.359 N 
HETATM   21  C1  UNL     1      29.413   8.193  46.808  1.00  0.00     0.152 C 
BRANCH  20  22
HETATM   22  C2  UNL     1      30.815   6.530  47.963  1.00  0.00     0.023 C 
HETATM   23  C3  UNL     1      31.287   7.340  48.883  1.00  0.00    -0.001 C 
HETATM   24  C4  UNL     1      32.553   7.647  48.844  1.00  0.00     0.014 C 
HETATM   25  C5  UNL     1      33.458   6.532  48.599  1.00  0.00    -0.003 C 
HETATM   26  C6  UNL     1      32.977   5.476  47.973  1.00  0.00    -0.021 C 
HETATM   27  C7  UNL     1      31.581   5.352  47.502  1.00  0.00     0.084 C 
ENDBRANCH  20  22
ENDBRANCH   1  20
TORSDOF 5
ENDMDL
MODEL 6
REMARK VINA RESULT:      -7.8      3.325      5.813
REMARK  5 active torsions:
REMARK  status: ('A' for Active; 'I' for Inactive)
REMARK    1  A    between atoms: N1_2  and  C2_3 
REMARK    2  A    between atoms: N1_2  and  C8_9 
REMARK    3  A    between atoms: C9_11  and  N3_12 
REMARK    4  A    between atoms: C10_14  and  N5_15 
REMARK    5  A    between atoms: N5_15  and  C11_16 
ROOT
HETATM    1  C8  UNL     1      22.216   2.107  52.042  1.00  0.00     0.175 A 
HETATM    2  N2  UNL     1      22.261   2.330  50.669  1.00  0.00    -0.193 NA
HETATM    3  C9  UNL     1      23.304   2.972  49.754  1.00  0.00     0.177 A 
HETATM    4  N4  UNL     1      24.609   3.621  49.659  1.00  0.00    -0.225 NA
HETATM    5  C10 UNL     1      25.231   3.690  51.252  1.00  0.00     0.280 A 
HETATM    6  C17 UNL     1      24.083   3.082  51.584  1.00  0.00    -0.102 A 
HETATM    7  C18 UNL     1      23.234   2.637  51.804  1.00  0.00     0.158 A 
ENDROOT
BRANCH   5   8
HETATM    8  N5  UNL     1      26.398   2.949  51.159  1.00  0.00    -0.358 N 
HETATM    9  H12 UNL     1      26.921   3.156  50.254  1.00  0.00     0.162 HD
BRANCH   8  10
HETATM   10  C11 UNL     1      26.982   2.006  52.026  1.00  0.00     0.031 A 
HETATM   11  C12 UNL     1      27.841   2.371  53.070  1.00  0.00     0.029 A 
HETATM   12  C13 UNL     1      28.369   1.406  53.869  1.00  0.00     0.004 A 
HETATM   13  C14 UNL     1      28.084   0.064  53.684  1.00  0.00     0.019 A 
HETATM   14  C15 UNL     1      27.235  -0.304  52.653  1.00  0.00     0.013 A 
HETATM   15 BR1  UNL     1      26.885  -2.157  52.454  1.00  0.00    -0.051 Br
HETATM   16  C16 UNL     1      26.683   0.669  51.824  1.00  0.00     0.048 A 
ENDBRANCH   8  10
ENDBRANCH   5   8
BRANCH   3  17
HETATM   17  N3  UNL     1      23.045   3.070  48.226  1.00  0.00    -0.374 N 
HETATM   18  H9  UNL     1      23.730   3.836  47.994  1.00  0.00     0.158 HD
HETATM   19  H10 UNL     1      22.304   2.322  48.148  1.00  0.00     0.158 HD
ENDBRANCH   3  17
BRANCH   1  20
HETATM   20  N1  UNL     1      20.952   1.525  51.817  1.00  0.00    -0.359 N 
HETATM   21  C1  UNL     1      19.674   1.566  51.157  1.00  0.00     0.152 C 
BRANCH  20  22
HETATM   22  C2  UNL     1      21.245   0.458  52.696  1.00  0.00     0.023 C 
HETATM   23  C3  UNL     1      20.448   0.467  53.739  1.00  0.00    -0.001 C 
HETATM   24  C4  UNL     1      20.958   0.193  54.907  1.00  0.00     0.014 C 
HETATM   25  C5  UNL     1      21.867  -0.945  54.941  1.00  0.00    -0.003 C 
HETATM   26  C6  UNL     1      22.475  -1.278  53.819  1.00  0.00    -0.021 C 
HETATM   27  C7  UNL     1      22.294  -0.571  52.532  1.00  0.00     0.084 C 
ENDBRANCH  20  22
ENDBRANCH   1  20
TORSDOF 5
ENDMDL
MODEL 7
REMARK VINA RESULT:      -7.5      5.555      8.872
REMARK  5 active torsions:
REMARK  status: ('A' for Active; 'I' for Inactive)
REMARK    1  A    between atoms: N1_2  and  C2_3 
REMARK    2  A    between atoms: N1_2  and  C8_9 
REMARK    3  A    between atoms: C9_11  and  N3_12 
REMARK    4  A    between atoms: C10_14  and  N5_15 
REMARK    5  A    between atoms: N5_15  and  C11_16 
ROOT
HETATM    1  C8  UNL     1      31.996   6.260  47.687  1.00  0.00     0.175 A 
HETATM    2  N2  UNL     1      31.765   7.405  48.443  1.00  0.00    -0.193 NA
HETATM    3  C9  UNL     1      30.489   8.116  48.890  1.00  0.00     0.177 A 
HETATM    4  N4  UNL     1      29.029   8.129  48.869  1.00  0.00    -0.225 NA
HETATM    5  C10 UNL     1      28.546   6.766  47.954  1.00  0.00     0.280 A 
HETATM    6  C17 UNL     1      29.864   6.547  47.835  1.00  0.00    -0.102 A 
HETATM    7  C18 UNL     1      30.834   6.406  47.761  1.00  0.00     0.158 A 
ENDROOT
BRANCH   5   8
HETATM    8  N5  UNL     1      27.808   6.029  48.865  1.00  0.00    -0.358 N 
HETATM    9  H12 UNL     1      28.423   5.641  49.644  1.00  0.00     0.162 HD
BRANCH   8  10
HETATM   10  C11 UNL     1      26.435   5.721  48.930  1.00  0.00     0.031 A 
HETATM   11  C12 UNL     1      25.452   6.529  48.347  1.00  0.00     0.029 A 
HETATM   12  C13 UNL     1      24.144   6.170  48.449  1.00  0.00     0.004 A 
HETATM   13  C14 UNL     1      23.750   5.021  49.115  1.00  0.00     0.019 A 
HETATM   14  C15 UNL     1      24.718   4.217  49.694  1.00  0.00     0.013 A 
HETATM   15 BR1  UNL     1      24.112   2.661  50.591  1.00  0.00    -0.051 Br
HETATM   16  C16 UNL     1      26.062   4.568  49.601  1.00  0.00     0.048 A 
ENDBRANCH   8  10
ENDBRANCH   5   8
BRANCH   3  17
HETATM   17  N3  UNL     1      30.576   9.407  49.749  1.00  0.00    -0.374 N 
HETATM   18  H9  UNL     1      30.831   8.969  50.674  1.00  0.00     0.158 HD
HETATM   19  H10 UNL     1      30.339  10.109  48.997  1.00  0.00     0.158 HD
ENDBRANCH   3  17
BRANCH   1  20
HETATM   20  N1  UNL     1      33.368   6.513  47.882  1.00  0.00    -0.359 N 
HETATM   21  C1  UNL     1      34.403   7.306  48.491  1.00  0.00     0.152 C 
BRANCH  20  22
HETATM   22  C2  UNL     1      33.725   5.426  47.051  1.00  0.00     0.023 C 
HETATM   23  C3  UNL     1      33.869   4.321  47.746  1.00  0.00    -0.001 C 
HETATM   24  C4  UNL     1      34.856   3.527  47.442  1.00  0.00     0.014 C 
HETATM   25  C5  UNL     1      35.052   3.290  46.018  1.00  0.00    -0.003 C 
HETATM   26  C6  UNL     1      34.609   4.204  45.178  1.00  0.00    -0.021 C 
HETATM   27  C7  UNL     1      33.928   5.451  45.587  1.00  0.00     0.084 C 
ENDBRANCH  20  22
ENDBRANCH   1  20
TORSDOF 5
ENDMDL
MODEL 8
REMARK VINA RESULT:      -7.3      2.351      4.640
REMARK  5 active torsions:
REMARK  status: ('A' for Active; 'I' for Inactive)
REMARK    1  A    between atoms: N1_2  and  C2_3 
REMARK    2  A    between atoms: N1_2  and  C8_9 
REMARK    3  A    between atoms: C9_11  and  N3_12 
REMARK    4  A    between atoms: C10_14  and  N5_15 
REMARK    5  A    between atoms: N5_15  and  C11_16 
ROOT
HETATM    1  C8  UNL     1      23.984   1.096  51.997  1.00  0.00     0.175 A 
HETATM    2  N2  UNL     1      25.188   1.123  52.694  1.00  0.00    -0.193 NA
HETATM    3  C9  UNL     1      26.525   1.814  52.433  1.00  0.00     0.177 A 
HETATM    4  N4  UNL     1      27.297   2.682  51.547  1.00  0.00    -0.225 NA
HETATM    5  C10 UNL     1      26.257   3.101  50.255  1.00  0.00     0.280 A 
HETATM    6  C17 UNL     1      25.364   2.337  50.902  1.00  0.00    -0.102 A 
HETATM    7  C18 UNL     1      24.727   1.773  51.393  1.00  0.00     0.158 A 
ENDROOT
BRANCH   5   8
HETATM    8  N5  UNL     1      26.181   4.480  50.355  1.00  0.00    -0.358 N 
HETATM    9  H12 UNL     1      26.452   4.817  51.329  1.00  0.00     0.162 HD
BRANCH   8  10
HETATM   10  C11 UNL     1      25.819   5.471  49.421  1.00  0.00     0.031 A 
HETATM   11  C12 UNL     1      26.754   6.331  48.833  1.00  0.00     0.029 A 
HETATM   12  C13 UNL     1      26.333   7.264  47.938  1.00  0.00     0.004 A 
HETATM   13  C14 UNL     1      24.999   7.393  47.586  1.00  0.00     0.019 A 
HETATM   14  C15 UNL     1      24.069   6.545  48.165  1.00  0.00     0.013 A 
HETATM   15 BR1  UNL     1      22.261   6.774  47.641  1.00  0.00    -0.051 Br
HETATM   16  C16 UNL     1      24.481   5.582  49.083  1.00  0.00     0.048 A 
ENDBRANCH   8  10
ENDBRANCH   5   8
BRANCH   3  17
HETATM   17  N3  UNL     1      27.701   1.638  53.432  1.00  0.00    -0.374 N 
HETATM   18  H9  UNL     1      27.193   1.108  54.188  1.00  0.00     0.158 HD
HETATM   19  H10 UNL     1      28.450   2.133  52.877  1.00  0.00     0.158 HD
ENDBRANCH   3  17
BRANCH   1  20
HETATM   20  N1  UNL     1      23.509   0.254  53.022  1.00  0.00    -0.359 N 
HETATM   21  C1  UNL     1      23.787  -0.594  54.151  1.00  0.00     0.152 C 
BRANCH  20  22
HETATM   22  C2  UNL     1      22.170   0.444  52.610  1.00  0.00     0.023 C 
HETATM   23  C3  UNL     1      21.367   0.571  53.641  1.00  0.00    -0.001 C 
HETATM   24  C4  UNL     1      20.203  -0.013  53.591  1.00  0.00     0.014 C 
HETATM   25  C5  UNL     1      19.483   0.137  52.334  1.00  0.00    -0.003 C 
HETATM   26  C6  UNL     1      20.190   0.378  51.247  1.00  0.00    -0.021 C 
HETATM   27  C7  UNL     1      21.663   0.504  51.222  1.00  0.00     0.084 C 
ENDBRANCH  20  22
ENDBRANCH   1  20
TORSDOF 5
ENDMDL
MODEL 9
REMARK VINA RESULT:      -7.1      3.533      4.618
REMARK  5 active torsions:
REMARK  status: ('A' for Active; 'I' for Inactive)
REMARK    1  A    between atoms: N1_2  and  C2_3 
REMARK    2  A    between atoms: N1_2  and  C8_9 
REMARK    3  A    between atoms: C9_11  and  N3_12 
REMARK    4  A    between atoms: C10_14  and  N5_15 
REMARK    5  A    between atoms: N5_15  and  C11_16 
ROOT
HETATM    1  C8  UNL     1      21.151   1.879  51.636  1.00  0.00     0.175 A 
HETATM    2  N2  UNL     1      20.172   2.710  51.100  1.00  0.00    -0.193 NA
HETATM    3  C9  UNL     1      20.194   4.153  50.596  1.00  0.00     0.177 A 
HETATM    4  N4  UNL     1      20.994   5.353  50.370  1.00  0.00    -0.225 NA
HETATM    5  C10 UNL     1      22.580   4.982  50.892  1.00  0.00     0.280 A 
HETATM    6  C17 UNL     1      22.059   3.782  51.187  1.00  0.00    -0.102 A 
HETATM    7  C18 UNL     1      21.655   2.911  51.396  1.00  0.00     0.158 A 
ENDROOT
BRANCH   5   8
HETATM    8  N5  UNL     1      23.330   5.140  49.738  1.00  0.00    -0.358 N 
HETATM    9  H12 UNL     1      22.735   5.505  48.933  1.00  0.00     0.162 HD
BRANCH   8  10
HETATM   10  C11 UNL     1      24.692   4.907  49.464  1.00  0.00     0.031 A 
HETATM   11  C12 UNL     1      25.307   3.672  49.697  1.00  0.00     0.029 A 
HETATM   12  C13 UNL     1      26.628   3.518  49.408  1.00  0.00     0.004 A 
HETATM   13  C14 UNL     1      27.389   4.552  48.888  1.00  0.00     0.019 A 
HETATM   14  C15 UNL     1      26.785   5.777  48.656  1.00  0.00     0.013 A 
HETATM   15 BR1  UNL     1      27.883   7.149  47.943  1.00  0.00    -0.051 Br
HETATM   16  C16 UNL     1      25.435   5.954  48.944  1.00  0.00     0.048 A 
ENDBRANCH   8  10
ENDBRANCH   5   8
BRANCH   3  17
HETATM   17  N3  UNL     1      18.897   4.805  50.044  1.00  0.00    -0.374 N 
HETATM   18  H9  UNL     1      18.557   5.263  50.931  1.00  0.00     0.158 HD
HETATM   19  H10 UNL     1      18.973   4.478  49.044  1.00  0.00     0.158 HD
ENDBRANCH   3  17
BRANCH   1  20
HETATM   20  N1  UNL     1      20.143   0.899  51.733  1.00  0.00    -0.359 N 
HETATM   21  C1  UNL     1      18.832   0.436  51.363  1.00  0.00     0.152 C 
BRANCH  20  22
HETATM   22  C2  UNL     1      20.934   0.118  52.605  1.00  0.00     0.023 C 
HETATM   23  C3  UNL     1      20.298  -0.141  53.724  1.00  0.00    -0.001 C 
HETATM   24  C4  UNL     1      20.969  -0.094  54.840  1.00  0.00     0.014 C 
HETATM   25  C5  UNL     1      22.276  -0.736  54.811  1.00  0.00    -0.003 C 
HETATM   26  C6  UNL     1      22.875  -0.856  53.642  1.00  0.00    -0.021 C 
HETATM   27  C7  UNL     1      22.305  -0.380  52.362  1.00  0.00     0.084 C 
ENDBRANCH  20  22
ENDBRANCH   1  20
TORSDOF 5
ENDMDL
