MODEL 1
REMARK VINA RESULT:      -8.8      0.000      0.000
REMARK  6 active torsions:
REMARK  status: ('A' for Active; 'I' for Inactive)
REMARK    1  A    between atoms: C4_4  and  C5_5 
REMARK    2  A    between atoms: C6_6  and  C7_7 
REMARK    3  A    between atoms: C9_9  and  C10_10 
REMARK    4  A    between atoms: C13_13  and  O1_14 
REMARK    5  A    between atoms: N2_19  and  C17_20 
REMARK    6  A    between atoms: C18_22  and  O2_23 
ROOT
HETATM    1  C1  UNL     1      28.228   5.490  48.159  1.00  0.00     0.017 C 
HETATM    2  C2  UNL     1      27.336   5.023  48.821  1.00  0.00    -0.089 C 
HETATM    3  C3  UNL     1      26.290   4.453  49.622  1.00  0.00     0.063 C 
HETATM    4  C4  UNL     1      26.448   3.278  50.214  1.00  0.00     0.009 C 
ENDROOT
BRANCH   4   5
HETATM    5  C5  UNL     1      25.489   2.560  51.061  1.00  0.00    -0.001 C 
HETATM    6  C6  UNL     1      25.762   2.027  52.243  1.00  0.00     0.001 C 
BRANCH   6   7
HETATM    7  C7  UNL     1      24.691   1.331  52.980  1.00  0.00     0.141 C 
HETATM    8  C8  UNL     1      23.386   1.248  52.187  1.00  0.00     0.093 C 
HETATM    9  C9  UNL     1      22.757   0.068  52.877  1.00  0.00     0.067 C 
HETATM   10  N1  UNL     1      23.704  -0.627  53.460  1.00  0.00    -0.173 NA
HETATM   11  N2  UNL     1      24.934  -0.036  53.237  1.00  0.00    -0.237 N 
BRANCH   9  12
HETATM   12  C10 UNL     1      21.329  -0.230  52.882  1.00  0.00    -0.010 A 
HETATM   13  C11 UNL     1      20.469   0.294  51.932  1.00  0.00     0.016 A 
HETATM   14  C12 UNL     1      19.121  -0.021  51.982  1.00  0.00     0.037 A 
HETATM   15  C13 UNL     1      18.577  -0.837  52.935  1.00  0.00     0.068 A 
HETATM   16  C15 UNL     1      19.468  -1.338  53.863  1.00  0.00     0.037 A 
HETATM   17  C16 UNL     1      20.796  -1.046  53.838  1.00  0.00     0.016 A 
BRANCH  15  18
HETATM   18  O1  UNL     1      17.242  -1.166  53.007  1.00  0.00    -0.356 OA
HETATM   19  C14 UNL     1      16.244  -0.278  52.550  1.00  0.00     0.210 C 
ENDBRANCH  15  18
ENDBRANCH   9  12
BRANCH  11  20
HETATM   20  C17 UNL     1      26.242  -0.724  53.265  1.00  0.00     0.192 A 
HETATM   21  N3  UNL     1      26.587  -1.781  52.975  1.00  0.00    -0.198 NA
HETATM   22  C18 UNL     1      27.747  -2.356  53.013  1.00  0.00     0.171 A 
HETATM   23  C19 UNL     1      28.763  -1.466  53.518  1.00  0.00     0.111 A 
HETATM   24  S1  UNL     1      27.734   0.127  53.853  1.00  0.00    -0.058 SA
BRANCH  22  25
HETATM   25  O2  UNL     1      28.601  -3.418  52.823  1.00  0.00    -0.344 OA
HETATM   26  H16 UNL     1      28.334  -4.243  52.322  1.00  0.00     0.219 HD
ENDBRANCH  22  25
ENDBRANCH  11  20
ENDBRANCH   6   7
ENDBRANCH   4   5
TORSDOF 6
ENDMDL
MODEL 2
REMARK VINA RESULT:      -8.3      1.665      1.806
REMARK  6 active torsions:
REMARK  status: ('A' for Active; 'I' for Inactive)
REMARK    1  A    between atoms: C4_4  and  C5_5 
REMARK    2  A    between atoms: C6_6  and  C7_7 
REMARK    3  A    between atoms: C9_9  and  C10_10 
REMARK    4  A    between atoms: C13_13  and  O1_14 
REMARK    5  A    between atoms: N2_19  and  C17_20 
REMARK    6  A    between atoms: C18_22  and  O2_23 
ROOT
HETATM    1  C1  UNL     1      28.116   5.476  48.208  1.00  0.00     0.017 C 
HETATM    2  C2  UNL     1      27.473   4.741  48.915  1.00  0.00    -0.089 C 
HETATM    3  C3  UNL     1      26.686   3.874  49.746  1.00  0.00     0.063 C 
HETATM    4  C4  UNL     1      25.404   4.124  49.970  1.00  0.00     0.009 C 
ENDROOT
BRANCH   4   5
HETATM    5  C5  UNL     1      24.464   3.347  50.786  1.00  0.00    -0.001 C 
HETATM    6  C6  UNL     1      24.488   3.264  52.108  1.00  0.00     0.001 C 
BRANCH   6   7
HETATM    7  C7  UNL     1      23.474   2.439  52.792  1.00  0.00     0.141 C 
HETATM    8  C8  UNL     1      22.320   2.039  51.873  1.00  0.00     0.093 C 
HETATM    9  C9  UNL     1      21.831   0.822  52.612  1.00  0.00     0.067 C 
HETATM   10  N1  UNL     1      22.805   0.375  53.367  1.00  0.00    -0.173 NA
HETATM   11  N2  UNL     1      23.926   1.170  53.220  1.00  0.00    -0.237 N 
BRANCH   9  12
HETATM   12  C10 UNL     1      20.493   0.256  52.490  1.00  0.00    -0.010 A 
HETATM   13  C11 UNL     1      19.685   0.515  51.396  1.00  0.00     0.016 A 
HETATM   14  C12 UNL     1      18.422  -0.048  51.330  1.00  0.00     0.037 A 
HETATM   15  C13 UNL     1      17.913  -0.863  52.303  1.00  0.00     0.068 A 
HETATM   16  C15 UNL     1      18.748  -1.096  53.375  1.00  0.00     0.037 A 
HETATM   17  C16 UNL     1      19.993  -0.557  53.467  1.00  0.00     0.016 A 
BRANCH  15  18
HETATM   18  O1  UNL     1      16.660  -1.436  52.261  1.00  0.00    -0.356 OA
HETATM   19  C14 UNL     1      15.779  -1.191  51.186  1.00  0.00     0.210 C 
ENDBRANCH  15  18
ENDBRANCH   9  12
BRANCH  11  20
HETATM   20  C17 UNL     1      25.322   0.753  53.467  1.00  0.00     0.192 A 
HETATM   21  N3  UNL     1      26.134   1.099  54.203  1.00  0.00    -0.198 NA
HETATM   22  C18 UNL     1      27.354   0.710  54.395  1.00  0.00     0.171 A 
HETATM   23  C19 UNL     1      27.717  -0.356  53.496  1.00  0.00     0.111 A 
HETATM   24  S1  UNL     1      26.087  -0.577  52.495  1.00  0.00    -0.058 SA
BRANCH  22  25
HETATM   25  O2  UNL     1      28.576   0.757  55.026  1.00  0.00    -0.344 OA
HETATM   26  H16 UNL     1      29.428   0.956  54.539  1.00  0.00     0.219 HD
ENDBRANCH  22  25
ENDBRANCH  11  20
ENDBRANCH   6   7
ENDBRANCH   4   5
TORSDOF 6
ENDMDL
MODEL 3
REMARK VINA RESULT:      -8.1      2.162      2.683
REMARK  6 active torsions:
REMARK  status: ('A' for Active; 'I' for Inactive)
REMARK    1  A    between atoms: C4_4  and  C5_5 
REMARK    2  A    between atoms: C6_6  and  C7_7 
REMARK    3  A    between atoms: C9_9  and  C10_10 
REMARK    4  A    between atoms: C13_13  and  O1_14 
REMARK    5  A    between atoms: N2_19  and  C17_20 
REMARK    6  A    between atoms: C18_22  and  O2_23 
ROOT
HETATM    1  C1  UNL     1      29.420   6.980  46.927  1.00  0.00     0.017 C 
HETATM    2  C2  UNL     1      28.520   6.724  47.687  1.00  0.00    -0.089 C 
HETATM    3  C3  UNL     1      27.459   6.397  48.598  1.00  0.00     0.063 C 
HETATM    4  C4  UNL     1      27.174   5.135  48.888  1.00  0.00     0.009 C 
ENDROOT
BRANCH   4   5
HETATM    5  C5  UNL     1      26.133   4.631  49.790  1.00  0.00    -0.001 C 
HETATM    6  C6  UNL     1      26.160   3.460  50.409  1.00  0.00     0.001 C 
BRANCH   6   7
HETATM    7  C7  UNL     1      25.035   3.089  51.289  1.00  0.00     0.141 C 
HETATM    8  C8  UNL     1      23.926   2.345  50.545  1.00  0.00     0.093 C 
HETATM    9  C9  UNL     1      23.287   1.635  51.709  1.00  0.00     0.067 C 
HETATM   10  N1  UNL     1      24.163   1.561  52.682  1.00  0.00    -0.173 NA
HETATM   11  N2  UNL     1      25.352   2.155  52.300  1.00  0.00    -0.237 N 
BRANCH   9  12
HETATM   12  C10 UNL     1      21.921   1.124  51.726  1.00  0.00    -0.010 A 
HETATM   13  C11 UNL     1      21.169   1.011  50.569  1.00  0.00     0.016 A 
HETATM   14  C12 UNL     1      19.875   0.520  50.640  1.00  0.00     0.037 A 
HETATM   15  C13 UNL     1      19.285   0.132  51.811  1.00  0.00     0.068 A 
HETATM   16  C15 UNL     1      20.068   0.261  52.939  1.00  0.00     0.037 A 
HETATM   17  C16 UNL     1      21.340   0.739  52.899  1.00  0.00     0.016 A 
BRANCH  15  18
HETATM   18  O1  UNL     1      18.002  -0.360  51.909  1.00  0.00    -0.356 OA
HETATM   19  C14 UNL     1      17.653  -1.306  52.896  1.00  0.00     0.210 C 
ENDBRANCH  15  18
ENDBRANCH   9  12
BRANCH  11  20
HETATM   20  C17 UNL     1      26.687   1.854  52.856  1.00  0.00     0.192 A 
HETATM   21  N3  UNL     1      27.468   2.478  53.423  1.00  0.00    -0.198 NA
HETATM   22  C18 UNL     1      28.636   2.182  53.899  1.00  0.00     0.171 A 
HETATM   23  C19 UNL     1      28.977   0.804  53.648  1.00  0.00     0.111 A 
HETATM   24  S1  UNL     1      27.411   0.195  52.706  1.00  0.00    -0.058 SA
BRANCH  22  25
HETATM   25  O2  UNL     1      29.808   2.479  54.555  1.00  0.00    -0.344 OA
HETATM   26  H16 UNL     1      30.521   3.057  54.155  1.00  0.00     0.219 HD
ENDBRANCH  22  25
ENDBRANCH  11  20
ENDBRANCH   6   7
ENDBRANCH   4   5
TORSDOF 6
ENDMDL
MODEL 4
REMARK VINA RESULT:      -8.1      3.602      9.413
REMARK  6 active torsions:
REMARK  status: ('A' for Active; 'I' for Inactive)
REMARK    1  A    between atoms: C4_4  and  C5_5 
REMARK    2  A    between atoms: C6_6  and  C7_7 
REMARK    3  A    between atoms: C9_9  and  C10_10 
REMARK    4  A    between atoms: C13_13  and  O1_14 
REMARK    5  A    between atoms: N2_19  and  C17_20 
REMARK    6  A    between atoms: C18_22  and  O2_23 
ROOT
HETATM    1  C1  UNL     1      15.170  -4.855  53.283  1.00  0.00     0.017 C 
HETATM    2  C2  UNL     1      16.227  -4.307  53.466  1.00  0.00    -0.089 C 
HETATM    3  C3  UNL     1      17.475  -3.632  53.686  1.00  0.00     0.063 C 
HETATM    4  C4  UNL     1      17.618  -2.348  53.389  1.00  0.00     0.009 C 
ENDROOT
BRANCH   4   5
HETATM    5  C5  UNL     1      18.813  -1.513  53.550  1.00  0.00    -0.001 C 
HETATM    6  C6  UNL     1      19.019  -0.350  52.950  1.00  0.00     0.001 C 
BRANCH   6   7
HETATM    7  C7  UNL     1      20.276   0.378  53.211  1.00  0.00     0.141 C 
HETATM    8  C8  UNL     1      21.517  -0.451  52.882  1.00  0.00     0.093 C 
HETATM    9  C9  UNL     1      22.509   0.663  52.682  1.00  0.00     0.067 C 
HETATM   10  N1  UNL     1      21.848   1.762  52.405  1.00  0.00    -0.173 NA
HETATM   11  N2  UNL     1      20.489   1.512  52.395  1.00  0.00    -0.237 N 
BRANCH   9  12
HETATM   12  C10 UNL     1      23.956   0.520  52.785  1.00  0.00    -0.010 A 
HETATM   13  C11 UNL     1      24.824   1.413  52.180  1.00  0.00     0.016 A 
HETATM   14  C12 UNL     1      26.191   1.232  52.309  1.00  0.00     0.037 A 
HETATM   15  C13 UNL     1      26.747   0.199  53.012  1.00  0.00     0.068 A 
HETATM   16  C15 UNL     1      25.848  -0.668  53.598  1.00  0.00     0.037 A 
HETATM   17  C16 UNL     1      24.501  -0.514  53.489  1.00  0.00     0.016 A 
BRANCH  15  18
HETATM   18  O1  UNL     1      28.102  -0.004  53.155  1.00  0.00    -0.356 OA
HETATM   19  C14 UNL     1      28.743   0.180  54.399  1.00  0.00     0.210 C 
ENDBRANCH  15  18
ENDBRANCH   9  12
BRANCH  11  20
HETATM   20  C17 UNL     1      19.471   2.293  51.662  1.00  0.00     0.192 A 
HETATM   21  N3  UNL     1      18.727   3.113  51.971  1.00  0.00    -0.198 NA
HETATM   22  C18 UNL     1      17.843   3.781  51.300  1.00  0.00     0.171 A 
HETATM   23  C19 UNL     1      17.824   3.389  49.913  1.00  0.00     0.111 A 
HETATM   24  S1  UNL     1      19.195   2.037  49.885  1.00  0.00    -0.058 SA
BRANCH  22  25
HETATM   25  O2  UNL     1      16.846   4.720  51.174  1.00  0.00    -0.344 OA
HETATM   26  H16 UNL     1      16.238   4.759  50.380  1.00  0.00     0.219 HD
ENDBRANCH  22  25
ENDBRANCH  11  20
ENDBRANCH   6   7
ENDBRANCH   4   5
TORSDOF 6
ENDMDL
MODEL 5
REMARK VINA RESULT:      -8.1      3.368      5.092
REMARK  6 active torsions:
REMARK  status: ('A' for Active; 'I' for Inactive)
REMARK    1  A    between atoms: C4_4  and  C5_5 
REMARK    2  A    between atoms: C6_6  and  C7_7 
REMARK    3  A    between atoms: C9_9  and  C10_10 
REMARK    4  A    between atoms: C13_13  and  O1_14 
REMARK    5  A    between atoms: N2_19  and  C17_20 
REMARK    6  A    between atoms: C18_22  and  O2_23 
ROOT
HETATM    1  C1  UNL     1      29.989  -0.514  54.009  1.00  0.00     0.017 C 
HETATM    2  C2  UNL     1      28.912  -0.685  53.496  1.00  0.00    -0.089 C 
HETATM    3  C3  UNL     1      27.628  -0.864  52.880  1.00  0.00     0.063 C 
HETATM    4  C4  UNL     1      26.759   0.135  52.811  1.00  0.00     0.009 C 
ENDROOT
BRANCH   4   5
HETATM    5  C5  UNL     1      25.416   0.123  52.221  1.00  0.00    -0.001 C 
HETATM    6  C6  UNL     1      24.362   0.763  52.705  1.00  0.00     0.001 C 
BRANCH   6   7
HETATM    7  C7  UNL     1      23.071   0.655  51.999  1.00  0.00     0.141 C 
HETATM    8  C8  UNL     1      21.970   0.053  52.871  1.00  0.00     0.093 C 
HETATM    9  C9  UNL     1      20.765   0.596  52.152  1.00  0.00     0.067 C 
HETATM   10  N1  UNL     1      21.132   1.651  51.464  1.00  0.00    -0.173 NA
HETATM   11  N2  UNL     1      22.482   1.888  51.640  1.00  0.00    -0.237 N 
BRANCH   9  12
HETATM   12  C10 UNL     1      19.424   0.027  52.224  1.00  0.00    -0.010 A 
HETATM   13  C11 UNL     1      18.457   0.313  51.276  1.00  0.00     0.016 A 
HETATM   14  C12 UNL     1      17.198  -0.254  51.391  1.00  0.00     0.037 A 
HETATM   15  C13 UNL     1      16.847  -1.098  52.408  1.00  0.00     0.068 A 
HETATM   16  C15 UNL     1      17.838  -1.356  53.332  1.00  0.00     0.037 A 
HETATM   17  C16 UNL     1      19.083  -0.814  53.244  1.00  0.00     0.016 A 
BRANCH  15  18
HETATM   18  O1  UNL     1      15.603  -1.674  52.545  1.00  0.00    -0.356 OA
HETATM   19  C14 UNL     1      14.423  -0.938  52.302  1.00  0.00     0.210 C 
ENDBRANCH  15  18
ENDBRANCH   9  12
BRANCH  11  20
HETATM   20  C17 UNL     1      23.160   3.192  51.480  1.00  0.00     0.192 A 
HETATM   21  N3  UNL     1      23.234   4.132  52.138  1.00  0.00    -0.198 NA
HETATM   22  C18 UNL     1      23.839   5.264  51.967  1.00  0.00     0.171 A 
HETATM   23  C19 UNL     1      24.534   5.309  50.705  1.00  0.00     0.111 A 
HETATM   24  S1  UNL     1      24.127   3.568  49.990  1.00  0.00    -0.058 SA
BRANCH  22  25
HETATM   25  O2  UNL     1      24.208   6.533  52.353  1.00  0.00    -0.344 OA
HETATM   26  H16 UNL     1      24.155   6.845  53.302  1.00  0.00     0.219 HD
ENDBRANCH  22  25
ENDBRANCH  11  20
ENDBRANCH   6   7
ENDBRANCH   4   5
TORSDOF 6
ENDMDL
MODEL 6
REMARK VINA RESULT:      -8.0      3.387      8.380
REMARK  6 active torsions:
REMARK  status: ('A' for Active; 'I' for Inactive)
REMARK    1  A    between atoms: C4_4  and  C5_5 
REMARK    2  A    between atoms: C6_6  and  C7_7 
REMARK    3  A    between atoms: C9_9  and  C10_10 
REMARK    4  A    between atoms: C13_13  and  O1_14 
REMARK    5  A    between atoms: N2_19  and  C17_20 
REMARK    6  A    between atoms: C18_22  and  O2_23 
ROOT
HETATM    1  C1  UNL     1      18.549  -0.643  52.994  1.00  0.00     0.017 C 
HETATM    2  C2  UNL     1      19.350  -0.154  52.238  1.00  0.00    -0.089 C 
HETATM    3  C3  UNL     1      20.322   0.416  51.349  1.00  0.00     0.063 C 
HETATM    4  C4  UNL     1      21.584   0.571  51.727  1.00  0.00     0.009 C 
ENDROOT
BRANCH   4   5
HETATM    5  C5  UNL     1      22.695   1.131  50.950  1.00  0.00    -0.001 C 
HETATM    6  C6  UNL     1      23.595   1.986  51.411  1.00  0.00     0.001 C 
BRANCH   6   7
HETATM    7  C7  UNL     1      24.658   2.465  50.507  1.00  0.00     0.141 C 
HETATM    8  C8  UNL     1      24.589   3.972  50.260  1.00  0.00     0.093 C 
HETATM    9  C9  UNL     1      26.017   4.217  49.851  1.00  0.00     0.067 C 
HETATM   10  N1  UNL     1      26.756   3.239  50.316  1.00  0.00    -0.173 NA
HETATM   11  N2  UNL     1      25.972   2.337  51.011  1.00  0.00    -0.237 N 
BRANCH   9  12
HETATM   12  C10 UNL     1      26.475   5.359  49.069  1.00  0.00    -0.010 A 
HETATM   13  C11 UNL     1      27.775   5.450  48.602  1.00  0.00     0.016 A 
HETATM   14  C12 UNL     1      28.160   6.557  47.862  1.00  0.00     0.037 A 
HETATM   15  C13 UNL     1      27.313   7.587  47.560  1.00  0.00     0.068 A 
HETATM   16  C15 UNL     1      26.028   7.457  48.044  1.00  0.00     0.037 A 
HETATM   17  C16 UNL     1      25.622   6.382  48.772  1.00  0.00     0.016 A 
BRANCH  15  18
HETATM   18  O1  UNL     1      27.670   8.697  46.827  1.00  0.00    -0.356 OA
HETATM   19  C14 UNL     1      28.521   9.687  47.364  1.00  0.00     0.210 C 
ENDBRANCH  15  18
ENDBRANCH   9  12
BRANCH  11  20
HETATM   20  C17 UNL     1      26.439   1.424  52.075  1.00  0.00     0.192 A 
HETATM   21  N3  UNL     1      26.893   0.368  52.069  1.00  0.00    -0.198 NA
HETATM   22  C18 UNL     1      27.294  -0.409  53.025  1.00  0.00     0.171 A 
HETATM   23  C19 UNL     1      27.119   0.207  54.317  1.00  0.00     0.111 A 
HETATM   24  S1  UNL     1      26.354   1.904  53.824  1.00  0.00    -0.058 SA
BRANCH  22  25
HETATM   25  O2  UNL     1      27.831  -1.575  53.519  1.00  0.00    -0.344 OA
HETATM   26  H16 UNL     1      27.276  -2.387  53.710  1.00  0.00     0.219 HD
ENDBRANCH  22  25
ENDBRANCH  11  20
ENDBRANCH   6   7
ENDBRANCH   4   5
TORSDOF 6
ENDMDL
MODEL 7
REMARK VINA RESULT:      -7.7      3.680      8.703
REMARK  6 active torsions:
REMARK  status: ('A' for Active; 'I' for Inactive)
REMARK    1  A    between atoms: C4_4  and  C5_5 
REMARK    2  A    between atoms: C6_6  and  C7_7 
REMARK    3  A    between atoms: C9_9  and  C10_10 
REMARK    4  A    between atoms: C13_13  and  O1_14 
REMARK    5  A    between atoms: N2_19  and  C17_20 
REMARK    6  A    between atoms: C18_22  and  O2_23 
ROOT
HETATM    1  C1  UNL     1      15.396  -1.960  52.313  1.00  0.00     0.017 C 
HETATM    2  C2  UNL     1      16.449  -1.380  52.231  1.00  0.00    -0.089 C 
HETATM    3  C3  UNL     1      17.714  -0.707  52.145  1.00  0.00     0.063 C 
HETATM    4  C4  UNL     1      18.661  -0.919  53.048  1.00  0.00     0.009 C 
ENDROOT
BRANCH   4   5
HETATM    5  C5  UNL     1      19.999  -0.320  53.108  1.00  0.00    -0.001 C 
HETATM    6  C6  UNL     1      20.338   0.847  52.580  1.00  0.00     0.001 C 
BRANCH   6   7
HETATM    7  C7  UNL     1      21.728   1.320  52.721  1.00  0.00     0.141 C 
HETATM    8  C8  UNL     1      22.696   0.202  53.107  1.00  0.00     0.093 C 
HETATM    9  C9  UNL     1      23.981   0.812  52.614  1.00  0.00     0.067 C 
HETATM   10  N1  UNL     1      23.691   1.715  51.708  1.00  0.00    -0.173 NA
HETATM   11  N2  UNL     1      22.323   1.788  51.528  1.00  0.00    -0.237 N 
BRANCH   9  12
HETATM   12  C10 UNL     1      25.312   0.442  53.080  1.00  0.00    -0.010 A 
HETATM   13  C11 UNL     1      26.293  -0.007  52.212  1.00  0.00     0.016 A 
HETATM   14  C12 UNL     1      27.541  -0.345  52.707  1.00  0.00     0.037 A 
HETATM   15  C13 UNL     1      27.870  -0.261  54.032  1.00  0.00     0.068 A 
HETATM   16  C15 UNL     1      26.866   0.190  54.863  1.00  0.00     0.037 A 
HETATM   17  C16 UNL     1      25.631   0.530  54.405  1.00  0.00     0.016 A 
BRANCH  15  18
HETATM   18  O1  UNL     1      29.104  -0.591  54.549  1.00  0.00    -0.356 OA
HETATM   19  C14 UNL     1      30.172  -0.971  53.709  1.00  0.00     0.210 C 
ENDBRANCH  15  18
ENDBRANCH   9  12
BRANCH  11  20
HETATM   20  C17 UNL     1      21.634   2.266  50.311  1.00  0.00     0.192 A 
HETATM   21  N3  UNL     1      21.158   3.268  50.013  1.00  0.00    -0.198 NA
HETATM   22  C18 UNL     1      20.559   3.657  48.932  1.00  0.00     0.171 A 
HETATM   23  C19 UNL     1      20.504   2.604  47.949  1.00  0.00     0.111 A 
HETATM   24  S1  UNL     1      21.400   1.175  48.879  1.00  0.00    -0.058 SA
BRANCH  22  25
HETATM   25  O2  UNL     1      19.903   4.582  48.153  1.00  0.00    -0.344 OA
HETATM   26  H16 UNL     1      18.971   4.441  47.816  1.00  0.00     0.219 HD
ENDBRANCH  22  25
ENDBRANCH  11  20
ENDBRANCH   6   7
ENDBRANCH   4   5
TORSDOF 6
ENDMDL
MODEL 8
REMARK VINA RESULT:      -7.5      4.866      9.906
REMARK  6 active torsions:
REMARK  status: ('A' for Active; 'I' for Inactive)
REMARK    1  A    between atoms: C4_4  and  C5_5 
REMARK    2  A    between atoms: C6_6  and  C7_7 
REMARK    3  A    between atoms: C9_9  and  C10_10 
REMARK    4  A    between atoms: C13_13  and  O1_14 
REMARK    5  A    between atoms: N2_19  and  C17_20 
REMARK    6  A    between atoms: C18_22  and  O2_23 
ROOT
HETATM    1  C1  UNL     1      21.667  -1.776  54.424  1.00  0.00     0.017 C 
HETATM    2  C2  UNL     1      21.889  -0.711  53.906  1.00  0.00    -0.089 C 
HETATM    3  C3  UNL     1      22.171   0.547  53.275  1.00  0.00     0.063 C 
HETATM    4  C4  UNL     1      23.353   0.784  52.724  1.00  0.00     0.009 C 
ENDROOT
BRANCH   4   5
HETATM    5  C5  UNL     1      23.802   2.004  52.044  1.00  0.00    -0.001 C 
HETATM    6  C6  UNL     1      23.007   2.900  51.478  1.00  0.00     0.001 C 
BRANCH   6   7
HETATM    7  C7  UNL     1      23.606   4.081  50.828  1.00  0.00     0.141 C 
HETATM    8  C8  UNL     1      25.045   3.837  50.373  1.00  0.00     0.093 C 
HETATM    9  C9  UNL     1      25.147   4.899  49.311  1.00  0.00     0.067 C 
HETATM   10  N1  UNL     1      23.936   5.211  48.917  1.00  0.00    -0.173 NA
HETATM   11  N2  UNL     1      23.002   4.462  49.610  1.00  0.00    -0.237 N 
BRANCH   9  12
HETATM   12  C10 UNL     1      26.396   5.468  48.819  1.00  0.00    -0.010 A 
HETATM   13  C11 UNL     1      27.557   4.719  48.732  1.00  0.00     0.016 A 
HETATM   14  C12 UNL     1      28.718   5.308  48.258  1.00  0.00     0.037 A 
HETATM   15  C13 UNL     1      28.786   6.616  47.862  1.00  0.00     0.068 A 
HETATM   16  C15 UNL     1      27.609   7.327  47.966  1.00  0.00     0.037 A 
HETATM   17  C16 UNL     1      26.455   6.774  48.427  1.00  0.00     0.016 A 
BRANCH  15  18
HETATM   18  O1  UNL     1      29.927   7.225  47.388  1.00  0.00    -0.356 OA
HETATM   19  C14 UNL     1      31.001   7.541  48.247  1.00  0.00     0.210 C 
ENDBRANCH  15  18
ENDBRANCH   9  12
BRANCH  11  20
HETATM   20  C17 UNL     1      21.638   4.135  49.144  1.00  0.00     0.192 A 
HETATM   21  N3  UNL     1      21.227   3.449  48.319  1.00  0.00    -0.198 NA
HETATM   22  C18 UNL     1      20.018   3.183  47.934  1.00  0.00     0.171 A 
HETATM   23  C19 UNL     1      19.044   3.903  48.715  1.00  0.00     0.111 A 
HETATM   24  S1  UNL     1      20.178   4.880  49.926  1.00  0.00    -0.058 SA
BRANCH  22  25
HETATM   25  O2  UNL     1      19.092   2.550  47.138  1.00  0.00    -0.344 OA
HETATM   26  H16 UNL     1      19.262   1.658  46.716  1.00  0.00     0.219 HD
ENDBRANCH  22  25
ENDBRANCH  11  20
ENDBRANCH   6   7
ENDBRANCH   4   5
TORSDOF 6
ENDMDL
MODEL 9
REMARK VINA RESULT:      -7.4      1.903      2.334
REMARK  6 active torsions:
REMARK  status: ('A' for Active; 'I' for Inactive)
REMARK    1  A    between atoms: C4_4  and  C5_5 
REMARK    2  A    between atoms: C6_6  and  C7_7 
REMARK    3  A    between atoms: C9_9  and  C10_10 
REMARK    4  A    between atoms: C13_13  and  O1_14 
REMARK    5  A    between atoms: N2_19  and  C17_20 
REMARK    6  A    between atoms: C18_22  and  O2_23 
ROOT
HETATM    1  C1  UNL     1      29.342   5.598  47.933  1.00  0.00     0.017 C 
HETATM    2  C2  UNL     1      28.261   5.337  48.395  1.00  0.00    -0.089 C 
HETATM    3  C3  UNL     1      26.982   5.007  48.960  1.00  0.00     0.063 C 
HETATM    4  C4  UNL     1      26.742   3.795  49.441  1.00  0.00     0.009 C 
ENDROOT
BRANCH   4   5
HETATM    5  C5  UNL     1      25.503   3.297  50.048  1.00  0.00    -0.001 C 
HETATM    6  C6  UNL     1      25.149   3.468  51.314  1.00  0.00     0.001 C 
BRANCH   6   7
HETATM    7  C7  UNL     1      23.868   2.906  51.782  1.00  0.00     0.141 C 
HETATM    8  C8  UNL     1      22.860   2.712  50.649  1.00  0.00     0.093 C 
HETATM    9  C9  UNL     1      21.986   1.660  51.279  1.00  0.00     0.067 C 
HETATM   10  N1  UNL     1      22.674   1.056  52.218  1.00  0.00    -0.173 NA
HETATM   11  N2  UNL     1      23.946   1.593  52.298  1.00  0.00    -0.237 N 
BRANCH   9  12
HETATM   12  C10 UNL     1      20.609   1.379  50.892  1.00  0.00    -0.010 A 
HETATM   13  C11 UNL     1      19.897   2.225  50.058  1.00  0.00     0.016 A 
HETATM   14  C12 UNL     1      18.590   1.913  49.721  1.00  0.00     0.037 A 
HETATM   15  C13 UNL     1      17.948   0.793  50.172  1.00  0.00     0.068 A 
HETATM   16  C15 UNL     1      18.691  -0.023  50.999  1.00  0.00     0.037 A 
HETATM   17  C16 UNL     1      19.976   0.259  51.347  1.00  0.00     0.016 A 
BRANCH  15  18
HETATM   18  O1  UNL     1      16.650   0.459  49.851  1.00  0.00    -0.356 OA
HETATM   19  C14 UNL     1      15.595   1.383  50.013  1.00  0.00     0.210 C 
ENDBRANCH  15  18
ENDBRANCH   9  12
BRANCH  11  20
HETATM   20  C17 UNL     1      25.144   0.906  52.824  1.00  0.00     0.192 A 
HETATM   21  N3  UNL     1      25.604  -0.132  52.645  1.00  0.00    -0.198 NA
HETATM   22  C18 UNL     1      26.661  -0.707  53.126  1.00  0.00     0.171 A 
HETATM   23  C19 UNL     1      27.356   0.152  54.051  1.00  0.00     0.111 A 
HETATM   24  S1  UNL     1      26.241   1.721  54.019  1.00  0.00    -0.058 SA
BRANCH  22  25
HETATM   25  O2  UNL     1      27.544  -1.755  53.247  1.00  0.00    -0.344 OA
HETATM   26  H16 UNL     1      28.249  -1.788  53.957  1.00  0.00     0.219 HD
ENDBRANCH  22  25
ENDBRANCH  11  20
ENDBRANCH   6   7
ENDBRANCH   4   5
TORSDOF 6
ENDMDL
