MODEL 1
REMARK VINA RESULT:      -8.7      0.000      0.000
REMARK  3 active torsions:
REMARK  status: ('A' for Active; 'I' for Inactive)
REMARK    1  A    between atoms: C2_2  and  C3_3 
REMARK    2  A    between atoms: C3_3  and  O1_5 
REMARK    3  A    between atoms: O1_5  and  C5_6 
ROOT
HETATM    1  C5  UNL     1      26.534  -0.405  54.124  1.00  0.00     0.294 C 
HETATM    2  O2  UNL     1      25.556  -1.129  54.753  1.00  0.00    -0.338 OA
HETATM    3  C6  UNL     1      24.655  -0.093  54.367  1.00  0.00     0.237 C 
HETATM    4  C7  UNL     1      23.352  -0.617  54.260  1.00  0.00    -0.071 C 
HETATM    5  C8  UNL     1      22.285  -1.054  54.190  1.00  0.00    -0.100 C 
HETATM    6  C9  UNL     1      20.982  -1.610  54.121  1.00  0.00     0.122 C 
HETATM    7  C10 UNL     1      19.941  -0.760  53.557  1.00  0.00     0.002 C 
HETATM    8  C11 UNL     1      20.030   0.455  53.099  1.00  0.00     0.086 C 
HETATM    9  N1  UNL     1      19.954   1.746  52.575  1.00  0.00    -0.354 N 
HETATM   10  C12 UNL     1      20.612   2.109  51.346  1.00  0.00     0.110 C 
HETATM   11  N2  UNL     1      20.260   1.433  50.339  1.00  0.00    -0.228 NA
HETATM   12  C13 UNL     1      21.291   1.094  49.365  1.00  0.00     0.235 C 
HETATM   13  N3  UNL     1      22.541   1.497  49.557  1.00  0.00    -0.246 NA
HETATM   14  C14 UNL     1      22.830   2.185  50.768  1.00  0.00     0.043 C 
HETATM   15  C15 UNL     1      23.752   2.169  51.693  1.00  0.00     0.029 C 
HETATM   16  C16 UNL     1      24.250   2.718  52.927  1.00  0.00     0.026 C 
HETATM   17  C17 UNL     1      25.288   2.431  53.640  1.00  0.00     0.135 C 
HETATM   18  O3  UNL     1      25.725   1.411  52.790  1.00  0.00    -0.349 OA
HETATM   19  C18 UNL     1      25.479   0.047  53.135  1.00  0.00     0.223 C 
HETATM   20  C19 UNL     1      21.663   3.132  51.001  1.00  0.00     0.137 C 
HETATM   21  H16 UNL     1      19.607   2.701  52.661  1.00  0.00     0.166 HD
ENDROOT
BRANCH   1  22
HETATM   22  O1  UNL     1      27.540  -1.077  53.486  1.00  0.00    -0.354 OA
BRANCH  22  23
HETATM   23  C3  UNL     1      28.811  -0.732  53.805  1.00  0.00     0.120 C 
HETATM   24  C4  UNL     1      29.753  -1.838  53.414  1.00  0.00     0.039 C 
BRANCH  23  25
HETATM   25  C2  UNL     1      29.341   0.572  53.362  1.00  0.00     0.027 C 
HETATM   26  C1  UNL     1      29.326   1.685  54.345  1.00  0.00     0.007 C 
ENDBRANCH  23  25
ENDBRANCH  22  23
ENDBRANCH   1  22
TORSDOF 3
ENDMDL
MODEL 2
REMARK VINA RESULT:      -8.2      1.053      1.390
REMARK  3 active torsions:
REMARK  status: ('A' for Active; 'I' for Inactive)
REMARK    1  A    between atoms: C2_2  and  C3_3 
REMARK    2  A    between atoms: C3_3  and  O1_5 
REMARK    3  A    between atoms: O1_5  and  C5_6 
ROOT
HETATM    1  C5  UNL     1      25.481  -0.334  54.065  1.00  0.00     0.294 C 
HETATM    2  O2  UNL     1      24.350  -0.926  54.561  1.00  0.00    -0.338 OA
HETATM    3  C6  UNL     1      23.631   0.178  54.015  1.00  0.00     0.237 C 
HETATM    4  C7  UNL     1      22.309  -0.216  53.728  1.00  0.00    -0.071 C 
HETATM    5  C8  UNL     1      21.224  -0.546  53.512  1.00  0.00    -0.100 C 
HETATM    6  C9  UNL     1      19.893  -0.970  53.264  1.00  0.00     0.122 C 
HETATM    7  C10 UNL     1      19.042  -0.044  52.527  1.00  0.00     0.002 C 
HETATM    8  C11 UNL     1      19.325   1.135  52.053  1.00  0.00     0.086 C 
HETATM    9  N1  UNL     1      19.465   2.402  51.487  1.00  0.00    -0.354 N 
HETATM   10  C12 UNL     1      20.331   2.642  50.361  1.00  0.00     0.110 C 
HETATM   11  N2  UNL     1      20.059   1.962  49.331  1.00  0.00    -0.228 NA
HETATM   12  C13 UNL     1      21.180   1.478  48.534  1.00  0.00     0.235 C 
HETATM   13  N3  UNL     1      22.424   1.760  48.899  1.00  0.00    -0.246 NA
HETATM   14  C14 UNL     1      22.604   2.468  50.119  1.00  0.00     0.043 C 
HETATM   15  C15 UNL     1      23.374   2.400  51.172  1.00  0.00     0.029 C 
HETATM   16  C16 UNL     1      23.743   2.949  52.451  1.00  0.00     0.026 C 
HETATM   17  C17 UNL     1      24.629   2.590  53.319  1.00  0.00     0.135 C 
HETATM   18  O3  UNL     1      25.074   1.495  52.574  1.00  0.00    -0.349 OA
HETATM   19  C18 UNL     1      24.636   0.179  52.916  1.00  0.00     0.223 C 
HETATM   20  C19 UNL     1      21.524   3.537  50.148  1.00  0.00     0.137 C 
HETATM   21  H16 UNL     1      19.213   3.390  51.492  1.00  0.00     0.166 HD
ENDROOT
BRANCH   1  22
HETATM   22  O1  UNL     1      26.492  -1.131  53.604  1.00  0.00    -0.354 OA
BRANCH  22  23
HETATM   23  C3  UNL     1      27.718  -0.565  53.486  1.00  0.00     0.120 C 
HETATM   24  C4  UNL     1      27.950   0.387  54.628  1.00  0.00     0.039 C 
BRANCH  23  25
HETATM   25  C2  UNL     1      28.899  -1.427  53.291  1.00  0.00     0.027 C 
HETATM   26  C1  UNL     1      30.221  -0.874  53.684  1.00  0.00     0.007 C 
ENDBRANCH  23  25
ENDBRANCH  22  23
ENDBRANCH   1  22
TORSDOF 3
ENDMDL
MODEL 3
REMARK VINA RESULT:      -7.8      9.574     11.388
REMARK  3 active torsions:
REMARK  status: ('A' for Active; 'I' for Inactive)
REMARK    1  A    between atoms: C2_2  and  C3_3 
REMARK    2  A    between atoms: C3_3  and  O1_5 
REMARK    3  A    between atoms: O1_5  and  C5_6 
ROOT
HETATM    1  C5  UNL     1      32.353   4.545  46.953  1.00  0.00     0.294 C 
HETATM    2  O2  UNL     1      31.106   4.123  47.332  1.00  0.00    -0.338 OA
HETATM    3  C6  UNL     1      31.004   5.346  48.061  1.00  0.00     0.237 C 
HETATM    4  C7  UNL     1      29.648   5.707  48.188  1.00  0.00    -0.071 C 
HETATM    5  C8  UNL     1      28.533   5.985  48.299  1.00  0.00    -0.100 C 
HETATM    6  C9  UNL     1      27.157   6.302  48.433  1.00  0.00     0.122 C 
HETATM    7  C10 UNL     1      26.841   7.615  48.983  1.00  0.00     0.002 C 
HETATM    8  C11 UNL     1      27.648   8.557  49.376  1.00  0.00     0.086 C 
HETATM    9  N1  UNL     1      28.370   9.658  49.836  1.00  0.00    -0.354 N 
HETATM   10  C12 UNL     1      29.178  10.462  48.955  1.00  0.00     0.110 C 
HETATM   11  N2  UNL     1      28.547  10.988  47.993  1.00  0.00    -0.228 NA
HETATM   12  C13 UNL     1      29.233  11.071  46.709  1.00  0.00     0.235 C 
HETATM   13  N3  UNL     1      30.469  10.606  46.587  1.00  0.00    -0.246 NA
HETATM   14  C14 UNL     1      31.045   9.967  47.720  1.00  0.00     0.043 C 
HETATM   15  C15 UNL     1      31.734   8.887  47.974  1.00  0.00     0.029 C 
HETATM   16  C16 UNL     1      32.397   8.066  48.955  1.00  0.00     0.026 C 
HETATM   17  C17 UNL     1      33.032   6.946  48.852  1.00  0.00     0.135 C 
HETATM   18  O3  UNL     1      32.831   6.833  47.474  1.00  0.00    -0.349 OA
HETATM   19  C18 UNL     1      31.815   5.962  46.975  1.00  0.00     0.223 C 
HETATM   20  C19 UNL     1      30.644  10.805  48.924  1.00  0.00     0.137 C 
HETATM   21  H16 UNL     1      28.644  10.255  50.616  1.00  0.00     0.166 HD
ENDROOT
BRANCH   1  22
HETATM   22  O1  UNL     1      32.805   4.218  45.705  1.00  0.00    -0.354 OA
BRANCH  22  23
HETATM   23  C3  UNL     1      34.097   4.516  45.420  1.00  0.00     0.120 C 
HETATM   24  C4  UNL     1      34.988   3.383  45.855  1.00  0.00     0.039 C 
BRANCH  23  25
HETATM   25  C2  UNL     1      34.456   4.955  44.058  1.00  0.00     0.027 C 
HETATM   26  C1  UNL     1      33.453   4.741  42.984  1.00  0.00     0.007 C 
ENDBRANCH  23  25
ENDBRANCH  22  23
ENDBRANCH   1  22
TORSDOF 3
ENDMDL
MODEL 4
REMARK VINA RESULT:      -7.4      3.508      5.706
REMARK  3 active torsions:
REMARK  status: ('A' for Active; 'I' for Inactive)
REMARK    1  A    between atoms: C2_2  and  C3_3 
REMARK    2  A    between atoms: C3_3  and  O1_5 
REMARK    3  A    between atoms: O1_5  and  C5_6 
ROOT
HETATM    1  C5  UNL     1      26.280   1.842  52.010  1.00  0.00     0.294 C 
HETATM    2  O2  UNL     1      27.128   2.526  51.180  1.00  0.00    -0.338 OA
HETATM    3  C6  UNL     1      25.968   2.900  50.438  1.00  0.00     0.237 C 
HETATM    4  C7  UNL     1      26.206   4.120  49.775  1.00  0.00    -0.071 C 
HETATM    5  C8  UNL     1      26.418   5.113  49.224  1.00  0.00    -0.100 C 
HETATM    6  C9  UNL     1      26.702   6.327  48.548  1.00  0.00     0.122 C 
HETATM    7  C10 UNL     1      25.581   6.981  47.884  1.00  0.00     0.002 C 
HETATM    8  C11 UNL     1      24.335   6.611  47.818  1.00  0.00     0.086 C 
HETATM    9  N1  UNL     1      22.973   6.359  47.653  1.00  0.00    -0.354 N 
HETATM   10  C12 UNL     1      22.053   6.389  48.761  1.00  0.00     0.110 C 
HETATM   11  N2  UNL     1      22.008   7.490  49.380  1.00  0.00    -0.228 NA
HETATM   12  C13 UNL     1      21.845   7.438  50.828  1.00  0.00     0.235 C 
HETATM   13  N3  UNL     1      21.750   6.265  51.442  1.00  0.00    -0.246 NA
HETATM   14  C14 UNL     1      21.892   5.095  50.647  1.00  0.00     0.043 C 
HETATM   15  C15 UNL     1      22.518   3.951  50.715  1.00  0.00     0.029 C 
HETATM   16  C16 UNL     1      22.810   2.682  50.099  1.00  0.00     0.026 C 
HETATM   17  C17 UNL     1      23.551   1.693  50.474  1.00  0.00     0.135 C 
HETATM   18  O3  UNL     1      23.958   2.306  51.662  1.00  0.00    -0.349 OA
HETATM   19  C18 UNL     1      25.246   2.917  51.740  1.00  0.00     0.223 C 
HETATM   20  C19 UNL     1      21.127   5.365  49.362  1.00  0.00     0.137 C 
HETATM   21  H16 UNL     1      22.201   6.124  47.030  1.00  0.00     0.166 HD
ENDROOT
BRANCH   1  22
HETATM   22  O1  UNL     1      26.577   1.780  53.344  1.00  0.00    -0.354 OA
BRANCH  22  23
HETATM   23  C3  UNL     1      27.238   0.678  53.777  1.00  0.00     0.120 C 
HETATM   24  C4  UNL     1      26.835  -0.514  52.950  1.00  0.00     0.039 C 
BRANCH  23  25
HETATM   25  C2  UNL     1      28.704   0.723  53.926  1.00  0.00     0.027 C 
HETATM   26  C1  UNL     1      29.457  -0.529  53.659  1.00  0.00     0.007 C 
ENDBRANCH  23  25
ENDBRANCH  22  23
ENDBRANCH   1  22
TORSDOF 3
ENDMDL
MODEL 5
REMARK VINA RESULT:      -7.1      6.395      8.848
REMARK  3 active torsions:
REMARK  status: ('A' for Active; 'I' for Inactive)
REMARK    1  A    between atoms: C2_2  and  C3_3 
REMARK    2  A    between atoms: C3_3  and  O1_5 
REMARK    3  A    between atoms: O1_5  and  C5_6 
ROOT
HETATM    1  C5  UNL     1      24.977   3.654  50.525  1.00  0.00     0.294 C 
HETATM    2  O2  UNL     1      26.196   3.278  50.026  1.00  0.00    -0.338 OA
HETATM    3  C6  UNL     1      26.078   4.381  49.129  1.00  0.00     0.237 C 
HETATM    4  C7  UNL     1      27.361   4.823  48.753  1.00  0.00    -0.071 C 
HETATM    5  C8  UNL     1      28.418   5.167  48.439  1.00  0.00    -0.100 C 
HETATM    6  C9  UNL     1      29.725   5.566  48.060  1.00  0.00     0.122 C 
HETATM    7  C10 UNL     1      29.832   6.802  47.293  1.00  0.00     0.002 C 
HETATM    8  C11 UNL     1      28.890   7.608  46.898  1.00  0.00     0.086 C 
HETATM    9  N1  UNL     1      28.007   8.568  46.403  1.00  0.00    -0.354 N 
HETATM   10  C12 UNL     1      27.252   9.431  47.275  1.00  0.00     0.110 C 
HETATM   11  N2  UNL     1      27.953  10.142  48.050  1.00  0.00    -0.228 NA
HETATM   12  C13 UNL     1      27.444  10.365  49.398  1.00  0.00     0.235 C 
HETATM   13  N3  UNL     1      26.287   9.829  49.766  1.00  0.00    -0.246 NA
HETATM   14  C14 UNL     1      25.628   8.984  48.831  1.00  0.00     0.043 C 
HETATM   15  C15 UNL     1      25.021   7.828  48.834  1.00  0.00     0.029 C 
HETATM   16  C16 UNL     1      24.315   6.820  48.086  1.00  0.00     0.026 C 
HETATM   17  C17 UNL     1      23.813   5.682  48.435  1.00  0.00     0.135 C 
HETATM   18  O3  UNL     1      24.210   5.793  49.771  1.00  0.00    -0.349 OA
HETATM   19  C18 UNL     1      25.366   5.089  50.228  1.00  0.00     0.223 C 
HETATM   20  C19 UNL     1      25.777   9.659  47.477  1.00  0.00     0.137 C 
HETATM   21  H16 UNL     1      27.573   9.017  45.597  1.00  0.00     0.166 HD
ENDROOT
BRANCH   1  22
HETATM   22  O1  UNL     1      24.734   3.485  51.860  1.00  0.00    -0.354 OA
BRANCH  22  23
HETATM   23  C3  UNL     1      23.953   2.435  52.215  1.00  0.00     0.120 C 
HETATM   24  C4  UNL     1      22.871   2.236  51.188  1.00  0.00     0.039 C 
BRANCH  23  25
HETATM   25  C2  UNL     1      24.582   1.144  52.551  1.00  0.00     0.027 C 
HETATM   26  C1  UNL     1      23.799   0.201  53.391  1.00  0.00     0.007 C 
ENDBRANCH  23  25
ENDBRANCH  22  23
ENDBRANCH   1  22
TORSDOF 3
ENDMDL
MODEL 6
REMARK VINA RESULT:      -7.0      2.164      3.062
REMARK  3 active torsions:
REMARK  status: ('A' for Active; 'I' for Inactive)
REMARK    1  A    between atoms: C2_2  and  C3_3 
REMARK    2  A    between atoms: C3_3  and  O1_5 
REMARK    3  A    between atoms: O1_5  and  C5_6 
ROOT
HETATM    1  C5  UNL     1      23.938   0.099  53.487  1.00  0.00     0.294 C 
HETATM    2  O2  UNL     1      22.604  -0.137  53.683  1.00  0.00    -0.338 OA
HETATM    3  C6  UNL     1      22.382   1.187  53.202  1.00  0.00     0.237 C 
HETATM    4  C7  UNL     1      21.095   1.274  52.635  1.00  0.00    -0.071 C 
HETATM    5  C8  UNL     1      20.033   1.337  52.188  1.00  0.00    -0.100 C 
HETATM    6  C9  UNL     1      18.720   1.395  51.652  1.00  0.00     0.122 C 
HETATM    7  C10 UNL     1      18.363   2.613  50.934  1.00  0.00     0.002 C 
HETATM    8  C11 UNL     1      19.081   3.674  50.707  1.00  0.00     0.086 C 
HETATM    9  N1  UNL     1      19.713   4.874  50.378  1.00  0.00    -0.354 N 
HETATM   10  C12 UNL     1      20.828   4.924  49.468  1.00  0.00     0.110 C 
HETATM   11  N2  UNL     1      20.589   4.469  48.314  1.00  0.00    -0.228 NA
HETATM   12  C13 UNL     1      21.655   3.724  47.654  1.00  0.00     0.235 C 
HETATM   13  N3  UNL     1      22.819   3.550  48.267  1.00  0.00    -0.246 NA
HETATM   14  C14 UNL     1      22.941   4.043  49.595  1.00  0.00     0.043 C 
HETATM   15  C15 UNL     1      23.413   3.629  50.740  1.00  0.00     0.029 C 
HETATM   16  C16 UNL     1      23.650   3.906  52.133  1.00  0.00     0.026 C 
HETATM   17  C17 UNL     1      24.183   3.198  53.073  1.00  0.00     0.135 C 
HETATM   18  O3  UNL     1      24.425   2.093  52.253  1.00  0.00    -0.349 OA
HETATM   19  C18 UNL     1      23.550   0.965  52.305  1.00  0.00     0.223 C 
HETATM   20  C19 UNL     1      22.251   5.398  49.605  1.00  0.00     0.137 C 
HETATM   21  H16 UNL     1      19.773   5.885  50.494  1.00  0.00     0.166 HD
ENDROOT
BRANCH   1  22
HETATM   22  O1  UNL     1      24.736  -0.937  53.087  1.00  0.00    -0.354 OA
BRANCH  22  23
HETATM   23  C3  UNL     1      26.021  -0.927  53.518  1.00  0.00     0.120 C 
HETATM   24  C4  UNL     1      26.949  -0.723  52.351  1.00  0.00     0.039 C 
BRANCH  23  25
HETATM   25  C2  UNL     1      26.404  -0.042  54.635  1.00  0.00     0.027 C 
HETATM   26  C1  UNL     1      27.806   0.449  54.668  1.00  0.00     0.007 C 
ENDBRANCH  23  25
ENDBRANCH  22  23
ENDBRANCH   1  22
TORSDOF 3
ENDMDL
MODEL 7
REMARK VINA RESULT:      -7.0      3.883      7.638
REMARK  3 active torsions:
REMARK  status: ('A' for Active; 'I' for Inactive)
REMARK    1  A    between atoms: C2_2  and  C3_3 
REMARK    2  A    between atoms: C3_3  and  O1_5 
REMARK    3  A    between atoms: O1_5  and  C5_6 
ROOT
HETATM    1  C5  UNL     1      18.037   1.471  50.230  1.00  0.00     0.294 C 
HETATM    2  O2  UNL     1      18.044   0.519  51.215  1.00  0.00    -0.338 OA
HETATM    3  C6  UNL     1      19.458   0.466  51.039  1.00  0.00     0.237 C 
HETATM    4  C7  UNL     1      20.067   0.044  52.237  1.00  0.00    -0.071 C 
HETATM    5  C8  UNL     1      20.553  -0.317  53.221  1.00  0.00    -0.100 C 
HETATM    6  C9  UNL     1      21.129  -0.772  54.434  1.00  0.00     0.122 C 
HETATM    7  C10 UNL     1      22.583  -0.716  54.527  1.00  0.00     0.002 C 
HETATM    8  C11 UNL     1      23.447  -0.302  53.647  1.00  0.00     0.086 C 
HETATM    9  N1  UNL     1      24.496   0.101  52.821  1.00  0.00    -0.354 N 
HETATM   10  C12 UNL     1      24.684   1.479  52.446  1.00  0.00     0.110 C 
HETATM   11  N2  UNL     1      24.839   2.274  53.416  1.00  0.00    -0.228 NA
HETATM   12  C13 UNL     1      24.236   3.597  53.301  1.00  0.00     0.235 C 
HETATM   13  N3  UNL     1      23.558   3.923  52.207  1.00  0.00    -0.246 NA
HETATM   14  C14 UNL     1      23.387   2.917  51.217  1.00  0.00     0.043 C 
HETATM   15  C15 UNL     1      22.425   2.455  50.465  1.00  0.00     0.029 C 
HETATM   16  C16 UNL     1      22.011   1.518  49.453  1.00  0.00     0.026 C 
HETATM   17  C17 UNL     1      20.867   1.305  48.892  1.00  0.00     0.135 C 
HETATM   18  O3  UNL     1      20.202   2.293  49.623  1.00  0.00    -0.349 OA
HETATM   19  C18 UNL     1      19.391   1.922  50.739  1.00  0.00     0.223 C 
HETATM   20  C19 UNL     1      24.720   2.192  51.119  1.00  0.00     0.137 C 
HETATM   21  H16 UNL     1      25.316  -0.151  52.269  1.00  0.00     0.166 HD
ENDROOT
BRANCH   1  22
HETATM   22  O1  UNL     1      17.126   2.489  50.307  1.00  0.00    -0.354 OA
BRANCH  22  23
HETATM   23  C3  UNL     1      16.461   2.632  51.480  1.00  0.00     0.120 C 
HETATM   24  C4  UNL     1      16.530   4.066  51.931  1.00  0.00     0.039 C 
BRANCH  23  25
HETATM   25  C2  UNL     1      15.081   2.125  51.597  1.00  0.00     0.027 C 
HETATM   26  C1  UNL     1      14.806   1.137  52.671  1.00  0.00     0.007 C 
ENDBRANCH  23  25
ENDBRANCH  22  23
ENDBRANCH   1  22
TORSDOF 3
ENDMDL
MODEL 8
REMARK VINA RESULT:      -6.9      1.922      2.654
REMARK  3 active torsions:
REMARK  status: ('A' for Active; 'I' for Inactive)
REMARK    1  A    between atoms: C2_2  and  C3_3 
REMARK    2  A    between atoms: C3_3  and  O1_5 
REMARK    3  A    between atoms: O1_5  and  C5_6 
ROOT
HETATM    1  C5  UNL     1      25.362   2.149  53.004  1.00  0.00     0.294 C 
HETATM    2  O2  UNL     1      24.502   1.221  53.528  1.00  0.00    -0.338 OA
HETATM    3  C6  UNL     1      23.445   2.063  53.074  1.00  0.00     0.237 C 
HETATM    4  C7  UNL     1      22.293   1.288  52.837  1.00  0.00    -0.071 C 
HETATM    5  C8  UNL     1      21.350   0.645  52.661  1.00  0.00    -0.100 C 
HETATM    6  C9  UNL     1      20.201  -0.163  52.461  1.00  0.00     0.122 C 
HETATM    7  C10 UNL     1      19.061   0.476  51.814  1.00  0.00     0.002 C 
HETATM    8  C11 UNL     1      18.938   1.698  51.384  1.00  0.00     0.086 C 
HETATM    9  N1  UNL     1      18.645   2.963  50.874  1.00  0.00    -0.354 N 
HETATM   10  C12 UNL     1      19.321   3.494  49.718  1.00  0.00     0.110 C 
HETATM   11  N2  UNL     1      19.207   2.794  48.672  1.00  0.00    -0.228 NA
HETATM   12  C13 UNL     1      20.368   2.706  47.795  1.00  0.00     0.235 C 
HETATM   13  N3  UNL     1      21.486   3.348  48.110  1.00  0.00    -0.246 NA
HETATM   14  C14 UNL     1      21.518   4.040  49.352  1.00  0.00     0.043 C 
HETATM   15  C15 UNL     1      22.336   4.182  50.359  1.00  0.00     0.029 C 
HETATM   16  C16 UNL     1      22.599   4.779  51.643  1.00  0.00     0.026 C 
HETATM   17  C17 UNL     1      23.606   4.686  52.446  1.00  0.00     0.135 C 
HETATM   18  O3  UNL     1      24.318   3.806  51.627  1.00  0.00    -0.349 OA
HETATM   19  C18 UNL     1      24.328   2.410  51.927  1.00  0.00     0.223 C 
HETATM   20  C19 UNL     1      20.164   4.720  49.488  1.00  0.00     0.137 C 
HETATM   21  H16 UNL     1      18.101   3.823  50.940  1.00  0.00     0.166 HD
ENDROOT
BRANCH   1  22
HETATM   22  O1  UNL     1      26.538   1.719  52.454  1.00  0.00    -0.354 OA
BRANCH  22  23
HETATM   23  C3  UNL     1      27.104   0.614  52.998  1.00  0.00     0.120 C 
HETATM   24  C4  UNL     1      26.870  -0.572  52.100  1.00  0.00     0.039 C 
BRANCH  23  25
HETATM   25  C2  UNL     1      28.514   0.658  53.429  1.00  0.00     0.027 C 
HETATM   26  C1  UNL     1      29.213  -0.639  53.613  1.00  0.00     0.007 C 
ENDBRANCH  23  25
ENDBRANCH  22  23
ENDBRANCH   1  22
TORSDOF 3
ENDMDL
MODEL 9
REMARK VINA RESULT:      -6.5      2.963      4.105
REMARK  3 active torsions:
REMARK  status: ('A' for Active; 'I' for Inactive)
REMARK    1  A    between atoms: C2_2  and  C3_3 
REMARK    2  A    between atoms: C3_3  and  O1_5 
REMARK    3  A    between atoms: O1_5  and  C5_6 
ROOT
HETATM    1  C5  UNL     1      25.245   2.219  52.055  1.00  0.00     0.294 C 
HETATM    2  O2  UNL     1      24.124   2.192  52.841  1.00  0.00    -0.338 OA
HETATM    3  C6  UNL     1      23.612   3.228  52.005  1.00  0.00     0.237 C 
HETATM    4  C7  UNL     1      22.204   3.187  52.013  1.00  0.00    -0.071 C 
HETATM    5  C8  UNL     1      21.050   3.154  52.039  1.00  0.00    -0.100 C 
HETATM    6  C9  UNL     1      19.633   3.101  52.094  1.00  0.00     0.122 C 
HETATM    7  C10 UNL     1      18.913   3.956  51.159  1.00  0.00     0.002 C 
HETATM    8  C11 UNL     1      19.384   4.775  50.264  1.00  0.00     0.086 C 
HETATM    9  N1  UNL     1      19.722   5.688  49.265  1.00  0.00    -0.354 N 
HETATM   10  C12 UNL     1      20.378   5.279  48.049  1.00  0.00     0.110 C 
HETATM   11  N2  UNL     1      19.744   4.422  47.370  1.00  0.00    -0.228 NA
HETATM   12  C13 UNL     1      20.524   3.392  46.696  1.00  0.00     0.235 C 
HETATM   13  N3  UNL     1      21.846   3.381  46.810  1.00  0.00    -0.246 NA
HETATM   14  C14 UNL     1      22.439   4.351  47.664  1.00  0.00     0.043 C 
HETATM   15  C15 UNL     1      23.361   4.391  48.589  1.00  0.00     0.029 C 
HETATM   16  C16 UNL     1      24.103   5.180  49.537  1.00  0.00     0.026 C 
HETATM   17  C17 UNL     1      25.025   4.864  50.385  1.00  0.00     0.135 C 
HETATM   18  O3  UNL     1      25.023   3.508  50.049  1.00  0.00    -0.349 OA
HETATM   19  C18 UNL     1      24.345   2.571  50.888  1.00  0.00     0.223 C 
HETATM   20  C19 UNL     1      21.690   5.649  47.409  1.00  0.00     0.137 C 
HETATM   21  H16 UNL     1      19.733   6.653  48.935  1.00  0.00     0.166 HD
ENDROOT
BRANCH   1  22
HETATM   22  O1  UNL     1      25.910   1.048  51.818  1.00  0.00    -0.354 OA
BRANCH  22  23
HETATM   23  C3  UNL     1      27.095   0.873  52.453  1.00  0.00     0.120 C 
HETATM   24  C4  UNL     1      27.649   2.208  52.872  1.00  0.00     0.039 C 
BRANCH  23  25
HETATM   25  C2  UNL     1      27.186  -0.090  53.567  1.00  0.00     0.027 C 
HETATM   26  C1  UNL     1      28.288   0.098  54.544  1.00  0.00     0.007 C 
ENDBRANCH  23  25
ENDBRANCH  22  23
ENDBRANCH   1  22
TORSDOF 3
ENDMDL
