MODEL 1
REMARK VINA RESULT:      -8.3      0.000      0.000
REMARK  3 active torsions:
REMARK  status: ('A' for Active; 'I' for Inactive)
REMARK    1  A    between atoms: C2_2  and  C3_3 
REMARK    2  A    between atoms: N1_6  and  C6_7 
REMARK    3  A    between atoms: C14_19  and  N6_20 
ROOT
HETATM    1  C6  UNL     1      23.912   0.742  52.496  1.00  0.00     0.114 C 
HETATM    2  N2  UNL     1      23.039  -0.038  52.996  1.00  0.00    -0.117 NA
HETATM    3  C7  UNL     1      23.296  -0.979  54.029  1.00  0.00     0.223 A 
HETATM    4  N3  UNL     1      22.147  -0.495  53.970  1.00  0.00    -0.204 N 
HETATM    5  N4  UNL     1      21.023  -0.675  54.716  1.00  0.00    -0.294 N 
HETATM    6  C8  UNL     1      20.781   0.657  54.229  1.00  0.00     0.105 C 
HETATM    7  C9  UNL     1      20.462   1.401  53.194  1.00  0.00    -0.007 C 
HETATM    8  C10 UNL     1      20.150   2.587  52.350  1.00  0.00     0.048 C 
HETATM    9  C11 UNL     1      21.190   2.576  51.213  1.00  0.00     0.121 C 
HETATM   10  N5  UNL     1      22.474   2.612  51.816  1.00  0.00    -0.401 N 
HETATM   11  C12 UNL     1      22.921   3.861  52.296  1.00  0.00     0.119 C 
HETATM   12  C13 UNL     1      23.933   4.545  51.420  1.00  0.00     0.055 C 
HETATM   13  C14 UNL     1      24.242   3.642  50.232  1.00  0.00     0.221 C 
HETATM   14  C15 UNL     1      24.684   2.318  50.838  1.00  0.00     0.067 C 
HETATM   15  C16 UNL     1      23.442   1.669  51.413  1.00  0.00     0.146 C 
HETATM   16  H8  UNL     1      20.167  -0.799  55.277  1.00  0.00     0.187 HD
ENDROOT
BRANCH   1  17
HETATM   17  N1  UNL     1      25.262   0.727  52.953  1.00  0.00    -0.323 N 
HETATM   18  C5  UNL     1      25.914   1.608  53.861  1.00  0.00     0.110 C 
HETATM   19  C4  UNL     1      27.061   1.239  54.330  1.00  0.00    -0.002 C 
HETATM   20  C3  UNL     1      27.846   0.456  53.645  1.00  0.00    -0.045 C 
HETATM   21  C18 UNL     1      27.288  -0.524  52.694  1.00  0.00     0.025 C 
HETATM   22  C17 UNL     1      25.996  -0.367  52.365  1.00  0.00     0.098 C 
BRANCH  20  23
HETATM   23  C2  UNL     1      29.315   0.503  53.779  1.00  0.00     0.035 C 
HETATM   24  C1  UNL     1      30.000  -0.798  53.568  1.00  0.00     0.010 C 
ENDBRANCH  20  23
ENDBRANCH   1  17
BRANCH  13  25
HETATM   25  N6  UNL     1      25.279   4.229  49.427  1.00  0.00     0.083 N 
HETATM   26  H20 UNL     1      26.199   3.856  49.772  1.00  0.00     0.313 HD
HETATM   27  H21 UNL     1      25.305   5.258  49.524  1.00  0.00     0.313 HD
ENDBRANCH  13  25
TORSDOF 3
ENDMDL
MODEL 2
REMARK VINA RESULT:      -7.7      2.134      4.958
REMARK  3 active torsions:
REMARK  status: ('A' for Active; 'I' for Inactive)
REMARK    1  A    between atoms: C2_2  and  C3_3 
REMARK    2  A    between atoms: N1_6  and  C6_7 
REMARK    3  A    between atoms: C14_19  and  N6_20 
ROOT
HETATM    1  C6  UNL     1      24.161   2.706  51.783  1.00  0.00     0.114 C 
HETATM    2  N2  UNL     1      22.908   2.596  51.578  1.00  0.00    -0.117 NA
HETATM    3  C7  UNL     1      22.218   3.166  50.476  1.00  0.00     0.223 A 
HETATM    4  N3  UNL     1      21.757   2.108  50.953  1.00  0.00    -0.204 N 
HETATM    5  N4  UNL     1      20.683   1.336  50.636  1.00  0.00    -0.294 N 
HETATM    6  C8  UNL     1      21.529   0.341  51.241  1.00  0.00     0.105 C 
HETATM    7  C9  UNL     1      22.043  -0.123  52.358  1.00  0.00    -0.007 C 
HETATM    8  C10 UNL     1      22.819  -0.958  53.314  1.00  0.00     0.048 C 
HETATM    9  C11 UNL     1      23.792   0.007  54.019  1.00  0.00     0.121 C 
HETATM   10  N5  UNL     1      24.579   0.622  53.010  1.00  0.00    -0.401 N 
HETATM   11  C12 UNL     1      25.633  -0.142  52.467  1.00  0.00     0.119 C 
HETATM   12  C13 UNL     1      27.000   0.227  52.970  1.00  0.00     0.055 C 
HETATM   13  C14 UNL     1      26.867   1.402  53.931  1.00  0.00     0.221 C 
HETATM   14  C15 UNL     1      26.141   2.485  53.145  1.00  0.00     0.067 C 
HETATM   15  C16 UNL     1      24.703   2.026  53.006  1.00  0.00     0.146 C 
HETATM   16  H8  UNL     1      19.876   0.739  50.402  1.00  0.00     0.187 HD
ENDROOT
BRANCH   1  17
HETATM   17  N1  UNL     1      24.991   3.439  50.885  1.00  0.00    -0.323 N 
HETATM   18  C5  UNL     1      26.078   2.981  50.088  1.00  0.00     0.110 C 
HETATM   19  C4  UNL     1      26.505   3.766  49.155  1.00  0.00    -0.002 C 
HETATM   20  C3  UNL     1      26.394   5.060  49.263  1.00  0.00    -0.045 C 
HETATM   21  C18 UNL     1      25.291   5.658  50.037  1.00  0.00     0.025 C 
HETATM   22  C17 UNL     1      24.605   4.828  50.839  1.00  0.00     0.098 C 
BRANCH  20  23
HETATM   23  C2  UNL     1      27.351   5.987  48.629  1.00  0.00     0.035 C 
HETATM   24  C1  UNL     1      28.684   5.400  48.335  1.00  0.00     0.010 C 
ENDBRANCH  20  23
ENDBRANCH   1  17
BRANCH  13  25
HETATM   25  N6  UNL     1      28.170   1.839  54.354  1.00  0.00     0.083 N 
HETATM   26  H20 UNL     1      28.062   2.308  55.288  1.00  0.00     0.313 HD
HETATM   27  H21 UNL     1      28.573   2.534  53.701  1.00  0.00     0.313 HD
ENDBRANCH  13  25
TORSDOF 3
ENDMDL
MODEL 3
REMARK VINA RESULT:      -7.6      1.187      1.454
REMARK  3 active torsions:
REMARK  status: ('A' for Active; 'I' for Inactive)
REMARK    1  A    between atoms: C2_2  and  C3_3 
REMARK    2  A    between atoms: N1_6  and  C6_7 
REMARK    3  A    between atoms: C14_19  and  N6_20 
ROOT
HETATM    1  C6  UNL     1      24.094   1.656  51.725  1.00  0.00     0.114 C 
HETATM    2  N2  UNL     1      23.016   1.025  51.976  1.00  0.00    -0.117 NA
HETATM    3  C7  UNL     1      22.869   0.058  53.007  1.00  0.00     0.223 A 
HETATM    4  N3  UNL     1      21.857   0.719  52.694  1.00  0.00    -0.204 N 
HETATM    5  N4  UNL     1      20.573   0.721  53.145  1.00  0.00    -0.294 N 
HETATM    6  C8  UNL     1      20.665   2.074  52.662  1.00  0.00     0.105 C 
HETATM    7  C9  UNL     1      20.722   2.856  51.609  1.00  0.00    -0.007 C 
HETATM    8  C10 UNL     1      20.808   4.074  50.758  1.00  0.00     0.048 C 
HETATM    9  C11 UNL     1      22.076   3.895  49.899  1.00  0.00     0.121 C 
HETATM   10  N5  UNL     1      23.168   3.729  50.791  1.00  0.00    -0.401 N 
HETATM   11  C12 UNL     1      23.675   4.892  51.406  1.00  0.00     0.119 C 
HETATM   12  C13 UNL     1      24.960   5.404  50.821  1.00  0.00     0.055 C 
HETATM   13  C14 UNL     1      25.401   4.460  49.708  1.00  0.00     0.221 C 
HETATM   14  C15 UNL     1      25.475   3.084  50.354  1.00  0.00     0.067 C 
HETATM   15  C16 UNL     1      24.046   2.642  50.595  1.00  0.00     0.146 C 
HETATM   16  H8  UNL     1      19.599   0.736  53.482  1.00  0.00     0.187 HD
ENDROOT
BRANCH   1  17
HETATM   17  N1  UNL     1      25.276   1.427  52.489  1.00  0.00    -0.323 N 
HETATM   18  C5  UNL     1      25.773   2.145  53.612  1.00  0.00     0.110 C 
HETATM   19  C4  UNL     1      26.717   1.593  54.301  1.00  0.00    -0.002 C 
HETATM   20  C3  UNL     1      27.557   0.765  53.748  1.00  0.00    -0.045 C 
HETATM   21  C18 UNL     1      27.150  -0.059  52.595  1.00  0.00     0.025 C 
HETATM   22  C17 UNL     1      26.007   0.291  51.983  1.00  0.00     0.098 C 
BRANCH  20  23
HETATM   23  C2  UNL     1      28.941   0.606  54.234  1.00  0.00     0.035 C 
HETATM   24  C1  UNL     1      29.655  -0.582  53.700  1.00  0.00     0.010 C 
ENDBRANCH  20  23
ENDBRANCH   1  17
BRANCH  13  25
HETATM   25  N6  UNL     1      26.679   4.873  49.194  1.00  0.00     0.083 N 
HETATM   26  H20 UNL     1      27.241   4.006  49.005  1.00  0.00     0.313 HD
HETATM   27  H21 UNL     1      27.203   5.442  49.879  1.00  0.00     0.313 HD
ENDBRANCH  13  25
TORSDOF 3
ENDMDL
MODEL 4
REMARK VINA RESULT:      -7.4      1.906      5.575
REMARK  3 active torsions:
REMARK  status: ('A' for Active; 'I' for Inactive)
REMARK    1  A    between atoms: C2_2  and  C3_3 
REMARK    2  A    between atoms: N1_6  and  C6_7 
REMARK    3  A    between atoms: C14_19  and  N6_20 
ROOT
HETATM    1  C6  UNL     1      23.223   1.250  53.041  1.00  0.00     0.114 C 
HETATM    2  N2  UNL     1      24.186   0.540  53.481  1.00  0.00    -0.117 NA
HETATM    3  C7  UNL     1      24.047  -0.778  53.993  1.00  0.00     0.223 A 
HETATM    4  N3  UNL     1      25.131  -0.488  53.444  1.00  0.00    -0.204 N 
HETATM    5  N4  UNL     1      26.273  -1.192  53.213  1.00  0.00    -0.294 N 
HETATM    6  C8  UNL     1      26.352  -0.237  52.139  1.00  0.00     0.105 C 
HETATM    7  C9  UNL     1      26.575   1.013  51.803  1.00  0.00    -0.007 C 
HETATM    8  C10 UNL     1      26.741   2.248  50.989  1.00  0.00     0.048 C 
HETATM    9  C11 UNL     1      25.703   3.250  51.533  1.00  0.00     0.121 C 
HETATM   10  N5  UNL     1      24.426   2.639  51.414  1.00  0.00    -0.401 N 
HETATM   11  C12 UNL     1      23.838   2.632  50.132  1.00  0.00     0.119 C 
HETATM   12  C13 UNL     1      22.748   3.647  49.935  1.00  0.00     0.055 C 
HETATM   13  C14 UNL     1      22.541   4.403  51.242  1.00  0.00     0.221 C 
HETATM   14  C15 UNL     1      22.261   3.331  52.287  1.00  0.00     0.067 C 
HETATM   15  C16 UNL     1      23.575   2.619  52.538  1.00  0.00     0.146 C 
HETATM   16  H8  UNL     1      27.141  -1.716  53.027  1.00  0.00     0.187 HD
ENDROOT
BRANCH   1  17
HETATM   17  N1  UNL     1      21.887   0.753  53.030  1.00  0.00    -0.323 N 
HETATM   18  C5  UNL     1      21.017   0.491  54.125  1.00  0.00     0.110 C 
HETATM   19  C4  UNL     1      19.766   0.301  53.860  1.00  0.00    -0.002 C 
HETATM   20  C3  UNL     1      19.390  -0.191  52.713  1.00  0.00    -0.045 C 
HETATM   21  C18 UNL     1      20.192   0.039  51.497  1.00  0.00     0.025 C 
HETATM   22  C17 UNL     1      21.435   0.510  51.682  1.00  0.00     0.098 C 
BRANCH  20  23
HETATM   23  C2  UNL     1      18.160  -0.993  52.567  1.00  0.00     0.035 C 
HETATM   24  C1  UNL     1      18.016  -2.096  53.552  1.00  0.00     0.010 C 
ENDBRANCH  20  23
ENDBRANCH   1  17
BRANCH  13  25
HETATM   25  N6  UNL     1      21.437   5.315  51.111  1.00  0.00     0.083 N 
HETATM   26  H20 UNL     1      21.040   5.197  50.146  1.00  0.00     0.313 HD
HETATM   27  H21 UNL     1      21.738   6.299  51.207  1.00  0.00     0.313 HD
ENDBRANCH  13  25
TORSDOF 3
ENDMDL
MODEL 5
REMARK VINA RESULT:      -7.2      1.709      5.115
REMARK  3 active torsions:
REMARK  status: ('A' for Active; 'I' for Inactive)
REMARK    1  A    between atoms: C2_2  and  C3_3 
REMARK    2  A    between atoms: N1_6  and  C6_7 
REMARK    3  A    between atoms: C14_19  and  N6_20 
ROOT
HETATM    1  C6  UNL     1      23.952   0.914  52.272  1.00  0.00     0.114 C 
HETATM    2  N2  UNL     1      24.925   0.351  52.871  1.00  0.00    -0.117 NA
HETATM    3  C7  UNL     1      26.199   0.945  53.076  1.00  0.00     0.223 A 
HETATM    4  N3  UNL     1      25.809   0.120  53.929  1.00  0.00    -0.204 N 
HETATM    5  N4  UNL     1      26.361  -0.363  55.075  1.00  0.00    -0.294 N 
HETATM    6  C8  UNL     1      24.966  -0.540  55.381  1.00  0.00     0.105 C 
HETATM    7  C9  UNL     1      23.873  -1.229  55.140  1.00  0.00    -0.007 C 
HETATM    8  C10 UNL     1      22.463  -1.702  55.190  1.00  0.00     0.048 C 
HETATM    9  C11 UNL     1      21.921  -1.556  53.754  1.00  0.00     0.121 C 
HETATM   10  N5  UNL     1      22.066  -0.192  53.387  1.00  0.00    -0.401 N 
HETATM   11  C12 UNL     1      21.115   0.714  53.903  1.00  0.00     0.119 C 
HETATM   12  C13 UNL     1      20.062   1.145  52.924  1.00  0.00     0.055 C 
HETATM   13  C14 UNL     1      20.349   0.493  51.576  1.00  0.00     0.221 C 
HETATM   14  C15 UNL     1      21.775   0.899  51.230  1.00  0.00     0.067 C 
HETATM   15  C16 UNL     1      22.684   0.120  52.159  1.00  0.00     0.146 C 
HETATM   16  H8  UNL     1      26.765  -0.732  55.948  1.00  0.00     0.187 HD
ENDROOT
BRANCH   1  17
HETATM   17  N1  UNL     1      24.077   2.232  51.744  1.00  0.00    -0.323 N 
HETATM   18  C5  UNL     1      24.589   2.652  50.484  1.00  0.00     0.110 C 
HETATM   19  C4  UNL     1      24.354   3.870  50.122  1.00  0.00    -0.002 C 
HETATM   20  C3  UNL     1      24.191   4.814  51.004  1.00  0.00    -0.045 C 
HETATM   21  C18 UNL     1      23.638   4.511  52.337  1.00  0.00     0.025 C 
HETATM   22  C17 UNL     1      23.591   3.214  52.683  1.00  0.00     0.098 C 
BRANCH  20  23
HETATM   23  C2  UNL     1      24.545   6.220  50.727  1.00  0.00     0.035 C 
HETATM   24  C1  UNL     1      23.413   7.176  50.823  1.00  0.00     0.010 C 
ENDBRANCH  20  23
ENDBRANCH   1  17
BRANCH  13  25
HETATM   25  N6  UNL     1      19.411   0.964  50.594  1.00  0.00     0.083 N 
HETATM   26  H20 UNL     1      19.047   1.894  50.921  1.00  0.00     0.313 HD
HETATM   27  H21 UNL     1      18.601   0.328  50.499  1.00  0.00     0.313 HD
ENDBRANCH  13  25
TORSDOF 3
ENDMDL
MODEL 6
REMARK VINA RESULT:      -6.9      2.526      5.479
REMARK  3 active torsions:
REMARK  status: ('A' for Active; 'I' for Inactive)
REMARK    1  A    between atoms: C2_2  and  C3_3 
REMARK    2  A    between atoms: N1_6  and  C6_7 
REMARK    3  A    between atoms: C14_19  and  N6_20 
ROOT
HETATM    1  C6  UNL     1      22.684   4.392  51.335  1.00  0.00     0.114 C 
HETATM    2  N2  UNL     1      21.470   4.510  50.967  1.00  0.00    -0.117 NA
HETATM    3  C7  UNL     1      21.015   5.407  49.963  1.00  0.00     0.223 A 
HETATM    4  N3  UNL     1      20.375   4.346  50.115  1.00  0.00    -0.204 N 
HETATM    5  N4  UNL     1      19.278   3.826  49.499  1.00  0.00    -0.294 N 
HETATM    6  C8  UNL     1      19.911   2.610  49.940  1.00  0.00     0.105 C 
HETATM    7  C9  UNL     1      20.202   1.839  50.962  1.00  0.00    -0.007 C 
HETATM    8  C10 UNL     1      20.732   0.708  51.772  1.00  0.00     0.048 C 
HETATM    9  C11 UNL     1      21.694   1.341  52.796  1.00  0.00     0.121 C 
HETATM   10  N5  UNL     1      22.684   2.048  52.062  1.00  0.00    -0.401 N 
HETATM   11  C12 UNL     1      23.713   1.283  51.476  1.00  0.00     0.119 C 
HETATM   12  C13 UNL     1      25.025   1.331  52.207  1.00  0.00     0.055 C 
HETATM   13  C14 UNL     1      24.886   2.266  53.402  1.00  0.00     0.221 C 
HETATM   14  C15 UNL     1      24.407   3.590  52.822  1.00  0.00     0.067 C 
HETATM   15  C16 UNL     1      22.963   3.385  52.412  1.00  0.00     0.146 C 
HETATM   16  H8  UNL     1      18.453   3.418  49.036  1.00  0.00     0.187 HD
ENDROOT
BRANCH   1  17
HETATM   17  N1  UNL     1      23.713   5.182  50.743  1.00  0.00    -0.323 N 
HETATM   18  C5  UNL     1      24.088   6.526  51.021  1.00  0.00     0.110 C 
HETATM   19  C4  UNL     1      25.218   6.938  50.549  1.00  0.00    -0.002 C 
HETATM   20  C3  UNL     1      25.716   6.431  49.457  1.00  0.00    -0.045 C 
HETATM   21  C18 UNL     1      25.426   5.037  49.076  1.00  0.00     0.025 C 
HETATM   22  C17 UNL     1      24.421   4.434  49.732  1.00  0.00     0.098 C 
BRANCH  20  23
HETATM   23  C2  UNL     1      26.584   7.209  48.553  1.00  0.00     0.035 C 
HETATM   24  C1  UNL     1      27.865   6.546  48.198  1.00  0.00     0.010 C 
ENDBRANCH  20  23
ENDBRANCH   1  17
BRANCH  13  25
HETATM   25  N6  UNL     1      26.155   2.407  54.064  1.00  0.00     0.083 N 
HETATM   26  H20 UNL     1      26.128   3.301  54.616  1.00  0.00     0.313 HD
HETATM   27  H21 UNL     1      26.935   2.480  53.389  1.00  0.00     0.313 HD
ENDBRANCH  13  25
TORSDOF 3
ENDMDL
MODEL 7
REMARK VINA RESULT:      -6.9      2.035      5.218
REMARK  3 active torsions:
REMARK  status: ('A' for Active; 'I' for Inactive)
REMARK    1  A    between atoms: C2_2  and  C3_3 
REMARK    2  A    between atoms: N1_6  and  C6_7 
REMARK    3  A    between atoms: C14_19  and  N6_20 
ROOT
HETATM    1  C6  UNL     1      23.945   2.067  51.194  1.00  0.00     0.114 C 
HETATM    2  N2  UNL     1      24.939   1.372  51.583  1.00  0.00    -0.117 NA
HETATM    3  C7  UNL     1      26.261   1.869  51.735  1.00  0.00     0.223 A 
HETATM    4  N3  UNL     1      25.912   0.934  52.485  1.00  0.00    -0.204 N 
HETATM    5  N4  UNL     1      26.551   0.246  53.470  1.00  0.00    -0.294 N 
HETATM    6  C8  UNL     1      25.187   0.081  53.900  1.00  0.00     0.105 C 
HETATM    7  C9  UNL     1      24.035  -0.511  53.678  1.00  0.00    -0.007 C 
HETATM    8  C10 UNL     1      22.612  -0.925  53.811  1.00  0.00     0.048 C 
HETATM    9  C11 UNL     1      21.933  -0.522  52.487  1.00  0.00     0.121 C 
HETATM   10  N5  UNL     1      22.121   0.876  52.326  1.00  0.00    -0.401 N 
HETATM   11  C12 UNL     1      21.287   1.725  53.083  1.00  0.00     0.119 C 
HETATM   12  C13 UNL     1      20.165   2.356  52.309  1.00  0.00     0.055 C 
HETATM   13  C14 UNL     1      20.270   1.921  50.851  1.00  0.00     0.221 C 
HETATM   14  C15 UNL     1      21.674   2.317  50.415  1.00  0.00     0.067 C 
HETATM   15  C16 UNL     1      22.626   1.357  51.100  1.00  0.00     0.146 C 
HETATM   16  H8  UNL     1      27.020  -0.278  54.223  1.00  0.00     0.187 HD
ENDROOT
BRANCH   1  17
HETATM   17  N1  UNL     1      24.093   3.448  50.870  1.00  0.00    -0.323 N 
HETATM   18  C5  UNL     1      24.544   4.044  49.660  1.00  0.00     0.110 C 
HETATM   19  C4  UNL     1      24.340   5.311  49.508  1.00  0.00    -0.002 C 
HETATM   20  C3  UNL     1      24.274   6.109  50.536  1.00  0.00    -0.045 C 
HETATM   21  C18 UNL     1      23.792   5.616  51.840  1.00  0.00     0.025 C 
HETATM   22  C17 UNL     1      23.711   4.284  51.982  1.00  0.00     0.098 C 
BRANCH  20  23
HETATM   23  C2  UNL     1      24.670   7.528  50.457  1.00  0.00     0.035 C 
HETATM   24  C1  UNL     1      26.089   7.757  50.082  1.00  0.00     0.010 C 
ENDBRANCH  20  23
ENDBRANCH   1  17
BRANCH  13  25
HETATM   25  N6  UNL     1      19.265   2.587  50.068  1.00  0.00     0.083 N 
HETATM   26  H20 UNL     1      18.959   1.924  49.313  1.00  0.00     0.313 HD
HETATM   27  H21 UNL     1      19.637   3.435  49.606  1.00  0.00     0.313 HD
ENDBRANCH  13  25
TORSDOF 3
ENDMDL
MODEL 8
REMARK VINA RESULT:      -6.9      1.913      5.479
REMARK  3 active torsions:
REMARK  status: ('A' for Active; 'I' for Inactive)
REMARK    1  A    between atoms: C2_2  and  C3_3 
REMARK    2  A    between atoms: N1_6  and  C6_7 
REMARK    3  A    between atoms: C14_19  and  N6_20 
ROOT
HETATM    1  C6  UNL     1      22.665   1.719  52.630  1.00  0.00     0.114 C 
HETATM    2  N2  UNL     1      21.953   1.147  53.518  1.00  0.00    -0.117 NA
HETATM    3  C7  UNL     1      20.570   0.853  53.377  1.00  0.00     0.223 A 
HETATM    4  N3  UNL     1      21.246   0.090  54.099  1.00  0.00    -0.204 N 
HETATM    5  N4  UNL     1      20.937  -1.022  54.820  1.00  0.00    -0.294 N 
HETATM    6  C8  UNL     1      22.332  -1.273  54.568  1.00  0.00     0.105 C 
HETATM    7  C9  UNL     1      23.571  -0.939  54.852  1.00  0.00    -0.007 C 
HETATM    8  C10 UNL     1      25.059  -0.908  54.855  1.00  0.00     0.048 C 
HETATM    9  C11 UNL     1      25.447   0.523  54.434  1.00  0.00     0.121 C 
HETATM   10  N5  UNL     1      24.862   0.761  53.162  1.00  0.00    -0.401 N 
HETATM   11  C12 UNL     1      25.506   0.191  52.044  1.00  0.00     0.119 C 
HETATM   12  C13 UNL     1      26.316   1.156  51.226  1.00  0.00     0.055 C 
HETATM   13  C14 UNL     1      26.174   2.548  51.829  1.00  0.00     0.221 C 
HETATM   14  C15 UNL     1      24.677   2.817  51.872  1.00  0.00     0.067 C 
HETATM   15  C16 UNL     1      24.111   1.938  52.969  1.00  0.00     0.146 C 
HETATM   16  H8  UNL     1      20.718  -1.869  55.365  1.00  0.00     0.187 HD
ENDROOT
BRANCH   1  17
HETATM   17  N1  UNL     1      22.104   2.121  51.383  1.00  0.00    -0.323 N 
HETATM   18  C5  UNL     1      21.545   3.375  51.011  1.00  0.00     0.110 C 
HETATM   19  C4  UNL     1      21.345   3.590  49.753  1.00  0.00    -0.002 C 
HETATM   20  C3  UNL     1      21.110   2.605  48.933  1.00  0.00    -0.045 C 
HETATM   21  C18 UNL     1      21.662   1.262  49.192  1.00  0.00     0.025 C 
HETATM   22  C17 UNL     1      22.153   1.046  50.423  1.00  0.00     0.098 C 
BRANCH  20  23
HETATM   23  C2  UNL     1      20.290   2.772  47.717  1.00  0.00     0.035 C 
HETATM   24  C1  UNL     1      18.865   3.105  47.970  1.00  0.00     0.010 C 
ENDBRANCH  20  23
ENDBRANCH   1  17
BRANCH  13  25
HETATM   25  N6  UNL     1      26.861   3.509  51.009  1.00  0.00     0.083 N 
HETATM   26  H20 UNL     1      26.949   4.397  51.565  1.00  0.00     0.313 HD
HETATM   27  H21 UNL     1      26.330   3.731  50.150  1.00  0.00     0.313 HD
ENDBRANCH  13  25
TORSDOF 3
ENDMDL
MODEL 9
REMARK VINA RESULT:      -6.8      3.661      6.031
REMARK  3 active torsions:
REMARK  status: ('A' for Active; 'I' for Inactive)
REMARK    1  A    between atoms: C2_2  and  C3_3 
REMARK    2  A    between atoms: N1_6  and  C6_7 
REMARK    3  A    between atoms: C14_19  and  N6_20 
ROOT
HETATM    1  C6  UNL     1      21.608   4.244  50.975  1.00  0.00     0.114 C 
HETATM    2  N2  UNL     1      22.296   5.165  51.524  1.00  0.00    -0.117 NA
HETATM    3  C7  UNL     1      22.946   5.045  52.782  1.00  0.00     0.223 A 
HETATM    4  N3  UNL     1      23.467   5.806  51.940  1.00  0.00    -0.204 N 
HETATM    5  N4  UNL     1      24.580   6.588  51.957  1.00  0.00    -0.294 N 
HETATM    6  C8  UNL     1      24.474   6.346  50.542  1.00  0.00     0.105 C 
HETATM    7  C9  UNL     1      23.816   6.607  49.436  1.00  0.00    -0.007 C 
HETATM    8  C10 UNL     1      23.399   6.603  48.007  1.00  0.00     0.048 C 
HETATM    9  C11 UNL     1      21.942   6.101  47.998  1.00  0.00     0.121 C 
HETATM   10  N5  UNL     1      21.934   4.820  48.611  1.00  0.00    -0.401 N 
HETATM   11  C12 UNL     1      22.377   3.734  47.829  1.00  0.00     0.119 C 
HETATM   12  C13 UNL     1      21.281   2.860  47.288  1.00  0.00     0.055 C 
HETATM   13  C14 UNL     1      19.942   3.386  47.793  1.00  0.00     0.221 C 
HETATM   14  C15 UNL     1      20.069   3.419  49.309  1.00  0.00     0.067 C 
HETATM   15  C16 UNL     1      21.003   4.565  49.640  1.00  0.00     0.146 C 
HETATM   16  H8  UNL     1      25.424   7.180  51.956  1.00  0.00     0.187 HD
ENDROOT
BRANCH   1  17
HETATM   17  N1  UNL     1      21.434   2.979  51.608  1.00  0.00    -0.323 N 
HETATM   18  C5  UNL     1      20.437   2.567  52.535  1.00  0.00     0.110 C 
HETATM   19  C4  UNL     1      20.323   1.300  52.764  1.00  0.00    -0.002 C 
HETATM   20  C3  UNL     1      21.346   0.502  52.649  1.00  0.00    -0.045 C 
HETATM   21  C18 UNL     1      22.432   0.804  51.698  1.00  0.00     0.025 C 
HETATM   22  C17 UNL     1      22.454   2.047  51.191  1.00  0.00     0.098 C 
BRANCH  20  23
HETATM   23  C2  UNL     1      21.478  -0.730  53.451  1.00  0.00     0.035 C 
HETATM   24  C1  UNL     1      22.697  -0.794  54.297  1.00  0.00     0.010 C 
ENDBRANCH  20  23
ENDBRANCH   1  17
BRANCH  13  25
HETATM   25  N6  UNL     1      18.882   2.511  47.369  1.00  0.00     0.083 N 
HETATM   26  H20 UNL     1      18.621   2.779  46.387  1.00  0.00     0.313 HD
HETATM   27  H21 UNL     1      18.038   2.619  47.957  1.00  0.00     0.313 HD
ENDBRANCH  13  25
TORSDOF 3
ENDMDL
