MODEL 1
REMARK VINA RESULT:      -8.2      0.000      0.000
REMARK  4 active torsions:
REMARK  status: ('A' for Active; 'I' for Inactive)
REMARK    1  A    between atoms: C2_2  and  O1_3 
REMARK    2  A    between atoms: O1_3  and  S1_4 
REMARK    3  A    between atoms: C7_10  and  N2_11 
REMARK    4  A    between atoms: N2_11  and  C8_12 
ROOT
HETATM    1  S1  UNL     1      23.112   0.077  53.115  1.00  0.00     0.009 SA
HETATM    2  C3  UNL     1      24.657   0.259  53.588  1.00  0.00     0.053 A 
HETATM    3  C4  UNL     1      25.351   1.042  52.803  1.00  0.00     0.003 A 
HETATM    4  C5  UNL     1      26.743   1.150  53.242  1.00  0.00     0.048 C 
HETATM    5  C6  UNL     1      27.454   2.137  52.718  1.00  0.00     0.088 C 
HETATM    6  N1  UNL     1      27.166   2.523  51.538  1.00  0.00    -0.228 NA
HETATM    7  C7  UNL     1      25.828   2.480  51.023  1.00  0.00     0.142 C 
HETATM    8  C15 UNL     1      24.889   1.752  51.629  1.00  0.00     0.058 A 
HETATM    9  C16 UNL     1      23.596   1.784  51.017  1.00  0.00     0.125 A 
HETATM   10  C17 UNL     1      22.688   1.041  51.624  1.00  0.00     0.160 A 
HETATM   11  O2  UNL     1      21.385   0.963  51.162  1.00  0.00    -0.338 OA
HETATM   12  C18 UNL     1      20.978   1.852  50.142  1.00  0.00     0.203 C 
HETATM   13  C19 UNL     1      22.130   2.003  49.150  1.00  0.00     0.202 C 
HETATM   14  O3  UNL     1      23.259   2.513  49.877  1.00  0.00    -0.345 OA
ENDROOT
BRANCH   7  15
HETATM   15  N2  UNL     1      25.672   3.266  49.840  1.00  0.00    -0.340 N 
HETATM   16  H7  UNL     1      25.028   3.226  48.997  1.00  0.00     0.167 HD
BRANCH  15  17
HETATM   17  C8  UNL     1      26.367   4.420  49.385  1.00  0.00     0.033 A 
HETATM   18  C9  UNL     1      27.542   4.622  48.689  1.00  0.00     0.030 A 
HETATM   19  C10 UNL     1      27.993   5.876  48.363  1.00  0.00     0.009 A 
HETATM   20  C11 UNL     1      27.272   6.999  48.730  1.00  0.00    -0.062 A 
HETATM   21  C12 UNL     1      27.797   8.341  48.365  1.00  0.00     0.048 C 
HETATM   22  C13 UNL     1      26.095   6.813  49.426  1.00  0.00     0.009 A 
HETATM   23  C14 UNL     1      25.621   5.545  49.766  1.00  0.00     0.030 A 
ENDBRANCH  15  17
ENDBRANCH   7  15
BRANCH   1  24
HETATM   24  O1  UNL     1      22.218  -1.396  53.311  1.00  0.00    -0.320 OA
BRANCH  24  25
HETATM   25  C2  UNL     1      21.229  -1.319  54.283  1.00  0.00     0.180 C 
HETATM   26  C1  UNL     1      21.104   0.135  54.714  1.00  0.00     0.035 C 
ENDBRANCH  24  25
ENDBRANCH   1  24
TORSDOF 4
ENDMDL
MODEL 2
REMARK VINA RESULT:      -8.1      3.333      5.756
REMARK  4 active torsions:
REMARK  status: ('A' for Active; 'I' for Inactive)
REMARK    1  A    between atoms: C2_2  and  O1_3 
REMARK    2  A    between atoms: O1_3  and  S1_4 
REMARK    3  A    between atoms: C7_10  and  N2_11 
REMARK    4  A    between atoms: N2_11  and  C8_12 
ROOT
HETATM    1  S1  UNL     1      19.794   1.016  51.482  1.00  0.00     0.009 SA
HETATM    2  C3  UNL     1      19.890  -0.122  52.639  1.00  0.00     0.053 A 
HETATM    3  C4  UNL     1      21.089  -0.248  53.145  1.00  0.00     0.003 A 
HETATM    4  C5  UNL     1      21.141  -1.306  54.155  1.00  0.00     0.048 C 
HETATM    5  C6  UNL     1      22.206  -1.321  54.943  1.00  0.00     0.088 C 
HETATM    6  N1  UNL     1      23.307  -0.888  54.471  1.00  0.00    -0.228 NA
HETATM    7  C7  UNL     1      23.363   0.162  53.496  1.00  0.00     0.142 C 
HETATM    8  C15 UNL     1      22.274   0.514  52.812  1.00  0.00     0.058 A 
HETATM    9  C16 UNL     1      22.458   1.570  51.864  1.00  0.00     0.125 A 
HETATM   10  C17 UNL     1      21.370   1.889  51.186  1.00  0.00     0.160 A 
HETATM   11  O2  UNL     1      21.375   2.892  50.231  1.00  0.00    -0.338 OA
HETATM   12  C18 UNL     1      22.517   3.717  50.128  1.00  0.00     0.203 C 
HETATM   13  C19 UNL     1      23.757   2.847  50.326  1.00  0.00     0.202 C 
HETATM   14  O3  UNL     1      23.656   2.243  51.626  1.00  0.00    -0.345 OA
ENDROOT
BRANCH   7  15
HETATM   15  N2  UNL     1      24.673   0.720  53.368  1.00  0.00    -0.340 N 
HETATM   16  H7  UNL     1      25.059   1.704  53.272  1.00  0.00     0.167 HD
BRANCH  15  17
HETATM   17  C8  UNL     1      25.953   0.102  53.328  1.00  0.00     0.033 A 
HETATM   18  C9  UNL     1      26.481  -0.972  52.639  1.00  0.00     0.030 A 
HETATM   19  C10 UNL     1      27.788  -1.363  52.784  1.00  0.00     0.009 A 
HETATM   20  C11 UNL     1      28.634  -0.683  53.640  1.00  0.00    -0.062 A 
HETATM   21  C12 UNL     1      30.041  -1.141  53.775  1.00  0.00     0.048 C 
HETATM   22  C13 UNL     1      28.122   0.394  54.336  1.00  0.00     0.009 A 
HETATM   23  C14 UNL     1      26.794   0.806  54.201  1.00  0.00     0.030 A 
ENDBRANCH  15  17
ENDBRANCH   7  15
BRANCH   1  24
HETATM   24  O1  UNL     1      18.758   0.889  50.097  1.00  0.00    -0.320 OA
BRANCH  24  25
HETATM   25  C2  UNL     1      17.407   0.852  50.417  1.00  0.00     0.180 C 
HETATM   26  C1  UNL     1      16.796  -0.368  49.745  1.00  0.00     0.035 C 
ENDBRANCH  24  25
ENDBRANCH   1  24
TORSDOF 4
ENDMDL
MODEL 3
REMARK VINA RESULT:      -8.0      2.905      5.654
REMARK  4 active torsions:
REMARK  status: ('A' for Active; 'I' for Inactive)
REMARK    1  A    between atoms: C2_2  and  O1_3 
REMARK    2  A    between atoms: O1_3  and  S1_4 
REMARK    3  A    between atoms: C7_10  and  N2_11 
REMARK    4  A    between atoms: N2_11  and  C8_12 
ROOT
HETATM    1  S1  UNL     1      20.259   0.966  50.889  1.00  0.00     0.009 SA
HETATM    2  C3  UNL     1      21.292   1.943  50.100  1.00  0.00     0.053 A 
HETATM    3  C4  UNL     1      22.459   2.042  50.681  1.00  0.00     0.003 A 
HETATM    4  C5  UNL     1      23.345   2.957  49.961  1.00  0.00     0.048 C 
HETATM    5  C6  UNL     1      24.631   2.904  50.273  1.00  0.00     0.088 C 
HETATM    6  N1  UNL     1      24.947   2.576  51.463  1.00  0.00    -0.228 NA
HETATM    7  C7  UNL     1      24.157   1.668  52.243  1.00  0.00     0.142 C 
HETATM    8  C15 UNL     1      22.907   1.373  51.884  1.00  0.00     0.058 A 
HETATM    9  C16 UNL     1      22.220   0.460  52.746  1.00  0.00     0.125 A 
HETATM   10  C17 UNL     1      20.978   0.196  52.379  1.00  0.00     0.160 A 
HETATM   11  O2  UNL     1      20.175  -0.670  53.102  1.00  0.00    -0.338 OA
HETATM   12  C18 UNL     1      20.766  -1.433  54.134  1.00  0.00     0.203 C 
HETATM   13  C19 UNL     1      21.784  -0.555  54.858  1.00  0.00     0.202 C 
HETATM   14  O3  UNL     1      22.756  -0.133  53.888  1.00  0.00    -0.345 OA
ENDROOT
BRANCH   7  15
HETATM   15  N2  UNL     1      24.858   1.178  53.388  1.00  0.00    -0.340 N 
HETATM   16  H7  UNL     1      24.631   1.092  54.422  1.00  0.00     0.167 HD
BRANCH  15  17
HETATM   17  C8  UNL     1      26.157   0.615  53.520  1.00  0.00     0.033 A 
HETATM   18  C9  UNL     1      27.303   0.990  54.193  1.00  0.00     0.030 A 
HETATM   19  C10 UNL     1      28.451   0.239  54.157  1.00  0.00     0.009 A 
HETATM   20  C11 UNL     1      28.498  -0.937  53.432  1.00  0.00    -0.062 A 
HETATM   21  C12 UNL     1      29.762  -1.719  53.412  1.00  0.00     0.048 C 
HETATM   22  C13 UNL     1      27.361  -1.325  52.753  1.00  0.00     0.009 A 
HETATM   23  C14 UNL     1      26.184  -0.574  52.778  1.00  0.00     0.030 A 
ENDBRANCH  15  17
ENDBRANCH   7  15
BRANCH   1  24
HETATM   24  O1  UNL     1      18.547   1.241  50.962  1.00  0.00    -0.320 OA
BRANCH  24  25
HETATM   25  C2  UNL     1      17.798   0.217  50.397  1.00  0.00     0.180 C 
HETATM   26  C1  UNL     1      17.138  -0.562  51.524  1.00  0.00     0.035 C 
ENDBRANCH  24  25
ENDBRANCH   1  24
TORSDOF 4
ENDMDL
MODEL 4
REMARK VINA RESULT:      -8.0      3.166      6.404
REMARK  4 active torsions:
REMARK  status: ('A' for Active; 'I' for Inactive)
REMARK    1  A    between atoms: C2_2  and  O1_3 
REMARK    2  A    between atoms: O1_3  and  S1_4 
REMARK    3  A    between atoms: C7_10  and  N2_11 
REMARK    4  A    between atoms: N2_11  and  C8_12 
ROOT
HETATM    1  S1  UNL     1      26.488   0.242  54.111  1.00  0.00     0.009 SA
HETATM    2  C3  UNL     1      25.327  -0.646  54.823  1.00  0.00     0.053 A 
HETATM    3  C4  UNL     1      24.158  -0.529  54.247  1.00  0.00     0.003 A 
HETATM    4  C5  UNL     1      23.134  -1.313  54.938  1.00  0.00     0.048 C 
HETATM    5  C6  UNL     1      22.001  -1.516  54.284  1.00  0.00     0.088 C 
HETATM    6  N1  UNL     1      21.617  -0.623  53.459  1.00  0.00    -0.228 NA
HETATM    7  C7  UNL     1      22.542   0.181  52.715  1.00  0.00     0.142 C 
HETATM    8  C15 UNL     1      23.824   0.254  53.076  1.00  0.00     0.058 A 
HETATM    9  C16 UNL     1      24.646   1.094  52.259  1.00  0.00     0.125 A 
HETATM   10  C17 UNL     1      25.907   1.163  52.646  1.00  0.00     0.160 A 
HETATM   11  O2  UNL     1      26.836   1.930  51.964  1.00  0.00    -0.338 OA
HETATM   12  C18 UNL     1      26.467   2.485  50.718  1.00  0.00     0.203 C 
HETATM   13  C19 UNL     1      25.015   2.952  50.813  1.00  0.00     0.202 C 
HETATM   14  O3  UNL     1      24.215   1.805  51.140  1.00  0.00    -0.345 OA
ENDROOT
BRANCH   7  15
HETATM   15  N2  UNL     1      21.921   0.856  51.619  1.00  0.00    -0.340 N 
HETATM   16  H7  UNL     1      22.213   1.093  50.626  1.00  0.00     0.167 HD
BRANCH  15  17
HETATM   17  C8  UNL     1      20.640   1.461  51.497  1.00  0.00     0.033 A 
HETATM   18  C9  UNL     1      19.393   1.003  51.120  1.00  0.00     0.030 A 
HETATM   19  C10 UNL     1      18.290   1.819  51.097  1.00  0.00     0.009 A 
HETATM   20  C11 UNL     1      18.394   3.150  51.456  1.00  0.00    -0.062 A 
HETATM   21  C12 UNL     1      17.178   4.004  51.412  1.00  0.00     0.048 C 
HETATM   22  C13 UNL     1      19.633   3.623  51.836  1.00  0.00     0.009 A 
HETATM   23  C14 UNL     1      20.767   2.808  51.866  1.00  0.00     0.030 A 
ENDBRANCH  15  17
ENDBRANCH   7  15
BRANCH   1  24
HETATM   24  O1  UNL     1      27.785   0.996  54.981  1.00  0.00    -0.320 OA
BRANCH  24  25
HETATM   25  C2  UNL     1      29.040   0.721  54.453  1.00  0.00     0.180 C 
HETATM   26  C1  UNL     1      28.999  -0.670  53.838  1.00  0.00     0.035 C 
ENDBRANCH  24  25
ENDBRANCH   1  24
TORSDOF 4
ENDMDL
MODEL 5
REMARK VINA RESULT:      -8.0      3.212      6.941
REMARK  4 active torsions:
REMARK  status: ('A' for Active; 'I' for Inactive)
REMARK    1  A    between atoms: C2_2  and  O1_3 
REMARK    2  A    between atoms: O1_3  and  S1_4 
REMARK    3  A    between atoms: C7_10  and  N2_11 
REMARK    4  A    between atoms: N2_11  and  C8_12 
ROOT
HETATM    1  S1  UNL     1      26.809   0.277  54.043  1.00  0.00     0.009 SA
HETATM    2  C3  UNL     1      25.786  -0.612  54.941  1.00  0.00     0.053 A 
HETATM    3  C4  UNL     1      24.538  -0.509  54.562  1.00  0.00     0.003 A 
HETATM    4  C5  UNL     1      23.647  -1.294  55.417  1.00  0.00     0.048 C 
HETATM    5  C6  UNL     1      22.424  -1.511  54.957  1.00  0.00     0.088 C 
HETATM    6  N1  UNL     1      21.904  -0.630  54.197  1.00  0.00    -0.228 NA
HETATM    7  C7  UNL     1      22.689   0.173  53.306  1.00  0.00     0.142 C 
HETATM    8  C15 UNL     1      24.012   0.259  53.453  1.00  0.00     0.058 A 
HETATM    9  C16 UNL     1      24.683   1.096  52.507  1.00  0.00     0.125 A 
HETATM   10  C17 UNL     1      25.989   1.179  52.683  1.00  0.00     0.160 A 
HETATM   11  O2  UNL     1      26.789   1.945  51.852  1.00  0.00    -0.338 OA
HETATM   12  C18 UNL     1      26.218   2.484  50.678  1.00  0.00     0.203 C 
HETATM   13  C19 UNL     1      24.797   2.942  51.002  1.00  0.00     0.202 C 
HETATM   14  O3  UNL     1      24.070   1.792  51.466  1.00  0.00    -0.345 OA
ENDROOT
BRANCH   7  15
HETATM   15  N2  UNL     1      21.893   0.832  52.319  1.00  0.00    -0.340 N 
HETATM   16  H7  UNL     1      22.041   1.660  51.671  1.00  0.00     0.167 HD
BRANCH  15  17
HETATM   17  C8  UNL     1      20.571   0.577  51.860  1.00  0.00     0.033 A 
HETATM   18  C9  UNL     1      19.465  -0.040  52.410  1.00  0.00     0.030 A 
HETATM   19  C10 UNL     1      18.276  -0.148  51.734  1.00  0.00     0.009 A 
HETATM   20  C11 UNL     1      18.145   0.366  50.457  1.00  0.00    -0.062 A 
HETATM   21  C12 UNL     1      16.843   0.224  49.755  1.00  0.00     0.048 C 
HETATM   22  C13 UNL     1      19.242   0.986  49.893  1.00  0.00     0.009 A 
HETATM   23  C14 UNL     1      20.460   1.105  50.566  1.00  0.00     0.030 A 
ENDBRANCH  15  17
ENDBRANCH   7  15
BRANCH   1  24
HETATM   24  O1  UNL     1      28.223   1.049  54.684  1.00  0.00    -0.320 OA
BRANCH  24  25
HETATM   25  C2  UNL     1      29.389   0.721  54.006  1.00  0.00     0.180 C 
HETATM   26  C1  UNL     1      29.353  -0.769  53.699  1.00  0.00     0.035 C 
ENDBRANCH  24  25
ENDBRANCH   1  24
TORSDOF 4
ENDMDL
MODEL 6
REMARK VINA RESULT:      -7.8      3.008      6.805
REMARK  4 active torsions:
REMARK  status: ('A' for Active; 'I' for Inactive)
REMARK    1  A    between atoms: C2_2  and  O1_3 
REMARK    2  A    between atoms: O1_3  and  S1_4 
REMARK    3  A    between atoms: C7_10  and  N2_11 
REMARK    4  A    between atoms: N2_11  and  C8_12 
ROOT
HETATM    1  S1  UNL     1      26.787   0.299  53.008  1.00  0.00     0.009 SA
HETATM    2  C3  UNL     1      26.648   1.412  51.831  1.00  0.00     0.053 A 
HETATM    3  C4  UNL     1      25.413   1.776  51.604  1.00  0.00     0.003 A 
HETATM    4  C5  UNL     1      25.328   2.750  50.515  1.00  0.00     0.048 C 
HETATM    5  C6  UNL     1      24.186   3.412  50.400  1.00  0.00     0.088 C 
HETATM    6  N1  UNL     1      23.115   2.827  50.766  1.00  0.00    -0.228 NA
HETATM    7  C7  UNL     1      23.089   1.875  51.839  1.00  0.00     0.142 C 
HETATM    8  C15 UNL     1      24.219   1.327  52.289  1.00  0.00     0.058 A 
HETATM    9  C16 UNL     1      24.063   0.387  53.356  1.00  0.00     0.125 A 
HETATM   10  C17 UNL     1      25.193  -0.155  53.773  1.00  0.00     0.160 A 
HETATM   11  O2  UNL     1      25.220  -1.082  54.802  1.00  0.00    -0.338 OA
HETATM   12  C18 UNL     1      24.038  -1.296  55.545  1.00  0.00     0.203 C 
HETATM   13  C19 UNL     1      22.852  -1.260  54.583  1.00  0.00     0.202 C 
HETATM   14  O3  UNL     1      22.853   0.030  53.948  1.00  0.00    -0.345 OA
ENDROOT
BRANCH   7  15
HETATM   15  N2  UNL     1      21.764   1.612  52.304  1.00  0.00    -0.340 N 
HETATM   16  H7  UNL     1      21.295   1.607  53.256  1.00  0.00     0.167 HD
BRANCH  15  17
HETATM   17  C8  UNL     1      20.581   1.251  51.604  1.00  0.00     0.033 A 
HETATM   18  C9  UNL     1      20.067   1.563  50.360  1.00  0.00     0.030 A 
HETATM   19  C10 UNL     1      18.872   1.059  49.915  1.00  0.00     0.009 A 
HETATM   20  C11 UNL     1      18.129   0.207  50.711  1.00  0.00    -0.062 A 
HETATM   21  C12 UNL     1      16.835  -0.314  50.196  1.00  0.00     0.048 C 
HETATM   22  C13 UNL     1      18.628  -0.115  51.957  1.00  0.00     0.009 A 
HETATM   23  C14 UNL     1      19.843   0.389  52.427  1.00  0.00     0.030 A 
ENDBRANCH  15  17
ENDBRANCH   7  15
BRANCH   1  24
HETATM   24  O1  UNL     1      27.978  -0.962  52.997  1.00  0.00    -0.320 OA
BRANCH  24  25
HETATM   25  C2  UNL     1      29.118  -0.653  53.728  1.00  0.00     0.180 C 
HETATM   26  C1  UNL     1      28.720   0.303  54.842  1.00  0.00     0.035 C 
ENDBRANCH  24  25
ENDBRANCH   1  24
TORSDOF 4
ENDMDL
MODEL 7
REMARK VINA RESULT:      -7.4      2.879      5.822
REMARK  4 active torsions:
REMARK  status: ('A' for Active; 'I' for Inactive)
REMARK    1  A    between atoms: C2_2  and  O1_3 
REMARK    2  A    between atoms: O1_3  and  S1_4 
REMARK    3  A    between atoms: C7_10  and  N2_11 
REMARK    4  A    between atoms: N2_11  and  C8_12 
ROOT
HETATM    1  S1  UNL     1      20.535   3.602  50.928  1.00  0.00     0.009 SA
HETATM    2  C3  UNL     1      20.267   2.260  51.807  1.00  0.00     0.053 A 
HETATM    3  C4  UNL     1      21.354   1.759  52.333  1.00  0.00     0.003 A 
HETATM    4  C5  UNL     1      21.076   0.535  53.085  1.00  0.00     0.048 C 
HETATM    5  C6  UNL     1      22.028   0.112  53.903  1.00  0.00     0.088 C 
HETATM    6  N1  UNL     1      23.239   0.365  53.595  1.00  0.00    -0.228 NA
HETATM    7  C7  UNL     1      23.617   1.550  52.882  1.00  0.00     0.142 C 
HETATM    8  C15 UNL     1      22.703   2.277  52.238  1.00  0.00     0.058 A 
HETATM    9  C16 UNL     1      23.204   3.432  51.558  1.00  0.00     0.125 A 
HETATM   10  C17 UNL     1      22.283   4.127  50.914  1.00  0.00     0.160 A 
HETATM   11  O2  UNL     1      22.600   5.275  50.207  1.00  0.00    -0.338 OA
HETATM   12  C18 UNL     1      23.897   5.816  50.347  1.00  0.00     0.203 C 
HETATM   13  C19 UNL     1      24.894   4.660  50.410  1.00  0.00     0.202 C 
HETATM   14  O3  UNL     1      24.536   3.844  51.537  1.00  0.00    -0.345 OA
ENDROOT
BRANCH   7  15
HETATM   15  N2  UNL     1      25.022   1.803  52.948  1.00  0.00    -0.340 N 
HETATM   16  H7  UNL     1      25.623   2.678  52.961  1.00  0.00     0.167 HD
BRANCH  15  17
HETATM   17  C8  UNL     1      26.130   0.915  53.022  1.00  0.00     0.033 A 
HETATM   18  C9  UNL     1      26.377  -0.356  52.543  1.00  0.00     0.030 A 
HETATM   19  C10 UNL     1      27.569  -1.000  52.758  1.00  0.00     0.009 A 
HETATM   20  C11 UNL     1      28.580  -0.386  53.475  1.00  0.00    -0.062 A 
HETATM   21  C12 UNL     1      29.854  -1.119  53.692  1.00  0.00     0.048 C 
HETATM   22  C13 UNL     1      28.348   0.885  53.960  1.00  0.00     0.009 A 
HETATM   23  C14 UNL     1      27.142   1.556  53.751  1.00  0.00     0.030 A 
ENDBRANCH  15  17
ENDBRANCH   7  15
BRANCH   1  24
HETATM   24  O1  UNL     1      19.639   4.004  49.498  1.00  0.00    -0.320 OA
BRANCH  24  25
HETATM   25  C2  UNL     1      19.342   2.905  48.703  1.00  0.00     0.180 C 
HETATM   26  C1  UNL     1      20.644   2.386  48.112  1.00  0.00     0.035 C 
ENDBRANCH  24  25
ENDBRANCH   1  24
TORSDOF 4
ENDMDL
MODEL 8
REMARK VINA RESULT:      -7.2      2.537      5.905
REMARK  4 active torsions:
REMARK  status: ('A' for Active; 'I' for Inactive)
REMARK    1  A    between atoms: C2_2  and  O1_3 
REMARK    2  A    between atoms: O1_3  and  S1_4 
REMARK    3  A    between atoms: C7_10  and  N2_11 
REMARK    4  A    between atoms: N2_11  and  C8_12 
ROOT
HETATM    1  S1  UNL     1      22.067   4.062  48.986  1.00  0.00     0.009 SA
HETATM    2  C3  UNL     1      23.550   4.632  48.640  1.00  0.00     0.053 A 
HETATM    3  C4  UNL     1      24.496   4.089  49.360  1.00  0.00     0.003 A 
HETATM    4  C5  UNL     1      25.808   4.654  49.044  1.00  0.00     0.048 C 
HETATM    5  C6  UNL     1      26.864   3.982  49.479  1.00  0.00     0.088 C 
HETATM    6  N1  UNL     1      26.744   3.309  50.555  1.00  0.00    -0.228 NA
HETATM    7  C7  UNL     1      25.507   2.696  50.942  1.00  0.00     0.142 C 
HETATM    8  C15 UNL     1      24.359   3.056  50.366  1.00  0.00     0.058 A 
HETATM    9  C16 UNL     1      23.193   2.377  50.841  1.00  0.00     0.125 A 
HETATM   10  C17 UNL     1      22.067   2.764  50.269  1.00  0.00     0.160 A 
HETATM   11  O2  UNL     1      20.847   2.205  50.612  1.00  0.00    -0.338 OA
HETATM   12  C18 UNL     1      20.840   1.064  51.445  1.00  0.00     0.203 C 
HETATM   13  C19 UNL     1      21.924   1.238  52.507  1.00  0.00     0.202 C 
HETATM   14  O3  UNL     1      23.178   1.386  51.822  1.00  0.00    -0.345 OA
ENDROOT
BRANCH   7  15
HETATM   15  N2  UNL     1      25.679   1.722  51.974  1.00  0.00    -0.340 N 
HETATM   16  H7  UNL     1      25.020   1.181  52.606  1.00  0.00     0.167 HD
BRANCH  15  17
HETATM   17  C8  UNL     1      26.853   1.131  52.516  1.00  0.00     0.033 A 
HETATM   18  C9  UNL     1      27.975   1.627  53.150  1.00  0.00     0.030 A 
HETATM   19  C10 UNL     1      28.986   0.812  53.592  1.00  0.00     0.009 A 
HETATM   20  C11 UNL     1      28.914  -0.558  53.413  1.00  0.00    -0.062 A 
HETATM   21  C12 UNL     1      30.032  -1.407  53.899  1.00  0.00     0.048 C 
HETATM   22  C13 UNL     1      27.798  -1.069  52.781  1.00  0.00     0.009 A 
HETATM   23  C14 UNL     1      26.759  -0.255  52.324  1.00  0.00     0.030 A 
ENDBRANCH  15  17
ENDBRANCH   7  15
BRANCH   1  24
HETATM   24  O1  UNL     1      20.631   5.034  48.929  1.00  0.00    -0.320 OA
BRANCH  24  25
HETATM   25  C2  UNL     1      20.714   6.094  48.036  1.00  0.00     0.180 C 
HETATM   26  C1  UNL     1      20.475   5.550  46.636  1.00  0.00     0.035 C 
ENDBRANCH  24  25
ENDBRANCH   1  24
TORSDOF 4
ENDMDL
MODEL 9
REMARK VINA RESULT:      -7.0      3.712      7.986
REMARK  4 active torsions:
REMARK  status: ('A' for Active; 'I' for Inactive)
REMARK    1  A    between atoms: C2_2  and  O1_3 
REMARK    2  A    between atoms: O1_3  and  S1_4 
REMARK    3  A    between atoms: C7_10  and  N2_11 
REMARK    4  A    between atoms: N2_11  and  C8_12 
ROOT
HETATM    1  S1  UNL     1      26.340   9.345  48.418  1.00  0.00     0.009 SA
HETATM    2  C3  UNL     1      27.713   8.501  48.201  1.00  0.00     0.053 A 
HETATM    3  C4  UNL     1      27.577   7.220  48.430  1.00  0.00     0.003 A 
HETATM    4  C5  UNL     1      28.841   6.504  48.258  1.00  0.00     0.048 C 
HETATM    5  C6  UNL     1      28.767   5.184  48.164  1.00  0.00     0.088 C 
HETATM    6  N1  UNL     1      27.819   4.592  48.777  1.00  0.00    -0.228 NA
HETATM    7  C7  UNL     1      26.536   5.200  48.975  1.00  0.00     0.142 C 
HETATM    8  C15 UNL     1      26.372   6.513  48.809  1.00  0.00     0.058 A 
HETATM    9  C16 UNL     1      25.047   7.002  49.041  1.00  0.00     0.125 A 
HETATM   10  C17 UNL     1      24.914   8.307  48.888  1.00  0.00     0.160 A 
HETATM   11  O2  UNL     1      23.696   8.940  49.072  1.00  0.00    -0.338 OA
HETATM   12  C18 UNL     1      22.540   8.144  49.232  1.00  0.00     0.203 C 
HETATM   13  C19 UNL     1      22.907   6.933  50.088  1.00  0.00     0.202 C 
HETATM   14  O3  UNL     1      23.950   6.221  49.402  1.00  0.00    -0.345 OA
ENDROOT
BRANCH   7  15
HETATM   15  N2  UNL     1      25.537   4.255  49.365  1.00  0.00    -0.340 N 
HETATM   16  H7  UNL     1      24.527   4.080  49.090  1.00  0.00     0.167 HD
BRANCH  15  17
HETATM   17  C8  UNL     1      25.578   3.182  50.298  1.00  0.00     0.033 A 
HETATM   18  C9  UNL     1      26.596   2.498  50.932  1.00  0.00     0.030 A 
HETATM   19  C10 UNL     1      26.352   1.479  51.817  1.00  0.00     0.009 A 
HETATM   20  C11 UNL     1      25.055   1.097  52.108  1.00  0.00    -0.062 A 
HETATM   21  C12 UNL     1      24.831  -0.016  53.067  1.00  0.00     0.048 C 
HETATM   22  C13 UNL     1      24.026   1.771  51.482  1.00  0.00     0.009 A 
HETATM   23  C14 UNL     1      24.255   2.811  50.578  1.00  0.00     0.030 A 
ENDBRANCH  15  17
ENDBRANCH   7  15
BRANCH   1  24
HETATM   24  O1  UNL     1      26.300  10.965  49.036  1.00  0.00    -0.320 OA
BRANCH  24  25
HETATM   25  C2  UNL     1      26.738  11.916  48.125  1.00  0.00     0.180 C 
HETATM   26  C1  UNL     1      25.610  12.912  47.904  1.00  0.00     0.035 C 
ENDBRANCH  24  25
ENDBRANCH   1  24
TORSDOF 4
ENDMDL
