MODEL 1
REMARK VINA RESULT:      -8.7      0.000      0.000
REMARK  2 active torsions:
REMARK  status: ('A' for Active; 'I' for Inactive)
REMARK    1  A    between atoms: C7_9  and  N3_10 
REMARK    2  A    between atoms: S1_24  and  N4_25 
ROOT
HETATM    1  C1  UNL     1      26.244   7.345  48.055  1.00  0.00     0.073 C 
HETATM    2  C2  UNL     1      27.651   7.715  48.425  1.00  0.00     0.062 A 
HETATM    3  C3  UNL     1      28.573   6.777  48.398  1.00  0.00     0.088 A 
HETATM    4  N1  UNL     1      29.120   5.441  48.204  1.00  0.00    -0.346 N 
HETATM    5  C4  UNL     1      30.514   5.739  47.796  1.00  0.00     0.335 C 
HETATM    6  N2  UNL     1      31.444   4.697  48.059  1.00  0.00    -0.254 NA
HETATM    7  C5  UNL     1      32.673   5.005  48.160  1.00  0.00     0.123 C 
HETATM    8  C6  UNL     1      33.840   5.837  48.173  1.00  0.00    -0.026 C 
HETATM    9  C7  UNL     1      34.881   5.021  48.472  1.00  0.00     0.088 C 
HETATM   10  C8  UNL     1      34.296   7.216  47.982  1.00  0.00     0.041 C 
HETATM   11  C9  UNL     1      34.140   7.761  46.571  1.00  0.00     0.007 C 
HETATM   12  C10 UNL     1      34.831   9.115  46.458  1.00  0.00     0.027 C 
HETATM   13  C11 UNL     1      34.750   9.723  45.083  1.00  0.00     0.168 C 
HETATM   14  O1  UNL     1      33.507  10.094  44.677  1.00  0.00    -0.385 OA
HETATM   15  C12 UNL     1      33.454  10.612  43.406  1.00  0.00     0.127 C 
HETATM   16  C13 UNL     1      32.419  10.052  42.498  1.00  0.00     0.040 C 
HETATM   17  C14 UNL     1      33.253  12.167  43.441  1.00  0.00     0.114 C 
HETATM   18  C15 UNL     1      32.188  12.423  44.295  1.00  0.00    -0.134 C 
HETATM   19  C16 UNL     1      31.302  12.618  45.022  1.00  0.00     0.281 A 
HETATM   20  C17 UNL     1      30.165  12.845  45.952  1.00  0.00     0.272 A 
HETATM   21  C18 UNL     1      30.279  11.960  47.178  1.00  0.00     0.453 A 
HETATM   22  C19 UNL     1      30.743  10.876  48.400  1.00  0.00     0.161 A 
HETATM   23  S1  UNL     1      29.796  11.787  47.851  1.00  0.00    -0.035 SA
HETATM   24  N4  UNL     1      31.224  12.006  46.284  1.00  0.00     0.025 N 
HETATM   25  N5  UNL     1      29.834  10.296  49.388  1.00  0.00    -0.349 N 
HETATM   26  C20 UNL     1      29.401   8.956  49.025  1.00  0.00     0.156 A 
HETATM   27  N6  UNL     1      28.144   8.999  48.792  1.00  0.00    -0.232 NA
HETATM   28  C21 UNL     1      29.773   7.553  48.794  1.00  0.00     0.129 A 
HETATM   29  N7  UNL     1      30.840   6.811  48.804  1.00  0.00    -0.237 NA
HETATM   30  H4  UNL     1      28.459   4.637  48.394  1.00  0.00     0.163 HD
HETATM   31  H25 UNL     1      29.524  10.771  50.266  1.00  0.00     0.163 HD
ENDROOT
BRANCH   9  32
HETATM   32  N3  UNL     1      34.967   3.631  48.742  1.00  0.00    -0.407 N 
HETATM   33  H8  UNL     1      34.467   3.131  49.495  1.00  0.00     0.155 HD
HETATM   34  H9  UNL     1      35.527   2.945  48.223  1.00  0.00     0.155 HD
ENDBRANCH   9  32
TORSDOF 2
ENDMDL
MODEL 2
REMARK VINA RESULT:      -8.1      9.515     13.878
REMARK  2 active torsions:
REMARK  status: ('A' for Active; 'I' for Inactive)
REMARK    1  A    between atoms: C7_9  and  N3_10 
REMARK    2  A    between atoms: S1_24  and  N4_25 
ROOT
HETATM    1  C1  UNL     1      24.276   6.976  49.256  1.00  0.00     0.073 C 
HETATM    2  C2  UNL     1      23.818   5.547  49.216  1.00  0.00     0.062 A 
HETATM    3  C3  UNL     1      24.043   4.788  50.268  1.00  0.00     0.088 A 
HETATM    4  N1  UNL     1      24.523   4.454  51.602  1.00  0.00    -0.346 N 
HETATM    5  C4  UNL     1      23.560   3.407  52.019  1.00  0.00     0.335 C 
HETATM    6  N2  UNL     1      24.052   2.509  53.004  1.00  0.00    -0.254 NA
HETATM    7  C5  UNL     1      23.503   1.366  53.097  1.00  0.00     0.123 C 
HETATM    8  C6  UNL     1      22.595   0.297  52.801  1.00  0.00    -0.026 C 
HETATM    9  C7  UNL     1      22.936  -0.726  53.622  1.00  0.00     0.088 C 
HETATM   10  C8  UNL     1      21.460  -0.072  51.950  1.00  0.00     0.041 C 
HETATM   11  C9  UNL     1      20.180   0.710  52.202  1.00  0.00     0.007 C 
HETATM   12  C10 UNL     1      19.033   0.097  51.406  1.00  0.00     0.027 C 
HETATM   13  C11 UNL     1      17.714   0.793  51.612  1.00  0.00     0.168 C 
HETATM   14  O1  UNL     1      17.639   2.064  51.135  1.00  0.00    -0.385 OA
HETATM   15  C12 UNL     1      16.438   2.690  51.367  1.00  0.00     0.127 C 
HETATM   16  C13 UNL     1      16.497   4.053  51.956  1.00  0.00     0.040 C 
HETATM   17  C14 UNL     1      15.590   2.784  50.051  1.00  0.00     0.114 C 
HETATM   18  C15 UNL     1      16.418   3.307  49.068  1.00  0.00    -0.134 C 
HETATM   19  C16 UNL     1      17.130   3.735  48.254  1.00  0.00     0.281 A 
HETATM   20  C17 UNL     1      18.055   4.287  47.230  1.00  0.00     0.272 A 
HETATM   21  C18 UNL     1      19.425   3.644  47.331  1.00  0.00     0.453 A 
HETATM   22  C19 UNL     1      20.789   2.704  47.703  1.00  0.00     0.161 A 
HETATM   23  S1  UNL     1      20.179   3.759  46.965  1.00  0.00    -0.035 SA
HETATM   24  N4  UNL     1      18.427   3.233  48.058  1.00  0.00     0.025 N 
HETATM   25  N5  UNL     1      22.166   3.061  47.361  1.00  0.00    -0.349 N 
HETATM   26  C20 UNL     1      22.874   3.670  48.476  1.00  0.00     0.156 A 
HETATM   27  N6  UNL     1      23.126   4.885  48.164  1.00  0.00    -0.232 NA
HETATM   28  C21 UNL     1      23.430   3.512  49.827  1.00  0.00     0.129 A 
HETATM   29  N7  UNL     1      23.511   2.599  50.749  1.00  0.00    -0.237 NA
HETATM   30  H4  UNL     1      25.380   4.980  51.931  1.00  0.00     0.163 HD
HETATM   31  H25 UNL     1      22.611   2.899  46.430  1.00  0.00     0.163 HD
ENDROOT
BRANCH   9  32
HETATM   32  N3  UNL     1      23.941  -0.870  54.612  1.00  0.00    -0.407 N 
HETATM   33  H8  UNL     1      24.203  -0.159  55.313  1.00  0.00     0.155 HD
HETATM   34  H9  UNL     1      24.531  -1.698  54.764  1.00  0.00     0.155 HD
ENDBRANCH   9  32
TORSDOF 2
ENDMDL
MODEL 3
REMARK VINA RESULT:      -7.5     23.366     26.688
REMARK  2 active torsions:
REMARK  status: ('A' for Active; 'I' for Inactive)
REMARK    1  A    between atoms: C7_9  and  N3_10 
REMARK    2  A    between atoms: S1_24  and  N4_25 
ROOT
HETATM    1  C1  UNL     1      44.331   5.041  64.142  1.00  0.00     0.073 C 
HETATM    2  C2  UNL     1      44.673   4.800  65.583  1.00  0.00     0.062 A 
HETATM    3  C3  UNL     1      44.993   5.834  66.332  1.00  0.00     0.088 A 
HETATM    4  N1  UNL     1      45.245   7.233  66.647  1.00  0.00    -0.346 N 
HETATM    5  C4  UNL     1      44.868   7.297  68.079  1.00  0.00     0.335 C 
HETATM    6  N2  UNL     1      45.495   8.340  68.812  1.00  0.00    -0.254 NA
HETATM    7  C5  UNL     1      45.586   8.213  70.074  1.00  0.00     0.123 C 
HETATM    8  C6  UNL     1      45.434   7.610  71.365  1.00  0.00    -0.026 C 
HETATM    9  C7  UNL     1      46.036   8.447  72.245  1.00  0.00     0.088 C 
HETATM   10  C8  UNL     1      44.873   6.445  72.054  1.00  0.00     0.041 C 
HETATM   11  C9  UNL     1      43.356   6.340  72.021  1.00  0.00     0.007 C 
HETATM   12  C10 UNL     1      42.894   5.212  72.936  1.00  0.00     0.027 C 
HETATM   13  C11 UNL     1      41.397   5.049  72.987  1.00  0.00     0.168 C 
HETATM   14  O1  UNL     1      40.812   4.631  71.834  1.00  0.00    -0.385 OA
HETATM   15  C12 UNL     1      39.444   4.524  71.895  1.00  0.00     0.127 C 
HETATM   16  C13 UNL     1      38.673   5.166  70.799  1.00  0.00     0.040 C 
HETATM   17  C14 UNL     1      39.000   3.021  71.962  1.00  0.00     0.114 C 
HETATM   18  C15 UNL     1      39.661   2.354  70.940  1.00  0.00    -0.134 C 
HETATM   19  C16 UNL     1      40.231   1.809  70.086  1.00  0.00     0.281 A 
HETATM   20  C17 UNL     1      40.968   1.133  68.985  1.00  0.00     0.272 A 
HETATM   21  C18 UNL     1      42.407   1.607  68.922  1.00  0.00     0.453 A 
HETATM   22  C19 UNL     1      43.927   2.324  69.170  1.00  0.00     0.161 A 
HETATM   23  S1  UNL     1      43.064   1.488  68.403  1.00  0.00    -0.035 SA
HETATM   24  N4  UNL     1      41.609   1.985  69.879  1.00  0.00     0.025 N 
HETATM   25  N5  UNL     1      44.975   2.424  68.155  1.00  0.00    -0.349 N 
HETATM   26  C20 UNL     1      44.999   3.726  67.508  1.00  0.00     0.156 A 
HETATM   27  N6  UNL     1      44.675   3.560  66.281  1.00  0.00    -0.232 NA
HETATM   28  C21 UNL     1      45.223   5.172  67.639  1.00  0.00     0.129 A 
HETATM   29  N7  UNL     1      45.530   6.033  68.563  1.00  0.00    -0.237 NA
HETATM   30  H4  UNL     1      45.619   7.827  65.855  1.00  0.00     0.163 HD
HETATM   31  H25 UNL     1      45.647   1.661  67.913  1.00  0.00     0.163 HD
ENDROOT
BRANCH   9  32
HETATM   32  N3  UNL     1      46.713   9.683  72.087  1.00  0.00    -0.407 N 
HETATM   33  H8  UNL     1      47.271  10.162  72.812  1.00  0.00     0.155 HD
HETATM   34  H9  UNL     1      46.743  10.256  71.235  1.00  0.00     0.155 HD
ENDBRANCH   9  32
TORSDOF 2
ENDMDL
MODEL 4
REMARK VINA RESULT:      -7.4      5.543      9.887
REMARK  2 active torsions:
REMARK  status: ('A' for Active; 'I' for Inactive)
REMARK    1  A    between atoms: C7_9  and  N3_10 
REMARK    2  A    between atoms: S1_24  and  N4_25 
ROOT
HETATM    1  C1  UNL     1      22.483  10.965  47.721  1.00  0.00     0.073 C 
HETATM    2  C2  UNL     1      23.135   9.647  47.421  1.00  0.00     0.062 A 
HETATM    3  C3  UNL     1      24.431   9.530  47.617  1.00  0.00     0.088 A 
HETATM    4  N1  UNL     1      25.773   9.953  47.991  1.00  0.00    -0.346 N 
HETATM    5  C4  UNL     1      26.371   8.684  48.469  1.00  0.00     0.335 C 
HETATM    6  N2  UNL     1      27.789   8.630  48.388  1.00  0.00    -0.254 NA
HETATM    7  C5  UNL     1      28.341   7.485  48.348  1.00  0.00     0.123 C 
HETATM    8  C6  UNL     1      28.442   6.055  48.335  1.00  0.00    -0.026 C 
HETATM    9  C7  UNL     1      29.761   5.772  48.203  1.00  0.00     0.088 C 
HETATM   10  C8  UNL     1      27.649   4.826  48.414  1.00  0.00     0.041 C 
HETATM   11  C9  UNL     1      26.951   4.588  49.744  1.00  0.00     0.007 C 
HETATM   12  C10 UNL     1      26.336   3.194  49.765  1.00  0.00     0.027 C 
HETATM   13  C11 UNL     1      25.641   2.858  51.059  1.00  0.00     0.168 C 
HETATM   14  O1  UNL     1      24.522   3.580  51.329  1.00  0.00    -0.385 OA
HETATM   15  C12 UNL     1      23.927   3.281  52.530  1.00  0.00     0.127 C 
HETATM   16  C13 UNL     1      23.586   4.428  53.412  1.00  0.00     0.040 C 
HETATM   17  C14 UNL     1      22.615   2.449  52.316  1.00  0.00     0.114 C 
HETATM   18  C15 UNL     1      21.859   3.117  51.362  1.00  0.00    -0.134 C 
HETATM   19  C16 UNL     1      21.244   3.684  50.554  1.00  0.00     0.281 A 
HETATM   20  C17 UNL     1      20.474   4.427  49.522  1.00  0.00     0.272 A 
HETATM   21  C18 UNL     1      21.381   4.911  48.408  1.00  0.00     0.453 A 
HETATM   22  C19 UNL     1      22.662   5.251  47.346  1.00  0.00     0.161 A 
HETATM   23  S1  UNL     1      21.296   5.399  47.723  1.00  0.00    -0.035 SA
HETATM   24  N4  UNL     1      21.826   4.144  49.361  1.00  0.00     0.025 N 
HETATM   25  N5  UNL     1      22.661   6.331  46.359  1.00  0.00    -0.349 N 
HETATM   26  C20 UNL     1      23.367   7.512  46.828  1.00  0.00     0.156 A 
HETATM   27  N6  UNL     1      22.511   8.454  46.959  1.00  0.00    -0.232 NA
HETATM   28  C21 UNL     1      24.644   8.114  47.233  1.00  0.00     0.129 A 
HETATM   29  N7  UNL     1      25.887   7.761  47.381  1.00  0.00    -0.237 NA
HETATM   30  H4  UNL     1      25.996  10.976  47.837  1.00  0.00     0.163 HD
HETATM   31  H25 UNL     1      22.215   6.276  45.415  1.00  0.00     0.163 HD
ENDROOT
BRANCH   9  32
HETATM   32  N3  UNL     1      30.914   6.590  48.089  1.00  0.00    -0.407 N 
HETATM   33  H8  UNL     1      31.699   6.622  48.758  1.00  0.00     0.155 HD
HETATM   34  H9  UNL     1      31.120   7.248  47.326  1.00  0.00     0.155 HD
ENDBRANCH   9  32
TORSDOF 2
ENDMDL
MODEL 5
REMARK VINA RESULT:      -7.4      6.160     10.729
REMARK  2 active torsions:
REMARK  status: ('A' for Active; 'I' for Inactive)
REMARK    1  A    between atoms: C7_9  and  N3_10 
REMARK    2  A    between atoms: S1_24  and  N4_25 
ROOT
HETATM    1  C1  UNL     1      19.561   8.801  48.561  1.00  0.00     0.073 C 
HETATM    2  C2  UNL     1      20.706   7.963  48.071  1.00  0.00     0.062 A 
HETATM    3  C3  UNL     1      21.924   8.452  48.164  1.00  0.00     0.088 A 
HETATM    4  N1  UNL     1      22.956   9.426  48.492  1.00  0.00    -0.346 N 
HETATM    5  C4  UNL     1      24.119   8.553  48.782  1.00  0.00     0.335 C 
HETATM    6  N2  UNL     1      25.385   9.173  48.600  1.00  0.00    -0.254 NA
HETATM    7  C5  UNL     1      26.391   8.424  48.394  1.00  0.00     0.123 C 
HETATM    8  C6  UNL     1      27.134   7.211  48.214  1.00  0.00    -0.026 C 
HETATM    9  C7  UNL     1      28.412   7.586  47.961  1.00  0.00     0.088 C 
HETATM   10  C8  UNL     1      27.006   5.751  48.208  1.00  0.00     0.041 C 
HETATM   11  C9  UNL     1      26.649   5.125  49.547  1.00  0.00     0.007 C 
HETATM   12  C10 UNL     1      26.748   3.608  49.453  1.00  0.00     0.027 C 
HETATM   13  C11 UNL     1      26.435   2.899  50.745  1.00  0.00     0.168 C 
HETATM   14  O1  UNL     1      25.147   2.995  51.169  1.00  0.00    -0.385 OA
HETATM   15  C12 UNL     1      24.894   2.372  52.367  1.00  0.00     0.127 C 
HETATM   16  C13 UNL     1      24.168   3.164  53.393  1.00  0.00     0.040 C 
HETATM   17  C14 UNL     1      24.094   1.040  52.150  1.00  0.00     0.114 C 
HETATM   18  C15 UNL     1      23.014   1.341  51.331  1.00  0.00    -0.134 C 
HETATM   19  C16 UNL     1      22.122   1.609  50.635  1.00  0.00     0.281 A 
HETATM   20  C17 UNL     1      20.987   1.975  49.748  1.00  0.00     0.272 A 
HETATM   21  C18 UNL     1      21.440   2.901  48.637  1.00  0.00     0.453 A 
HETATM   22  C19 UNL     1      22.294   3.871  47.535  1.00  0.00     0.161 A 
HETATM   23  S1  UNL     1      21.064   3.339  48.019  1.00  0.00    -0.035 SA
HETATM   24  N4  UNL     1      22.291   2.368  49.465  1.00  0.00     0.025 N 
HETATM   25  N5  UNL     1      21.688   4.890  46.678  1.00  0.00    -0.349 N 
HETATM   26  C20 UNL     1      21.822   6.229  47.227  1.00  0.00     0.156 A 
HETATM   27  N6  UNL     1      20.650   6.652  47.521  1.00  0.00    -0.232 NA
HETATM   28  C21 UNL     1      22.718   7.329  47.610  1.00  0.00     0.129 A 
HETATM   29  N7  UNL     1      23.992   7.587  47.633  1.00  0.00    -0.237 NA
HETATM   30  H4  UNL     1      22.667  10.443  48.439  1.00  0.00     0.163 HD
HETATM   31  H25 UNL     1      21.214   4.698  45.766  1.00  0.00     0.163 HD
ENDROOT
BRANCH   9  32
HETATM   32  N3  UNL     1      29.041   8.853  47.862  1.00  0.00    -0.407 N 
HETATM   33  H8  UNL     1      28.556   9.764  47.811  1.00  0.00     0.155 HD
HETATM   34  H9  UNL     1      30.052   9.030  47.835  1.00  0.00     0.155 HD
ENDBRANCH   9  32
TORSDOF 2
ENDMDL
MODEL 6
REMARK VINA RESULT:      -7.3      6.806     11.236
REMARK  2 active torsions:
REMARK  status: ('A' for Active; 'I' for Inactive)
REMARK    1  A    between atoms: C7_9  and  N3_10 
REMARK    2  A    between atoms: S1_24  and  N4_25 
ROOT
HETATM    1  C1  UNL     1      25.168   8.428  43.519  1.00  0.00     0.073 C 
HETATM    2  C2  UNL     1      24.868   8.609  44.979  1.00  0.00     0.062 A 
HETATM    3  C3  UNL     1      23.631   8.887  45.334  1.00  0.00     0.088 A 
HETATM    4  N1  UNL     1      22.213   9.158  45.149  1.00  0.00    -0.346 N 
HETATM    5  C4  UNL     1      21.634   8.636  46.409  1.00  0.00     0.335 C 
HETATM    6  N2  UNL     1      20.394   9.222  46.780  1.00  0.00    -0.254 NA
HETATM    7  C5  UNL     1      20.055   9.176  48.005  1.00  0.00     0.123 C 
HETATM    8  C6  UNL     1      20.147   8.867  49.401  1.00  0.00    -0.026 C 
HETATM    9  C7  UNL     1      19.046   9.405  49.980  1.00  0.00     0.088 C 
HETATM   10  C8  UNL     1      20.985   8.193  50.397  1.00  0.00     0.041 C 
HETATM   11  C9  UNL     1      21.098   6.685  50.236  1.00  0.00     0.007 C 
HETATM   12  C10 UNL     1      21.819   6.088  51.439  1.00  0.00     0.027 C 
HETATM   13  C11 UNL     1      21.956   4.589  51.380  1.00  0.00     0.168 C 
HETATM   14  O1  UNL     1      22.766   4.112  50.398  1.00  0.00    -0.385 OA
HETATM   15  C12 UNL     1      22.847   2.742  50.341  1.00  0.00     0.127 C 
HETATM   16  C13 UNL     1      22.649   2.115  49.009  1.00  0.00     0.040 C 
HETATM   17  C14 UNL     1      24.223   2.237  50.897  1.00  0.00     0.114 C 
HETATM   18  C15 UNL     1      25.215   2.975  50.265  1.00  0.00    -0.134 C 
HETATM   19  C16 UNL     1      26.031   3.610  49.734  1.00  0.00     0.281 A 
HETATM   20  C17 UNL     1      27.058   4.432  49.041  1.00  0.00     0.272 A 
HETATM   21  C18 UNL     1      26.636   5.887  48.972  1.00  0.00     0.453 A 
HETATM   22  C19 UNL     1      25.875   7.398  49.111  1.00  0.00     0.161 A 
HETATM   23  S1  UNL     1      26.934   6.590  48.607  1.00  0.00    -0.035 SA
HETATM   24  N4  UNL     1      25.939   5.008  49.632  1.00  0.00     0.025 N 
HETATM   25  N5  UNL     1      26.146   8.550  48.252  1.00  0.00    -0.349 N 
HETATM   26  C20 UNL     1      25.169   8.690  47.185  1.00  0.00     0.156 A 
HETATM   27  N6  UNL     1      25.770   8.491  46.073  1.00  0.00    -0.232 NA
HETATM   28  C21 UNL     1      23.773   8.955  46.808  1.00  0.00     0.129 A 
HETATM   29  N7  UNL     1      22.634   9.196  47.387  1.00  0.00    -0.237 NA
HETATM   30  H4  UNL     1      21.946   9.635  44.242  1.00  0.00     0.163 HD
HETATM   31  H25 UNL     1      26.944   9.214  48.378  1.00  0.00     0.163 HD
ENDROOT
BRANCH   9  32
HETATM   32  N3  UNL     1      17.950  10.141  49.463  1.00  0.00    -0.407 N 
HETATM   33  H8  UNL     1      17.964  11.141  49.204  1.00  0.00     0.155 HD
HETATM   34  H9  UNL     1      17.008   9.777  49.272  1.00  0.00     0.155 HD
ENDBRANCH   9  32
TORSDOF 2
ENDMDL
MODEL 7
REMARK VINA RESULT:      -7.2      3.331      6.167
REMARK  2 active torsions:
REMARK  status: ('A' for Active; 'I' for Inactive)
REMARK    1  A    between atoms: C7_9  and  N3_10 
REMARK    2  A    between atoms: S1_24  and  N4_25 
ROOT
HETATM    1  C1  UNL     1      34.791   3.113  48.195  1.00  0.00     0.073 C 
HETATM    2  C2  UNL     1      33.914   4.056  47.423  1.00  0.00     0.062 A 
HETATM    3  C3  UNL     1      33.381   5.078  48.058  1.00  0.00     0.088 A 
HETATM    4  N1  UNL     1      33.091   5.950  49.187  1.00  0.00    -0.346 N 
HETATM    5  C4  UNL     1      32.897   7.260  48.520  1.00  0.00     0.335 C 
HETATM    6  N2  UNL     1      32.086   8.177  49.240  1.00  0.00    -0.254 NA
HETATM    7  C5  UNL     1      31.515   9.108  48.589  1.00  0.00     0.123 C 
HETATM    8  C6  UNL     1      31.136   9.903  47.457  1.00  0.00    -0.026 C 
HETATM    9  C7  UNL     1      30.282  10.845  47.927  1.00  0.00     0.088 C 
HETATM   10  C8  UNL     1      31.339  10.055  46.014  1.00  0.00     0.041 C 
HETATM   11  C9  UNL     1      32.747  10.447  45.595  1.00  0.00     0.007 C 
HETATM   12  C10 UNL     1      32.774  10.771  44.106  1.00  0.00     0.027 C 
HETATM   13  C11 UNL     1      34.129  11.195  43.603  1.00  0.00     0.168 C 
HETATM   14  O1  UNL     1      35.090  10.234  43.622  1.00  0.00    -0.385 OA
HETATM   15  C12 UNL     1      36.325  10.655  43.193  1.00  0.00     0.127 C 
HETATM   16  C13 UNL     1      37.484  10.325  44.063  1.00  0.00     0.040 C 
HETATM   17  C14 UNL     1      36.642  10.101  41.760  1.00  0.00     0.114 C 
HETATM   18  C15 UNL     1      36.391   8.735  41.786  1.00  0.00    -0.134 C 
HETATM   19  C16 UNL     1      36.165   7.595  41.823  1.00  0.00     0.281 A 
HETATM   20  C17 UNL     1      35.874   6.139  41.894  1.00  0.00     0.272 A 
HETATM   21  C18 UNL     1      34.590   5.877  42.658  1.00  0.00     0.453 A 
HETATM   22  C19 UNL     1      33.125   5.963  43.512  1.00  0.00     0.161 A 
HETATM   23  S1  UNL     1      34.176   5.194  42.934  1.00  0.00    -0.035 SA
HETATM   24  N4  UNL     1      34.980   7.088  42.379  1.00  0.00     0.025 N 
HETATM   25  N5  UNL     1      32.548   4.866  44.288  1.00  0.00    -0.349 N 
HETATM   26  C20 UNL     1      32.832   4.981  45.709  1.00  0.00     0.156 A 
HETATM   27  N6  UNL     1      33.591   4.004  46.038  1.00  0.00    -0.232 NA
HETATM   28  C21 UNL     1      32.640   5.736  46.955  1.00  0.00     0.129 A 
HETATM   29  N7  UNL     1      32.043   6.818  47.359  1.00  0.00    -0.237 NA
HETATM   30  H4  UNL     1      33.075   5.487  50.139  1.00  0.00     0.163 HD
HETATM   31  H25 UNL     1      31.985   4.082  43.886  1.00  0.00     0.163 HD
ENDROOT
BRANCH   9  32
HETATM   32  N3  UNL     1      29.773  11.121  49.222  1.00  0.00    -0.407 N 
HETATM   33  H8  UNL     1      30.336  11.224  50.082  1.00  0.00     0.155 HD
HETATM   34  H9  UNL     1      28.786  11.262  49.470  1.00  0.00     0.155 HD
ENDBRANCH   9  32
TORSDOF 2
ENDMDL
MODEL 8
REMARK VINA RESULT:      -7.0      3.021      5.562
REMARK  2 active torsions:
REMARK  status: ('A' for Active; 'I' for Inactive)
REMARK    1  A    between atoms: C7_9  and  N3_10 
REMARK    2  A    between atoms: S1_24  and  N4_25 
ROOT
HETATM    1  C1  UNL     1      31.918   3.122  46.512  1.00  0.00     0.073 C 
HETATM    2  C2  UNL     1      32.580   4.469  46.509  1.00  0.00     0.062 A 
HETATM    3  C3  UNL     1      33.047   4.934  45.369  1.00  0.00     0.088 A 
HETATM    4  N1  UNL     1      33.345   4.935  43.944  1.00  0.00    -0.346 N 
HETATM    5  C4  UNL     1      33.300   6.382  43.624  1.00  0.00     0.335 C 
HETATM    6  N2  UNL     1      34.062   6.761  42.486  1.00  0.00    -0.254 NA
HETATM    7  C5  UNL     1      34.438   7.972  42.396  1.00  0.00     0.123 C 
HETATM    8  C6  UNL     1      34.590   9.350  42.762  1.00  0.00    -0.026 C 
HETATM    9  C7  UNL     1      35.364   9.912  41.801  1.00  0.00     0.088 C 
HETATM   10  C8  UNL     1      34.214  10.339  43.775  1.00  0.00     0.041 C 
HETATM   11  C9  UNL     1      32.731  10.668  43.843  1.00  0.00     0.007 C 
HETATM   12  C10 UNL     1      32.502  11.845  44.784  1.00  0.00     0.027 C 
HETATM   13  C11 UNL     1      31.058  12.259  44.896  1.00  0.00     0.168 C 
HETATM   14  O1  UNL     1      30.234  11.358  45.491  1.00  0.00    -0.385 OA
HETATM   15  C12 UNL     1      28.916  11.743  45.549  1.00  0.00     0.127 C 
HETATM   16  C13 UNL     1      27.909  10.753  45.086  1.00  0.00     0.040 C 
HETATM   17  C14 UNL     1      28.519  12.169  47.005  1.00  0.00     0.114 C 
HETATM   18  C15 UNL     1      28.940  11.157  47.857  1.00  0.00    -0.134 C 
HETATM   19  C16 UNL     1      29.310  10.305  48.556  1.00  0.00     0.281 A 
HETATM   20  C17 UNL     1      29.788   9.203  49.431  1.00  0.00     0.272 A 
HETATM   21  C18 UNL     1      31.169   8.736  49.014  1.00  0.00     0.453 A 
HETATM   22  C19 UNL     1      32.696   8.507  48.306  1.00  0.00     0.161 A 
HETATM   23  S1  UNL     1      31.694   8.112  49.239  1.00  0.00    -0.035 SA
HETATM   24  N4  UNL     1      30.603   9.766  48.455  1.00  0.00     0.025 N 
HETATM   25  N5  UNL     1      33.487   7.281  48.411  1.00  0.00    -0.349 N 
HETATM   26  C20 UNL     1      33.346   6.428  47.242  1.00  0.00     0.156 A 
HETATM   27  N6  UNL     1      32.756   5.354  47.609  1.00  0.00    -0.232 NA
HETATM   28  C21 UNL     1      33.575   6.250  45.801  1.00  0.00     0.129 A 
HETATM   29  N7  UNL     1      34.072   6.917  44.802  1.00  0.00    -0.237 NA
HETATM   30  H4  UNL     1      33.522   3.988  43.507  1.00  0.00     0.163 HD
HETATM   31  H25 UNL     1      34.097   7.031  49.222  1.00  0.00     0.163 HD
ENDROOT
BRANCH   9  32
HETATM   32  N3  UNL     1      35.971   9.392  40.630  1.00  0.00    -0.407 N 
HETATM   33  H8  UNL     1      36.121   9.910  39.748  1.00  0.00     0.155 HD
HETATM   34  H9  UNL     1      36.345   8.443  40.508  1.00  0.00     0.155 HD
ENDBRANCH   9  32
TORSDOF 2
ENDMDL
MODEL 9
REMARK VINA RESULT:      -6.9      4.026      7.631
REMARK  2 active torsions:
REMARK  status: ('A' for Active; 'I' for Inactive)
REMARK    1  A    between atoms: C7_9  and  N3_10 
REMARK    2  A    between atoms: S1_24  and  N4_25 
ROOT
HETATM    1  C1  UNL     1      32.990   3.669  40.707  1.00  0.00     0.073 C 
HETATM    2  C2  UNL     1      33.558   4.630  41.711  1.00  0.00     0.062 A 
HETATM    3  C3  UNL     1      33.716   5.887  41.355  1.00  0.00     0.088 A 
HETATM    4  N1  UNL     1      33.669   7.047  40.476  1.00  0.00    -0.346 N 
HETATM    5  C4  UNL     1      33.471   8.154  41.441  1.00  0.00     0.335 C 
HETATM    6  N2  UNL     1      33.921   9.423  40.988  1.00  0.00    -0.254 NA
HETATM    7  C5  UNL     1      34.199  10.305  41.861  1.00  0.00     0.123 C 
HETATM    8  C6  UNL     1      34.357  10.888  43.161  1.00  0.00    -0.026 C 
HETATM    9  C7  UNL     1      34.851  12.134  42.957  1.00  0.00     0.088 C 
HETATM   10  C8  UNL     1      34.178  10.624  44.591  1.00  0.00     0.041 C 
HETATM   11  C9  UNL     1      32.737  10.442  45.042  1.00  0.00     0.007 C 
HETATM   12  C10 UNL     1      32.674  10.380  46.563  1.00  0.00     0.027 C 
HETATM   13  C11 UNL     1      31.277  10.225  47.105  1.00  0.00     0.168 C 
HETATM   14  O1  UNL     1      30.666   9.044  46.826  1.00  0.00    -0.385 OA
HETATM   15  C12 UNL     1      29.381   8.941  47.300  1.00  0.00     0.127 C 
HETATM   16  C13 UNL     1      28.348   8.477  46.336  1.00  0.00     0.040 C 
HETATM   17  C14 UNL     1      29.316   7.993  48.548  1.00  0.00     0.114 C 
HETATM   18  C15 UNL     1      29.981   6.823  48.207  1.00  0.00    -0.134 C 
HETATM   19  C16 UNL     1      30.552   5.855  47.909  1.00  0.00     0.281 A 
HETATM   20  C17 UNL     1      31.282   4.625  47.505  1.00  0.00     0.272 A 
HETATM   21  C18 UNL     1      32.549   4.968  46.746  1.00  0.00     0.453 A 
HETATM   22  C19 UNL     1      33.875   5.709  45.988  1.00  0.00     0.161 A 
HETATM   23  S1  UNL     1      33.145   4.535  46.330  1.00  0.00    -0.035 SA
HETATM   24  N4  UNL     1      31.812   5.893  47.290  1.00  0.00     0.025 N 
HETATM   25  N5  UNL     1      34.734   5.065  44.994  1.00  0.00    -0.349 N 
HETATM   26  C20 UNL     1      34.368   5.417  43.632  1.00  0.00     0.156 A 
HETATM   27  N6  UNL     1      33.940   4.358  43.055  1.00  0.00    -0.232 NA
HETATM   28  C21 UNL     1      34.259   6.465  42.608  1.00  0.00     0.129 A 
HETATM   29  N7  UNL     1      34.468   7.743  42.493  1.00  0.00    -0.237 NA
HETATM   30  H4  UNL     1      33.789   6.850  39.443  1.00  0.00     0.163 HD
HETATM   31  H25 UNL     1      35.531   4.427  45.218  1.00  0.00     0.163 HD
ENDROOT
BRANCH   9  32
HETATM   32  N3  UNL     1      35.191  12.854  41.784  1.00  0.00    -0.407 N 
HETATM   33  H8  UNL     1      36.039  12.708  41.212  1.00  0.00     0.155 HD
HETATM   34  H9  UNL     1      34.640  13.602  41.347  1.00  0.00     0.155 HD
ENDBRANCH   9  32
TORSDOF 2
ENDMDL
