MODEL 1
REMARK VINA RESULT:      -7.9      0.000      0.000
REMARK  6 active torsions:
REMARK  status: ('A' for Active; 'I' for Inactive)
REMARK    1  A    between atoms: C1_2  and  C2_3 
REMARK    2  A    between atoms: C2_3  and  C3_4 
REMARK    3  A    between atoms: C2_3  and  N1_12 
REMARK    4  A    between atoms: C3_4  and  C4_5 
REMARK    5  A    between atoms: N1_12  and  S1_13 
REMARK    6  A    between atoms: S1_13  and  C10_16 
ROOT
HETATM    1  N1  UNL     1      25.851   1.464  53.855  1.00  0.00    -0.280 N 
HETATM    2  H7  UNL     1      25.408   2.237  54.399  1.00  0.00     0.179 HD
ENDROOT
BRANCH   1   3
HETATM    3  C2  UNL     1      26.932   1.773  52.981  1.00  0.00     0.078 C 
BRANCH   3   4
HETATM    4  C1  UNL     1      28.075   2.264  53.429  1.00  0.00     0.247 C 
HETATM    5  O1  UNL     1      29.014   2.584  54.202  1.00  0.00    -0.282 OA
ENDBRANCH   3   4
BRANCH   3   6
HETATM    6  C3  UNL     1      26.718   1.520  51.548  1.00  0.00     0.100 C 
BRANCH   6   7
HETATM    7  C4  UNL     1      26.004   2.578  50.827  1.00  0.00    -0.052 A 
HETATM    8  C5  UNL     1      26.734   3.451  50.052  1.00  0.00     0.009 A 
HETATM    9  C6  UNL     1      26.191   4.507  49.310  1.00  0.00     0.024 A 
HETATM   10  C7  UNL     1      24.823   4.642  49.390  1.00  0.00     0.034 A 
HETATM   11 CL1  UNL     1      24.107   5.956  48.472  1.00  0.00    -0.084 Cl
HETATM   12  C8  UNL     1      24.019   3.807  50.145  1.00  0.00     0.024 A 
HETATM   13  C9  UNL     1      24.633   2.797  50.843  1.00  0.00     0.009 A 
ENDBRANCH   6   7
ENDBRANCH   3   6
ENDBRANCH   1   3
BRANCH   1  14
HETATM   14  S1  UNL     1      25.298  -0.170  53.999  1.00  0.00     0.263 S 
HETATM   15  O2  UNL     1      25.588  -0.724  55.362  1.00  0.00    -0.200 OA
HETATM   16  O3  UNL     1      26.049  -1.036  53.031  1.00  0.00    -0.200 OA
BRANCH  14  17
HETATM   17  C10 UNL     1      23.585  -0.322  53.718  1.00  0.00     0.080 A 
HETATM   18  C11 UNL     1      22.879  -1.044  54.684  1.00  0.00     0.027 A 
HETATM   19  C12 UNL     1      21.503  -1.265  54.622  1.00  0.00     0.025 A 
HETATM   20  C13 UNL     1      20.817  -0.738  53.547  1.00  0.00     0.034 A 
HETATM   21 CL2  UNL     1      19.102  -0.984  53.424  1.00  0.00    -0.084 Cl
HETATM   22  C14 UNL     1      21.494  -0.032  52.601  1.00  0.00     0.025 A 
HETATM   23  C15 UNL     1      22.835   0.179  52.669  1.00  0.00     0.027 A 
ENDBRANCH  14  17
ENDBRANCH   1  14
TORSDOF 6
ENDMDL
MODEL 2
REMARK VINA RESULT:      -7.7      4.067      5.452
REMARK  6 active torsions:
REMARK  status: ('A' for Active; 'I' for Inactive)
REMARK    1  A    between atoms: C1_2  and  C2_3 
REMARK    2  A    between atoms: C2_3  and  C3_4 
REMARK    3  A    between atoms: C2_3  and  N1_12 
REMARK    4  A    between atoms: C3_4  and  C4_5 
REMARK    5  A    between atoms: N1_12  and  S1_13 
REMARK    6  A    between atoms: S1_13  and  C10_16 
ROOT
HETATM    1  N1  UNL     1      22.221  -0.578  52.871  1.00  0.00    -0.280 N 
HETATM    2  H7  UNL     1      22.200  -1.007  51.919  1.00  0.00     0.179 HD
ENDROOT
BRANCH   1   3
HETATM    3  C2  UNL     1      23.399   0.106  53.288  1.00  0.00     0.078 C 
BRANCH   3   4
HETATM    4  C1  UNL     1      23.734   1.286  52.793  1.00  0.00     0.247 C 
HETATM    5  O1  UNL     1      24.241   2.432  52.680  1.00  0.00    -0.282 OA
ENDBRANCH   3   4
BRANCH   3   6
HETATM    6  C3  UNL     1      24.230  -0.562  54.301  1.00  0.00     0.100 C 
BRANCH   6   7
HETATM    7  C4  UNL     1      25.671  -0.551  54.033  1.00  0.00    -0.052 A 
HETATM    8  C5  UNL     1      26.495   0.115  54.912  1.00  0.00     0.009 A 
HETATM    9  C6  UNL     1      27.886   0.211  54.786  1.00  0.00     0.024 A 
HETATM   10  C7  UNL     1      28.425  -0.422  53.688  1.00  0.00     0.034 A 
HETATM   11 CL1  UNL     1      30.167  -0.322  53.498  1.00  0.00    -0.084 Cl
HETATM   12  C8  UNL     1      27.665  -1.111  52.759  1.00  0.00     0.024 A 
HETATM   13  C9  UNL     1      26.308  -1.156  52.959  1.00  0.00     0.009 A 
ENDBRANCH   6   7
ENDBRANCH   3   6
ENDBRANCH   1   3
BRANCH   1  14
HETATM   14  S1  UNL     1      20.862  -0.684  53.937  1.00  0.00     0.263 S 
HETATM   15  O2  UNL     1      20.828   0.473  54.890  1.00  0.00    -0.200 OA
HETATM   16  O3  UNL     1      20.990  -1.916  54.784  1.00  0.00    -0.200 OA
BRANCH  14  17
HETATM   17  C10 UNL     1      19.344  -0.713  53.082  1.00  0.00     0.080 A 
HETATM   18  C11 UNL     1      19.293   0.062  51.920  1.00  0.00     0.027 A 
HETATM   19  C12 UNL     1      18.161   0.157  51.112  1.00  0.00     0.025 A 
HETATM   20  C13 UNL     1      17.042  -0.556  51.489  1.00  0.00     0.034 A 
HETATM   21 CL2  UNL     1      15.606  -0.472  50.515  1.00  0.00    -0.084 Cl
HETATM   22  C14 UNL     1      17.080  -1.315  52.617  1.00  0.00     0.025 A 
HETATM   23  C15 UNL     1      18.188  -1.403  53.401  1.00  0.00     0.027 A 
ENDBRANCH  14  17
ENDBRANCH   1  14
TORSDOF 6
ENDMDL
MODEL 3
REMARK VINA RESULT:      -7.5      3.768      6.861
REMARK  6 active torsions:
REMARK  status: ('A' for Active; 'I' for Inactive)
REMARK    1  A    between atoms: C1_2  and  C2_3 
REMARK    2  A    between atoms: C2_3  and  C3_4 
REMARK    3  A    between atoms: C2_3  and  N1_12 
REMARK    4  A    between atoms: C3_4  and  C4_5 
REMARK    5  A    between atoms: N1_12  and  S1_13 
REMARK    6  A    between atoms: S1_13  and  C10_16 
ROOT
HETATM    1  N1  UNL     1      23.395   1.592  51.102  1.00  0.00    -0.280 N 
HETATM    2  H7  UNL     1      23.496   0.743  50.503  1.00  0.00     0.179 HD
ENDROOT
BRANCH   1   3
HETATM    3  C2  UNL     1      23.543   1.458  52.512  1.00  0.00     0.078 C 
BRANCH   3   4
HETATM    4  C1  UNL     1      22.643   0.831  53.253  1.00  0.00     0.247 C 
HETATM    5  O1  UNL     1      21.548   0.511  53.782  1.00  0.00    -0.282 OA
ENDBRANCH   3   4
BRANCH   3   6
HETATM    6  C3  UNL     1      24.747   2.051  53.112  1.00  0.00     0.100 C 
BRANCH   6   7
HETATM    7  C4  UNL     1      25.924   1.178  53.145  1.00  0.00    -0.052 A 
HETATM    8  C5  UNL     1      27.098   1.680  53.661  1.00  0.00     0.009 A 
HETATM    9  C6  UNL     1      28.298   0.966  53.756  1.00  0.00     0.024 A 
HETATM   10  C7  UNL     1      28.254  -0.329  53.288  1.00  0.00     0.034 A 
HETATM   11 CL1  UNL     1      29.742  -1.254  53.392  1.00  0.00    -0.084 Cl
HETATM   12  C8  UNL     1      27.115  -0.906  52.755  1.00  0.00     0.024 A 
HETATM   13  C9  UNL     1      25.981  -0.135  52.699  1.00  0.00     0.009 A 
ENDBRANCH   6   7
ENDBRANCH   3   6
ENDBRANCH   1   3
BRANCH   1  14
HETATM   14  S1  UNL     1      23.053   3.143  50.415  1.00  0.00     0.263 S 
HETATM   15  O2  UNL     1      22.422   4.057  51.423  1.00  0.00    -0.200 OA
HETATM   16  O3  UNL     1      22.049   2.987  49.311  1.00  0.00    -0.200 OA
BRANCH  14  17
HETATM   17  C10 UNL     1      24.482   3.932  49.805  1.00  0.00     0.080 A 
HETATM   18  C11 UNL     1      25.654   3.174  49.851  1.00  0.00     0.027 A 
HETATM   19  C12 UNL     1      26.889   3.644  49.405  1.00  0.00     0.025 A 
HETATM   20  C13 UNL     1      26.941   4.924  48.895  1.00  0.00     0.034 A 
HETATM   21 CL2  UNL     1      28.456   5.556  48.325  1.00  0.00    -0.084 Cl
HETATM   22  C14 UNL     1      25.806   5.672  48.844  1.00  0.00     0.025 A 
HETATM   23  C15 UNL     1      24.605   5.207  49.280  1.00  0.00     0.027 A 
ENDBRANCH  14  17
ENDBRANCH   1  14
TORSDOF 6
ENDMDL
MODEL 4
REMARK VINA RESULT:      -7.4      2.569      3.491
REMARK  6 active torsions:
REMARK  status: ('A' for Active; 'I' for Inactive)
REMARK    1  A    between atoms: C1_2  and  C2_3 
REMARK    2  A    between atoms: C2_3  and  C3_4 
REMARK    3  A    between atoms: C2_3  and  N1_12 
REMARK    4  A    between atoms: C3_4  and  C4_5 
REMARK    5  A    between atoms: N1_12  and  S1_13 
REMARK    6  A    between atoms: S1_13  and  C10_16 
ROOT
HETATM    1  N1  UNL     1      25.591   3.430  51.724  1.00  0.00    -0.280 N 
HETATM    2  H7  UNL     1      25.529   4.379  52.156  1.00  0.00     0.179 HD
ENDROOT
BRANCH   1   3
HETATM    3  C2  UNL     1      25.417   3.305  50.316  1.00  0.00     0.078 C 
BRANCH   3   4
HETATM    4  C1  UNL     1      24.229   3.086  49.776  1.00  0.00     0.247 C 
HETATM    5  O1  UNL     1      23.328   2.860  48.929  1.00  0.00    -0.282 OA
ENDBRANCH   3   4
BRANCH   3   6
HETATM    6  C3  UNL     1      26.623   3.430  49.485  1.00  0.00     0.100 C 
BRANCH   6   7
HETATM    7  C4  UNL     1      26.892   4.777  48.973  1.00  0.00    -0.052 A 
HETATM    8  C5  UNL     1      28.158   5.061  48.510  1.00  0.00     0.009 A 
HETATM    9  C6  UNL     1      28.560   6.299  47.995  1.00  0.00     0.024 A 
HETATM   10  C7  UNL     1      27.586   7.272  47.967  1.00  0.00     0.034 A 
HETATM   11 CL1  UNL     1      28.056   8.837  47.326  1.00  0.00    -0.084 Cl
HETATM   12  C8  UNL     1      26.292   7.066  48.412  1.00  0.00     0.024 A 
HETATM   13  C9  UNL     1      25.982   5.823  48.903  1.00  0.00     0.009 A 
ENDBRANCH   6   7
ENDBRANCH   3   6
ENDBRANCH   1   3
BRANCH   1  14
HETATM   14  S1  UNL     1      25.900   2.023  52.683  1.00  0.00     0.263 S 
HETATM   15  O2  UNL     1      26.589   2.381  53.966  1.00  0.00    -0.200 OA
HETATM   16  O3  UNL     1      26.841   1.116  51.946  1.00  0.00    -0.200 OA
BRANCH  14  17
HETATM   17  C10 UNL     1      24.443   1.157  53.087  1.00  0.00     0.080 A 
HETATM   18  C11 UNL     1      24.630  -0.070  53.728  1.00  0.00     0.027 A 
HETATM   19  C12 UNL     1      23.579  -0.896  54.125  1.00  0.00     0.025 A 
HETATM   20  C13 UNL     1      22.294  -0.467  53.864  1.00  0.00     0.034 A 
HETATM   21 CL2  UNL     1      20.949  -1.459  54.339  1.00  0.00    -0.084 Cl
HETATM   22  C14 UNL     1      22.099   0.726  53.241  1.00  0.00     0.025 A 
HETATM   23  C15 UNL     1      23.129   1.526  52.858  1.00  0.00     0.027 A 
ENDBRANCH  14  17
ENDBRANCH   1  14
TORSDOF 6
ENDMDL
MODEL 5
REMARK VINA RESULT:      -7.4      3.513      5.782
REMARK  6 active torsions:
REMARK  status: ('A' for Active; 'I' for Inactive)
REMARK    1  A    between atoms: C1_2  and  C2_3 
REMARK    2  A    between atoms: C2_3  and  C3_4 
REMARK    3  A    between atoms: C2_3  and  N1_12 
REMARK    4  A    between atoms: C3_4  and  C4_5 
REMARK    5  A    between atoms: N1_12  and  S1_13 
REMARK    6  A    between atoms: S1_13  and  C10_16 
ROOT
HETATM    1  N1  UNL     1      21.922   0.982  53.748  1.00  0.00    -0.280 N 
HETATM    2  H7  UNL     1      21.953   1.477  54.666  1.00  0.00     0.179 HD
ENDROOT
BRANCH   1   3
HETATM    3  C2  UNL     1      22.532  -0.300  53.638  1.00  0.00     0.078 C 
BRANCH   3   4
HETATM    4  C1  UNL     1      22.160  -1.318  54.397  1.00  0.00     0.247 C 
HETATM    5  O1  UNL     1      22.127  -2.158  55.332  1.00  0.00    -0.282 OA
ENDBRANCH   3   4
BRANCH   3   6
HETATM    6  C3  UNL     1      23.601  -0.442  52.638  1.00  0.00     0.100 C 
BRANCH   6   7
HETATM    7  C4  UNL     1      24.855   0.244  52.962  1.00  0.00    -0.052 A 
HETATM    8  C5  UNL     1      25.450   1.014  51.987  1.00  0.00     0.009 A 
HETATM    9  C6  UNL     1      26.645   1.724  52.151  1.00  0.00     0.024 A 
HETATM   10  C7  UNL     1      27.232   1.616  53.392  1.00  0.00     0.034 A 
HETATM   11 CL1  UNL     1      28.733   2.495  53.632  1.00  0.00    -0.084 Cl
HETATM   12  C8  UNL     1      26.698   0.864  54.423  1.00  0.00     0.024 A 
HETATM   13  C9  UNL     1      25.523   0.198  54.177  1.00  0.00     0.009 A 
ENDBRANCH   6   7
ENDBRANCH   3   6
ENDBRANCH   1   3
BRANCH   1  14
HETATM   14  S1  UNL     1      21.149   1.690  52.370  1.00  0.00     0.263 S 
HETATM   15  O2  UNL     1      20.085   2.662  52.784  1.00  0.00    -0.200 OA
HETATM   16  O3  UNL     1      20.450   0.618  51.587  1.00  0.00    -0.200 OA
BRANCH  14  17
HETATM   17  C10 UNL     1      22.269   2.537  51.338  1.00  0.00     0.080 A 
HETATM   18  C11 UNL     1      22.920   3.626  51.923  1.00  0.00     0.027 A 
HETATM   19  C12 UNL     1      23.848   4.417  51.247  1.00  0.00     0.025 A 
HETATM   20  C13 UNL     1      24.128   4.097  49.935  1.00  0.00     0.034 A 
HETATM   21 CL2  UNL     1      25.278   5.051  49.049  1.00  0.00    -0.084 Cl
HETATM   22  C14 UNL     1      23.501   3.038  49.355  1.00  0.00     0.025 A 
HETATM   23  C15 UNL     1      22.597   2.272  50.021  1.00  0.00     0.027 A 
ENDBRANCH  14  17
ENDBRANCH   1  14
TORSDOF 6
ENDMDL
MODEL 6
REMARK VINA RESULT:      -7.4      3.959      5.243
REMARK  6 active torsions:
REMARK  status: ('A' for Active; 'I' for Inactive)
REMARK    1  A    between atoms: C1_2  and  C2_3 
REMARK    2  A    between atoms: C2_3  and  C3_4 
REMARK    3  A    between atoms: C2_3  and  N1_12 
REMARK    4  A    between atoms: C3_4  and  C4_5 
REMARK    5  A    between atoms: N1_12  and  S1_13 
REMARK    6  A    between atoms: S1_13  and  C10_16 
ROOT
HETATM    1  N1  UNL     1      25.918   3.501  51.363  1.00  0.00    -0.280 N 
HETATM    2  H7  UNL     1      26.939   3.709  51.307  1.00  0.00     0.179 HD
ENDROOT
BRANCH   1   3
HETATM    3  C2  UNL     1      25.013   4.306  50.614  1.00  0.00     0.078 C 
BRANCH   3   4
HETATM    4  C1  UNL     1      23.972   4.897  51.179  1.00  0.00     0.247 C 
HETATM    5  O1  UNL     1      22.976   5.107  51.916  1.00  0.00    -0.282 OA
ENDBRANCH   3   4
BRANCH   3   6
HETATM    6  C3  UNL     1      25.287   4.451  49.177  1.00  0.00     0.100 C 
BRANCH   6   7
HETATM    7  C4  UNL     1      26.415   5.326  48.841  1.00  0.00    -0.052 A 
HETATM    8  C5  UNL     1      27.649   4.753  48.631  1.00  0.00     0.009 A 
HETATM    9  C6  UNL     1      28.812   5.460  48.305  1.00  0.00     0.024 A 
HETATM   10  C7  UNL     1      28.663   6.824  48.196  1.00  0.00     0.034 A 
HETATM   11 CL1  UNL     1      30.102   7.743  47.788  1.00  0.00    -0.084 Cl
HETATM   12  C8  UNL     1      27.458   7.476  48.391  1.00  0.00     0.024 A 
HETATM   13  C9  UNL     1      26.367   6.706  48.708  1.00  0.00     0.009 A 
ENDBRANCH   6   7
ENDBRANCH   3   6
ENDBRANCH   1   3
BRANCH   1  14
HETATM   14  S1  UNL     1      25.315   2.207  52.342  1.00  0.00     0.263 S 
HETATM   15  O2  UNL     1      24.161   1.517  51.678  1.00  0.00    -0.200 OA
HETATM   16  O3  UNL     1      24.780   2.765  53.628  1.00  0.00    -0.200 OA
BRANCH  14  17
HETATM   17  C10 UNL     1      26.529   1.005  52.681  1.00  0.00     0.080 A 
HETATM   18  C11 UNL     1      26.169  -0.313  52.388  1.00  0.00     0.027 A 
HETATM   19  C12 UNL     1      27.014  -1.403  52.594  1.00  0.00     0.025 A 
HETATM   20  C13 UNL     1      28.267  -1.152  53.115  1.00  0.00     0.034 A 
HETATM   21 CL2  UNL     1      29.358  -2.476  53.390  1.00  0.00    -0.084 Cl
HETATM   22  C14 UNL     1      28.629   0.127  53.403  1.00  0.00     0.025 A 
HETATM   23  C15 UNL     1      27.799   1.184  53.199  1.00  0.00     0.027 A 
ENDBRANCH  14  17
ENDBRANCH   1  14
TORSDOF 6
ENDMDL
MODEL 7
REMARK VINA RESULT:      -7.3      4.064      6.976
REMARK  6 active torsions:
REMARK  status: ('A' for Active; 'I' for Inactive)
REMARK    1  A    between atoms: C1_2  and  C2_3 
REMARK    2  A    between atoms: C2_3  and  C3_4 
REMARK    3  A    between atoms: C2_3  and  N1_12 
REMARK    4  A    between atoms: C3_4  and  C4_5 
REMARK    5  A    between atoms: N1_12  and  S1_13 
REMARK    6  A    between atoms: S1_13  and  C10_16 
ROOT
HETATM    1  N1  UNL     1      22.759   2.323  50.516  1.00  0.00    -0.280 N 
HETATM    2  H7  UNL     1      22.924   1.674  49.715  1.00  0.00     0.179 HD
ENDROOT
BRANCH   1   3
HETATM    3  C2  UNL     1      22.224   1.797  51.726  1.00  0.00     0.078 C 
BRANCH   3   4
HETATM    4  C1  UNL     1      21.065   2.208  52.215  1.00  0.00     0.247 C 
HETATM    5  O1  UNL     1      20.105   2.402  53.004  1.00  0.00    -0.282 OA
ENDBRANCH   3   4
BRANCH   3   6
HETATM    6  C3  UNL     1      23.022   0.770  52.412  1.00  0.00     0.100 C 
BRANCH   6   7
HETATM    7  C4  UNL     1      24.429   1.118  52.635  1.00  0.00    -0.052 A 
HETATM    8  C5  UNL     1      24.718   2.190  53.448  1.00  0.00     0.009 A 
HETATM    9  C6  UNL     1      26.010   2.638  53.751  1.00  0.00     0.024 A 
HETATM   10  C7  UNL     1      27.033   1.922  53.171  1.00  0.00     0.034 A 
HETATM   11 CL1  UNL     1      28.667   2.455  53.528  1.00  0.00    -0.084 Cl
HETATM   12  C8  UNL     1      26.826   0.833  52.343  1.00  0.00     0.024 A 
HETATM   13  C9  UNL     1      25.528   0.462  52.098  1.00  0.00     0.009 A 
ENDBRANCH   6   7
ENDBRANCH   3   6
ENDBRANCH   1   3
BRANCH   1  14
HETATM   14  S1  UNL     1      23.120   4.011  50.395  1.00  0.00     0.263 S 
HETATM   15  O2  UNL     1      22.990   4.691  51.726  1.00  0.00    -0.200 OA
HETATM   16  O3  UNL     1      22.119   4.671  49.493  1.00  0.00    -0.200 OA
BRANCH  14  17
HETATM   17  C10 UNL     1      24.732   4.308  49.803  1.00  0.00     0.080 A 
HETATM   18  C11 UNL     1      24.944   5.571  49.243  1.00  0.00     0.027 A 
HETATM   19  C12 UNL     1      26.170   5.981  48.720  1.00  0.00     0.025 A 
HETATM   20  C13 UNL     1      27.218   5.085  48.765  1.00  0.00     0.034 A 
HETATM   21 CL2  UNL     1      28.766   5.549  48.128  1.00  0.00    -0.084 Cl
HETATM   22  C14 UNL     1      27.024   3.854  49.309  1.00  0.00     0.025 A 
HETATM   23  C15 UNL     1      25.825   3.461  49.816  1.00  0.00     0.027 A 
ENDBRANCH  14  17
ENDBRANCH   1  14
TORSDOF 6
ENDMDL
MODEL 8
REMARK VINA RESULT:      -7.3      4.130      7.654
REMARK  6 active torsions:
REMARK  status: ('A' for Active; 'I' for Inactive)
REMARK    1  A    between atoms: C1_2  and  C2_3 
REMARK    2  A    between atoms: C2_3  and  C3_4 
REMARK    3  A    between atoms: C2_3  and  N1_12 
REMARK    4  A    between atoms: C3_4  and  C4_5 
REMARK    5  A    between atoms: N1_12  and  S1_13 
REMARK    6  A    between atoms: S1_13  and  C10_16 
ROOT
HETATM    1  N1  UNL     1      24.852   2.431  50.707  1.00  0.00    -0.280 N 
HETATM    2  H7  UNL     1      25.734   1.943  50.435  1.00  0.00     0.179 HD
ENDROOT
BRANCH   1   3
HETATM    3  C2  UNL     1      23.973   1.795  51.629  1.00  0.00     0.078 C 
BRANCH   3   4
HETATM    4  C1  UNL     1      22.777   1.359  51.268  1.00  0.00     0.247 C 
HETATM    5  O1  UNL     1      21.805   0.996  50.557  1.00  0.00    -0.282 OA
ENDBRANCH   3   4
BRANCH   3   6
HETATM    6  C3  UNL     1      24.456   1.645  53.010  1.00  0.00     0.100 C 
BRANCH   6   7
HETATM    7  C4  UNL     1      25.773   1.014  53.146  1.00  0.00    -0.052 A 
HETATM    8  C5  UNL     1      25.907  -0.306  52.781  1.00  0.00     0.009 A 
HETATM    9  C6  UNL     1      27.098  -1.038  52.857  1.00  0.00     0.024 A 
HETATM   10  C7  UNL     1      28.187  -0.346  53.337  1.00  0.00     0.034 A 
HETATM   11 CL1  UNL     1      29.699  -1.232  53.445  1.00  0.00    -0.084 Cl
HETATM   12  C8  UNL     1      28.134   0.982  53.725  1.00  0.00     0.024 A 
HETATM   13  C9  UNL     1      26.926   1.624  53.618  1.00  0.00     0.009 A 
ENDBRANCH   6   7
ENDBRANCH   3   6
ENDBRANCH   1   3
BRANCH   1  14
HETATM   14  S1  UNL     1      24.447   3.984  50.059  1.00  0.00     0.263 S 
HETATM   15  O2  UNL     1      23.908   4.892  51.124  1.00  0.00    -0.200 OA
HETATM   16  O3  UNL     1      23.347   3.830  49.050  1.00  0.00    -0.200 OA
BRANCH  14  17
HETATM   17  C10 UNL     1      25.813   4.778  49.324  1.00  0.00     0.080 A 
HETATM   18  C11 UNL     1      25.580   6.079  48.871  1.00  0.00     0.027 A 
HETATM   19  C12 UNL     1      26.557   6.864  48.259  1.00  0.00     0.025 A 
HETATM   20  C13 UNL     1      27.813   6.315  48.100  1.00  0.00     0.034 A 
HETATM   21 CL2  UNL     1      29.065   7.252  47.344  1.00  0.00    -0.084 Cl
HETATM   22  C14 UNL     1      28.051   5.050  48.539  1.00  0.00     0.025 A 
HETATM   23  C15 UNL     1      27.094   4.291  49.134  1.00  0.00     0.027 A 
ENDBRANCH  14  17
ENDBRANCH   1  14
TORSDOF 6
ENDMDL
MODEL 9
REMARK VINA RESULT:      -7.1      3.831      5.082
REMARK  6 active torsions:
REMARK  status: ('A' for Active; 'I' for Inactive)
REMARK    1  A    between atoms: C1_2  and  C2_3 
REMARK    2  A    between atoms: C2_3  and  C3_4 
REMARK    3  A    between atoms: C2_3  and  N1_12 
REMARK    4  A    between atoms: C3_4  and  C4_5 
REMARK    5  A    between atoms: N1_12  and  S1_13 
REMARK    6  A    between atoms: S1_13  and  C10_16 
ROOT
HETATM    1  N1  UNL     1      23.149   2.846  52.686  1.00  0.00    -0.280 N 
HETATM    2  H7  UNL     1      23.305   3.490  53.493  1.00  0.00     0.179 HD
ENDROOT
BRANCH   1   3
HETATM    3  C2  UNL     1      24.244   2.073  52.205  1.00  0.00     0.078 C 
BRANCH   3   4
HETATM    4  C1  UNL     1      25.078   2.536  51.289  1.00  0.00     0.247 C 
HETATM    5  O1  UNL     1      26.090   2.666  50.553  1.00  0.00    -0.282 OA
ENDBRANCH   3   4
BRANCH   3   6
HETATM    6  C3  UNL     1      24.407   0.727  52.776  1.00  0.00     0.100 C 
BRANCH   6   7
HETATM    7  C4  UNL     1      25.784   0.351  53.108  1.00  0.00    -0.052 A 
HETATM    8  C5  UNL     1      26.323  -0.763  52.504  1.00  0.00     0.009 A 
HETATM    9  C6  UNL     1      27.620  -1.241  52.723  1.00  0.00     0.024 A 
HETATM   10  C7  UNL     1      28.376  -0.513  53.614  1.00  0.00     0.034 A 
HETATM   11 CL1  UNL     1      30.008  -1.084  53.913  1.00  0.00    -0.084 Cl
HETATM   12  C8  UNL     1      27.908   0.618  54.261  1.00  0.00     0.024 A 
HETATM   13  C9  UNL     1      26.624   1.018  53.989  1.00  0.00     0.009 A 
ENDBRANCH   6   7
ENDBRANCH   3   6
ENDBRANCH   1   3
BRANCH   1  14
HETATM   14  S1  UNL     1      21.598   2.707  51.932  1.00  0.00     0.263 S 
HETATM   15  O2  UNL     1      21.728   2.573  50.444  1.00  0.00    -0.200 OA
HETATM   16  O3  UNL     1      20.815   3.965  52.169  1.00  0.00    -0.200 OA
BRANCH  14  17
HETATM   17  C10 UNL     1      20.695   1.334  52.511  1.00  0.00     0.080 A 
HETATM   18  C11 UNL     1      19.601   0.959  51.727  1.00  0.00     0.027 A 
HETATM   19  C12 UNL     1      18.768  -0.115  52.037  1.00  0.00     0.025 A 
HETATM   20  C13 UNL     1      19.049  -0.836  53.180  1.00  0.00     0.034 A 
HETATM   21 CL2  UNL     1      18.041  -2.184  53.610  1.00  0.00    -0.084 Cl
HETATM   22  C14 UNL     1      20.112  -0.480  53.951  1.00  0.00     0.025 A 
HETATM   23  C15 UNL     1      20.920   0.568  53.641  1.00  0.00     0.027 A 
ENDBRANCH  14  17
ENDBRANCH   1  14
TORSDOF 6
ENDMDL
