MODEL 1
REMARK VINA RESULT:      -9.6      0.000      0.000
REMARK  2 active torsions:
REMARK  status: ('A' for Active; 'I' for Inactive)
REMARK    1  A    between atoms: C6_7  and  P1_8 
REMARK    2  A    between atoms: P1_8  and  O2_9 
ROOT
HETATM    1  C1  UNL     1      18.947   4.812  49.513  1.00  0.00     0.000 C 
HETATM    2  O1  UNL     1      19.227   4.325  50.805  1.00  0.00     0.000 OA
HETATM    3  C2  UNL     1      18.507   3.082  51.254  1.00  0.00     0.044 A 
HETATM    4  C3  UNL     1      20.151   2.894  50.857  1.00  0.00     0.072 A 
HETATM    5  C4  UNL     1      20.857   1.523  50.950  1.00  0.00     0.028 A 
HETATM    6  C5  UNL     1      20.387   0.294  51.328  1.00  0.00     0.048 A 
HETATM    7  C6  UNL     1      19.679   1.349  51.294  1.00  0.00     0.040 A 
HETATM    8  P1  UNL     1      18.844   2.567  51.270  1.00  0.00     0.007 P 
HETATM    9  C8  UNL     1      19.158  -0.311  51.769  1.00  0.00     0.073 A 
HETATM   10  O3  UNL     1      17.996  -0.884  52.189  1.00  0.00     0.000 OA
HETATM   11  N1  UNL     1      18.954  -0.514  53.070  1.00  0.00    -0.243 N 
HETATM   12  C9  UNL     1      19.975  -0.117  53.985  1.00  0.00     0.234 C 
HETATM   13  N2  UNL     1      20.566  -1.245  53.825  1.00  0.00    -0.234 NA
HETATM   14  C10 UNL     1      21.753  -1.673  54.436  1.00  0.00     0.256 C 
HETATM   15  N3  UNL     1      22.305  -0.989  53.502  1.00  0.00    -0.168 NA
HETATM   16  N4  UNL     1      23.679  -0.834  53.305  1.00  0.00    -0.277 N 
HETATM   17  C11 UNL     1      24.584   0.250  53.399  1.00  0.00     0.059 A 
HETATM   18  C12 UNL     1      25.824  -0.171  53.810  1.00  0.00     0.050 A 
HETATM   19  C13 UNL     1      26.883   0.727  53.985  1.00  0.00     0.013 A 
HETATM   20 BR1  UNL     1      28.609   0.157  54.546  1.00  0.00    -0.051 Br
HETATM   21  C14 UNL     1      26.650   2.063  53.732  1.00  0.00     0.020 A 
HETATM   22  C15 UNL     1      25.389   2.431  53.320  1.00  0.00     0.012 A 
HETATM   23  C16 UNL     1      24.298   1.559  53.132  1.00  0.00    -0.002 A 
HETATM   24  C17 UNL     1      23.083   2.275  52.676  1.00  0.00     0.310 C 
HETATM   25  N5  UNL     1      23.054   2.353  51.210  1.00  0.00     0.088 N 
HETATM   26  C18 UNL     1      22.308   1.233  50.629  1.00  0.00     0.282 C 
HETATM   27  H8  UNL     1      17.462  -1.561  51.596  1.00  0.00     0.000 HD
HETATM   28  H11 UNL     1      23.999  -1.796  53.019  1.00  0.00     0.189 HD
HETATM   29  H17 UNL     1      24.058   2.304  50.916  1.00  0.00     0.316 HD
ENDROOT
BRANCH   8  30
HETATM   30  O2  UNL     1      17.275   4.736  51.253  1.00  0.00    -0.373 OA
HETATM   31  C7  UNL     1      16.553   3.661  51.862  1.00  0.00     0.206 C 
ENDBRANCH   8  30
TORSDOF 2
ENDMDL
MODEL 2
REMARK VINA RESULT:      -9.2      4.076      6.426
REMARK  2 active torsions:
REMARK  status: ('A' for Active; 'I' for Inactive)
REMARK    1  A    between atoms: C6_7  and  P1_8 
REMARK    2  A    between atoms: P1_8  and  O2_9 
ROOT
HETATM    1  C1  UNL     1      24.134   6.535  49.168  1.00  0.00     0.000 C 
HETATM    2  O1  UNL     1      24.168   5.127  49.210  1.00  0.00     0.000 OA
HETATM    3  C2  UNL     1      25.101   4.480  50.199  1.00  0.00     0.044 A 
HETATM    4  C3  UNL     1      23.444   4.425  50.585  1.00  0.00     0.072 A 
HETATM    5  C4  UNL     1      22.934   3.752  51.878  1.00  0.00     0.028 A 
HETATM    6  C5  UNL     1      23.608   3.121  52.888  1.00  0.00     0.048 A 
HETATM    7  C6  UNL     1      24.168   3.640  51.872  1.00  0.00     0.040 A 
HETATM    8  P1  UNL     1      24.835   4.229  50.694  1.00  0.00     0.007 P 
HETATM    9  C8  UNL     1      24.961   2.794  53.255  1.00  0.00     0.073 A 
HETATM   10  O3  UNL     1      26.241   2.482  53.600  1.00  0.00     0.000 OA
HETATM   11  N1  UNL     1      25.435   1.575  53.004  1.00  0.00    -0.243 N 
HETATM   12  C9  UNL     1      24.570   0.629  52.374  1.00  0.00     0.234 C 
HETATM   13  N2  UNL     1      24.095   0.291  53.517  1.00  0.00    -0.234 NA
HETATM   14  C10 UNL     1      23.106  -0.669  53.773  1.00  0.00     0.256 C 
HETATM   15  N3  UNL     1      22.309   0.286  53.465  1.00  0.00    -0.168 NA
HETATM   16  N4  UNL     1      20.914   0.214  53.448  1.00  0.00    -0.277 N 
HETATM   17  C11 UNL     1      19.925   0.269  52.438  1.00  0.00     0.059 A 
HETATM   18  C12 UNL     1      18.845  -0.518  52.756  1.00  0.00     0.050 A 
HETATM   19  C13 UNL     1      17.743  -0.630  51.901  1.00  0.00     0.013 A 
HETATM   20 BR1  UNL     1      16.236  -1.709  52.333  1.00  0.00    -0.051 Br
HETATM   21  C14 UNL     1      17.766   0.075  50.716  1.00  0.00     0.020 A 
HETATM   22  C15 UNL     1      18.871   0.850  50.447  1.00  0.00     0.012 A 
HETATM   23  C16 UNL     1      19.999   0.990  51.281  1.00  0.00    -0.002 A 
HETATM   24  C17 UNL     1      21.011   1.904  50.700  1.00  0.00     0.310 C 
HETATM   25  N5  UNL     1      20.747   3.288  51.112  1.00  0.00     0.088 N 
HETATM   26  C18 UNL     1      21.492   3.637  52.326  1.00  0.00     0.282 C 
HETATM   27  H8  UNL     1      26.725   2.935  54.410  1.00  0.00     0.000 HD
HETATM   28  H11 UNL     1      20.659   0.105  54.464  1.00  0.00     0.189 HD
HETATM   29  H17 UNL     1      19.718   3.322  51.303  1.00  0.00     0.316 HD
ENDROOT
BRANCH   8  30
HETATM   30  O2  UNL     1      26.109   5.274  48.583  1.00  0.00    -0.373 OA
HETATM   31  C7  UNL     1      26.993   4.357  49.237  1.00  0.00     0.206 C 
ENDBRANCH   8  30
TORSDOF 2
ENDMDL
MODEL 3
REMARK VINA RESULT:      -9.0      3.996      6.130
REMARK  2 active torsions:
REMARK  status: ('A' for Active; 'I' for Inactive)
REMARK    1  A    between atoms: C6_7  and  P1_8 
REMARK    2  A    between atoms: P1_8  and  O2_9 
ROOT
HETATM    1  C1  UNL     1      23.718  -0.719  54.560  1.00  0.00     0.000 C 
HETATM    2  O1  UNL     1      23.429  -0.338  53.235  1.00  0.00     0.000 OA
HETATM    3  C2  UNL     1      22.085   0.284  52.964  1.00  0.00     0.044 A 
HETATM    4  C3  UNL     1      23.417   1.343  52.950  1.00  0.00     0.072 A 
HETATM    5  C4  UNL     1      23.250   2.854  52.678  1.00  0.00     0.028 A 
HETATM    6  C5  UNL     1      22.134   3.601  52.416  1.00  0.00     0.048 A 
HETATM    7  C6  UNL     1      22.119   2.348  52.628  1.00  0.00     0.040 A 
HETATM    8  P1  UNL     1      22.085   0.891  52.863  1.00  0.00     0.007 P 
HETATM    9  C8  UNL     1      20.711   3.422  52.281  1.00  0.00     0.073 A 
HETATM   10  O3  UNL     1      19.367   3.252  52.151  1.00  0.00     0.000 OA
HETATM   11  N1  UNL     1      20.174   3.312  51.067  1.00  0.00    -0.243 N 
HETATM   12  C9  UNL     1      21.041   3.378  49.935  1.00  0.00     0.234 C 
HETATM   13  N2  UNL     1      20.959   4.658  49.938  1.00  0.00    -0.234 NA
HETATM   14  C10 UNL     1      21.584   5.549  49.054  1.00  0.00     0.256 C 
HETATM   15  N3  UNL     1      22.590   5.380  49.831  1.00  0.00    -0.168 NA
HETATM   16  N4  UNL     1      23.842   5.982  49.690  1.00  0.00    -0.277 N 
HETATM   17  C11 UNL     1      25.144   5.517  49.388  1.00  0.00     0.059 A 
HETATM   18  C12 UNL     1      25.857   6.456  48.684  1.00  0.00     0.050 A 
HETATM   19  C13 UNL     1      27.171   6.217  48.264  1.00  0.00     0.013 A 
HETATM   20 BR1  UNL     1      28.174   7.511  47.297  1.00  0.00    -0.051 Br
HETATM   21  C14 UNL     1      27.740   4.999  48.576  1.00  0.00     0.020 A 
HETATM   22  C15 UNL     1      26.983   4.095  49.285  1.00  0.00     0.012 A 
HETATM   23  C16 UNL     1      25.659   4.298  49.726  1.00  0.00    -0.002 A 
HETATM   24  C17 UNL     1      25.133   3.128  50.468  1.00  0.00     0.310 C 
HETATM   25  N5  UNL     1      25.446   3.245  51.898  1.00  0.00     0.088 N 
HETATM   26  C18 UNL     1      24.354   3.889  52.635  1.00  0.00     0.282 C 
HETATM   27  H8  UNL     1      18.688   3.631  52.851  1.00  0.00     0.000 HD
HETATM   28  H11 UNL     1      23.652   7.000  49.882  1.00  0.00     0.189 HD
HETATM   29  H17 UNL     1      26.305   3.844  51.939  1.00  0.00     0.316 HD
ENDROOT
BRANCH   8  30
HETATM   30  O2  UNL     1      21.952  -1.751  53.277  1.00  0.00    -0.373 OA
HETATM   31  C7  UNL     1      20.657  -1.190  53.517  1.00  0.00     0.206 C 
ENDBRANCH   8  30
TORSDOF 2
ENDMDL
MODEL 4
REMARK VINA RESULT:      -8.9      2.548      4.833
REMARK  2 active torsions:
REMARK  status: ('A' for Active; 'I' for Inactive)
REMARK    1  A    between atoms: C6_7  and  P1_8 
REMARK    2  A    between atoms: P1_8  and  O2_9 
ROOT
HETATM    1  C1  UNL     1      18.590   2.428  51.924  1.00  0.00     0.000 C 
HETATM    2  O1  UNL     1      19.663   2.134  51.061  1.00  0.00     0.000 OA
HETATM    3  C2  UNL     1      20.215   3.256  50.223  1.00  0.00     0.044 A 
HETATM    4  C3  UNL     1      21.174   2.762  51.540  1.00  0.00     0.072 A 
HETATM    5  C4  UNL     1      22.528   3.434  51.855  1.00  0.00     0.028 A 
HETATM    6  C5  UNL     1      23.193   4.453  51.228  1.00  0.00     0.048 A 
HETATM    7  C6  UNL     1      22.065   4.000  50.854  1.00  0.00     0.040 A 
HETATM    8  P1  UNL     1      20.760   3.481  50.401  1.00  0.00     0.007 P 
HETATM    9  C8  UNL     1      23.019   5.336  50.105  1.00  0.00     0.073 A 
HETATM   10  O3  UNL     1      22.855   6.170  49.040  1.00  0.00     0.000 OA
HETATM   11  N1  UNL     1      23.615   5.055  48.947  1.00  0.00    -0.243 N 
HETATM   12  C9  UNL     1      24.412   3.874  48.866  1.00  0.00     0.234 C 
HETATM   13  N2  UNL     1      25.426   4.519  49.317  1.00  0.00    -0.234 NA
HETATM   14  C10 UNL     1      26.714   4.017  49.551  1.00  0.00     0.256 C 
HETATM   15  N3  UNL     1      26.194   3.607  50.649  1.00  0.00    -0.168 NA
HETATM   16  N4  UNL     1      26.857   2.898  51.653  1.00  0.00    -0.277 N 
HETATM   17  C11 UNL     1      26.769   1.585  52.171  1.00  0.00     0.059 A 
HETATM   18  C12 UNL     1      27.995   1.134  52.594  1.00  0.00     0.050 A 
HETATM   19  C13 UNL     1      28.159  -0.146  53.136  1.00  0.00     0.013 A 
HETATM   20 BR1  UNL     1      29.849  -0.781  53.735  1.00  0.00    -0.051 Br
HETATM   21  C14 UNL     1      27.046  -0.956  53.237  1.00  0.00     0.020 A 
HETATM   22  C15 UNL     1      25.841  -0.454  52.800  1.00  0.00     0.012 A 
HETATM   23  C16 UNL     1      25.636   0.827  52.249  1.00  0.00    -0.002 A 
HETATM   24  C17 UNL     1      24.216   1.057  51.886  1.00  0.00     0.310 C 
HETATM   25  N5  UNL     1      23.480   1.616  53.026  1.00  0.00     0.088 N 
HETATM   26  C18 UNL     1      23.467   3.081  52.990  1.00  0.00     0.282 C 
HETATM   27  H8  UNL     1      22.685   7.196  49.158  1.00  0.00     0.000 HD
HETATM   28  H11 UNL     1      27.539   3.600  52.043  1.00  0.00     0.189 HD
HETATM   29  H17 UNL     1      24.000   1.285  53.873  1.00  0.00     0.316 HD
ENDROOT
BRANCH   8  30
HETATM   30  O2  UNL     1      18.395   2.585  49.522  1.00  0.00    -0.373 OA
HETATM   31  C7  UNL     1      18.985   3.387  48.494  1.00  0.00     0.206 C 
ENDBRANCH   8  30
TORSDOF 2
ENDMDL
MODEL 5
REMARK VINA RESULT:      -8.8      1.720      3.986
REMARK  2 active torsions:
REMARK  status: ('A' for Active; 'I' for Inactive)
REMARK    1  A    between atoms: C6_7  and  P1_8 
REMARK    2  A    between atoms: P1_8  and  O2_9 
ROOT
HETATM    1  C1  UNL     1      17.203  -0.905  52.054  1.00  0.00     0.000 C 
HETATM    2  O1  UNL     1      18.317  -0.493  51.295  1.00  0.00     0.000 OA
HETATM    3  C2  UNL     1      18.337   0.928  50.800  1.00  0.00     0.044 A 
HETATM    4  C3  UNL     1      19.385   0.569  52.092  1.00  0.00     0.072 A 
HETATM    5  C4  UNL     1      20.298   1.646  52.719  1.00  0.00     0.028 A 
HETATM    6  C5  UNL     1      20.461   2.971  52.419  1.00  0.00     0.048 A 
HETATM    7  C6  UNL     1      19.656   2.196  51.812  1.00  0.00     0.040 A 
HETATM    8  P1  UNL     1      18.723   1.309  51.091  1.00  0.00     0.007 P 
HETATM    9  C8  UNL     1      19.941   3.951  51.500  1.00  0.00     0.073 A 
HETATM   10  O3  UNL     1      19.452   4.876  50.630  1.00  0.00     0.000 OA
HETATM   11  N1  UNL     1      20.626   4.247  50.397  1.00  0.00    -0.243 N 
HETATM   12  C9  UNL     1      21.864   3.573  50.168  1.00  0.00     0.234 C 
HETATM   13  N2  UNL     1      22.480   4.449  50.876  1.00  0.00    -0.234 NA
HETATM   14  C10 UNL     1      23.852   4.495  51.161  1.00  0.00     0.256 C 
HETATM   15  N3  UNL     1      23.540   3.642  52.067  1.00  0.00    -0.168 NA
HETATM   16  N4  UNL     1      24.425   3.051  52.971  1.00  0.00    -0.277 N 
HETATM   17  C11 UNL     1      24.912   1.739  53.177  1.00  0.00     0.059 A 
HETATM   18  C12 UNL     1      26.202   1.755  53.649  1.00  0.00     0.050 A 
HETATM   19  C13 UNL     1      26.899   0.572  53.918  1.00  0.00     0.013 A 
HETATM   20 BR1  UNL     1      28.682   0.579  54.581  1.00  0.00    -0.051 Br
HETATM   21  C14 UNL     1      26.254  -0.627  53.695  1.00  0.00     0.020 A 
HETATM   22  C15 UNL     1      24.961  -0.587  53.224  1.00  0.00     0.012 A 
HETATM   23  C16 UNL     1      24.226   0.582  52.942  1.00  0.00    -0.002 A 
HETATM   24  C17 UNL     1      22.859   0.276  52.455  1.00  0.00     0.310 C 
HETATM   25  N5  UNL     1      21.926   0.167  53.583  1.00  0.00     0.088 N 
HETATM   26  C18 UNL     1      21.270   1.448  53.863  1.00  0.00     0.282 C 
HETATM   27  H8  UNL     1      18.845   5.669  50.943  1.00  0.00     0.000 HD
HETATM   28  H11 UNL     1      24.719   3.852  53.590  1.00  0.00     0.189 HD
HETATM   29  H17 UNL     1      22.520  -0.116  54.399  1.00  0.00     0.316 HD
ENDROOT
BRANCH   8  30
HETATM   30  O2  UNL     1      17.014  -0.247  49.739  1.00  0.00    -0.373 OA
HETATM   31  C7  UNL     1      16.822   1.108  49.318  1.00  0.00     0.206 C 
ENDBRANCH   8  30
TORSDOF 2
ENDMDL
MODEL 6
REMARK VINA RESULT:      -8.8      4.462      6.956
REMARK  2 active torsions:
REMARK  status: ('A' for Active; 'I' for Inactive)
REMARK    1  A    between atoms: C6_7  and  P1_8 
REMARK    2  A    between atoms: P1_8  and  O2_9 
ROOT
HETATM    1  C1  UNL     1      28.318   0.482  53.859  1.00  0.00     0.000 C 
HETATM    2  O1  UNL     1      27.395   0.237  52.823  1.00  0.00     0.000 OA
HETATM    3  C2  UNL     1      26.148  -0.533  53.166  1.00  0.00     0.044 A 
HETATM    4  C3  UNL     1      25.951   1.139  52.910  1.00  0.00     0.072 A 
HETATM    5  C4  UNL     1      24.570   1.820  53.029  1.00  0.00     0.028 A 
HETATM    6  C5  UNL     1      23.337   1.306  53.327  1.00  0.00     0.048 A 
HETATM    7  C6  UNL     1      24.402   0.616  53.269  1.00  0.00     0.040 A 
HETATM    8  P1  UNL     1      25.629  -0.203  53.198  1.00  0.00     0.007 P 
HETATM    9  C8  UNL     1      22.737   0.039  53.657  1.00  0.00     0.073 A 
HETATM   10  O3  UNL     1      22.169  -1.159  53.966  1.00  0.00     0.000 OA
HETATM   11  N1  UNL     1      22.124  -0.666  52.708  1.00  0.00    -0.243 N 
HETATM   12  C9  UNL     1      22.085  -0.129  51.385  1.00  0.00     0.234 C 
HETATM   13  N2  UNL     1      21.028   0.537  51.678  1.00  0.00    -0.234 NA
HETATM   14  C10 UNL     1      20.306   1.394  50.836  1.00  0.00     0.256 C 
HETATM   15  N3  UNL     1      21.211   2.239  51.167  1.00  0.00    -0.168 NA
HETATM   16  N4  UNL     1      21.292   3.563  50.729  1.00  0.00    -0.277 N 
HETATM   17  C11 UNL     1      22.188   4.289  49.909  1.00  0.00     0.059 A 
HETATM   18  C12 UNL     1      21.535   5.276  49.211  1.00  0.00     0.050 A 
HETATM   19  C13 UNL     1      22.214   6.119  48.325  1.00  0.00     0.013 A 
HETATM   20 BR1  UNL     1      21.324   7.495  47.359  1.00  0.00    -0.051 Br
HETATM   21  C14 UNL     1      23.572   5.935  48.165  1.00  0.00     0.020 A 
HETATM   22  C15 UNL     1      24.177   4.934  48.890  1.00  0.00     0.012 A 
HETATM   23  C16 UNL     1      23.530   4.065  49.791  1.00  0.00    -0.002 A 
HETATM   24  C17 UNL     1      24.472   3.103  50.412  1.00  0.00     0.310 C 
HETATM   25  N5  UNL     1      25.048   3.670  51.638  1.00  0.00     0.088 N 
HETATM   26  C18 UNL     1      24.270   3.290  52.822  1.00  0.00     0.282 C 
HETATM   27  H8  UNL     1      21.790  -1.366  54.919  1.00  0.00     0.000 HD
HETATM   28  H11 UNL     1      20.460   4.025  51.180  1.00  0.00     0.189 HD
HETATM   29  H17 UNL     1      25.005   4.708  51.503  1.00  0.00     0.316 HD
ENDROOT
BRANCH   8  30
HETATM   30  O2  UNL     1      27.813  -1.748  53.081  1.00  0.00    -0.373 OA
HETATM   31  C7  UNL     1      26.772  -2.378  52.327  1.00  0.00     0.206 C 
ENDBRANCH   8  30
TORSDOF 2
ENDMDL
MODEL 7
REMARK VINA RESULT:      -8.7      3.678      5.779
REMARK  2 active torsions:
REMARK  status: ('A' for Active; 'I' for Inactive)
REMARK    1  A    between atoms: C6_7  and  P1_8 
REMARK    2  A    between atoms: P1_8  and  O2_9 
ROOT
HETATM    1  C1  UNL     1      21.185   0.087  54.395  1.00  0.00     0.000 C 
HETATM    2  O1  UNL     1      21.263   0.354  53.013  1.00  0.00     0.000 OA
HETATM    3  C2  UNL     1      20.140   1.137  52.388  1.00  0.00     0.044 A 
HETATM    4  C3  UNL     1      21.607   1.973  52.606  1.00  0.00     0.072 A 
HETATM    5  C4  UNL     1      21.768   3.451  52.188  1.00  0.00     0.028 A 
HETATM    6  C5  UNL     1      20.883   4.324  51.615  1.00  0.00     0.048 A 
HETATM    7  C6  UNL     1      20.605   3.120  51.913  1.00  0.00     0.040 A 
HETATM    8  P1  UNL     1      20.268   1.722  52.244  1.00  0.00     0.007 P 
HETATM    9  C8  UNL     1      19.516   4.349  51.164  1.00  0.00     0.073 A 
HETATM   10  O3  UNL     1      18.224   4.371  50.735  1.00  0.00     0.000 OA
HETATM   11  N1  UNL     1      19.247   4.184  49.870  1.00  0.00    -0.243 N 
HETATM   12  C9  UNL     1      20.339   3.988  48.972  1.00  0.00     0.234 C 
HETATM   13  N2  UNL     1      20.482   5.258  48.857  1.00  0.00    -0.234 NA
HETATM   14  C10 UNL     1      21.431   5.937  48.080  1.00  0.00     0.256 C 
HETATM   15  N3  UNL     1      22.197   5.707  49.083  1.00  0.00    -0.168 NA
HETATM   16  N4  UNL     1      23.535   6.093  49.194  1.00  0.00    -0.277 N 
HETATM   17  C11 UNL     1      24.770   5.405  49.243  1.00  0.00     0.059 A 
HETATM   18  C12 UNL     1      25.772   6.138  48.657  1.00  0.00     0.050 A 
HETATM   19  C13 UNL     1      27.084   5.656  48.577  1.00  0.00     0.013 A 
HETATM   20 BR1  UNL     1      28.484   6.665  47.777  1.00  0.00    -0.051 Br
HETATM   21  C14 UNL     1      27.351   4.410  49.106  1.00  0.00     0.020 A 
HETATM   22  C15 UNL     1      26.311   3.718  49.684  1.00  0.00     0.012 A 
HETATM   23  C16 UNL     1      24.979   4.168  49.785  1.00  0.00    -0.002 A 
HETATM   24  C17 UNL     1      24.108   3.183  50.469  1.00  0.00     0.310 C 
HETATM   25  N5  UNL     1      24.115   3.414  51.919  1.00  0.00     0.088 N 
HETATM   26  C18 UNL     1      23.017   4.296  52.327  1.00  0.00     0.282 C 
HETATM   27  H8  UNL     1      17.484   4.925  51.225  1.00  0.00     0.000 HD
HETATM   28  H11 UNL     1      23.487   7.143  49.258  1.00  0.00     0.189 HD
HETATM   29  H17 UNL     1      25.035   3.876  52.115  1.00  0.00     0.316 HD
ENDROOT
BRANCH   8  30
HETATM   30  O2  UNL     1      19.591  -0.805  52.815  1.00  0.00    -0.373 OA
HETATM   31  C7  UNL     1      18.536  -0.217  52.046  1.00  0.00     0.206 C 
ENDBRANCH   8  30
TORSDOF 2
ENDMDL
MODEL 8
REMARK VINA RESULT:      -8.4      4.381      6.575
REMARK  2 active torsions:
REMARK  status: ('A' for Active; 'I' for Inactive)
REMARK    1  A    between atoms: C6_7  and  P1_8 
REMARK    2  A    between atoms: P1_8  and  O2_9 
ROOT
HETATM    1  C1  UNL     1      21.206   7.932  47.646  1.00  0.00     0.000 C 
HETATM    2  O1  UNL     1      21.910   6.716  47.548  1.00  0.00     0.000 OA
HETATM    3  C2  UNL     1      23.412   6.770  47.626  1.00  0.00     0.044 A 
HETATM    4  C3  UNL     1      22.611   6.165  49.001  1.00  0.00     0.072 A 
HETATM    5  C4  UNL     1      23.387   5.704  50.254  1.00  0.00     0.028 A 
HETATM    6  C5  UNL     1      24.729   5.674  50.520  1.00  0.00     0.048 A 
HETATM    7  C6  UNL     1      24.227   6.092  49.430  1.00  0.00     0.040 A 
HETATM    8  P1  UNL     1      23.661   6.571  48.153  1.00  0.00     0.007 P 
HETATM    9  C8  UNL     1      25.973   6.016  49.880  1.00  0.00     0.073 A 
HETATM   10  O3  UNL     1      27.149   6.337  49.273  1.00  0.00     0.000 OA
HETATM   11  N1  UNL     1      26.692   5.064  49.287  1.00  0.00    -0.243 N 
HETATM   12  C9  UNL     1      26.194   3.726  49.312  1.00  0.00     0.234 C 
HETATM   13  N2  UNL     1      26.744   3.535  50.455  1.00  0.00    -0.234 NA
HETATM   14  C10 UNL     1      26.714   2.363  51.224  1.00  0.00     0.256 C 
HETATM   15  N3  UNL     1      25.570   2.810  51.591  1.00  0.00    -0.168 NA
HETATM   16  N4  UNL     1      24.700   2.190  52.490  1.00  0.00    -0.277 N 
HETATM   17  C11 UNL     1      23.424   1.586  52.388  1.00  0.00     0.059 A 
HETATM   18  C12 UNL     1      23.292   0.548  53.277  1.00  0.00     0.050 A 
HETATM   19  C13 UNL     1      22.117  -0.208  53.353  1.00  0.00     0.013 A 
HETATM   20 BR1  UNL     1      21.917  -1.644  54.585  1.00  0.00    -0.051 Br
HETATM   21  C14 UNL     1      21.080   0.117  52.503  1.00  0.00     0.020 A 
HETATM   22  C15 UNL     1      21.263   1.168  51.634  1.00  0.00     0.012 A 
HETATM   23  C16 UNL     1      22.429   1.953  51.527  1.00  0.00    -0.002 A 
HETATM   24  C17 UNL     1      22.298   3.010  50.495  1.00  0.00     0.310 C 
HETATM   25  N5  UNL     1      21.735   4.231  51.083  1.00  0.00     0.088 N 
HETATM   26  C18 UNL     1      22.789   5.147  51.530  1.00  0.00     0.282 C 
HETATM   27  H8  UNL     1      27.742   7.137  49.596  1.00  0.00     0.000 HD
HETATM   28  H11 UNL     1      25.207   2.255  53.411  1.00  0.00     0.189 HD
HETATM   29  H17 UNL     1      21.176   3.903  51.906  1.00  0.00     0.316 HD
ENDROOT
BRANCH   8  30
HETATM   30  O2  UNL     1      22.703   7.451  45.813  1.00  0.00    -0.373 OA
HETATM   31  C7  UNL     1      24.104   7.738  45.864  1.00  0.00     0.206 C 
ENDBRANCH   8  30
TORSDOF 2
ENDMDL
MODEL 9
REMARK VINA RESULT:      -8.3      5.400      7.639
REMARK  2 active torsions:
REMARK  status: ('A' for Active; 'I' for Inactive)
REMARK    1  A    between atoms: C6_7  and  P1_8 
REMARK    2  A    between atoms: P1_8  and  O2_9 
ROOT
HETATM    1  C1  UNL     1      20.700   3.023  52.356  1.00  0.00     0.000 C 
HETATM    2  O1  UNL     1      21.043   3.494  51.073  1.00  0.00     0.000 OA
HETATM    3  C2  UNL     1      20.428   4.791  50.618  1.00  0.00     0.044 A 
HETATM    4  C3  UNL     1      22.073   4.852  51.051  1.00  0.00     0.072 A 
HETATM    5  C4  UNL     1      22.882   6.166  50.982  1.00  0.00     0.028 A 
HETATM    6  C5  UNL     1      22.513   7.429  50.603  1.00  0.00     0.048 A 
HETATM    7  C6  UNL     1      21.727   6.430  50.614  1.00  0.00     0.040 A 
HETATM    8  P1  UNL     1      20.803   5.279  50.613  1.00  0.00     0.007 P 
HETATM    9  C8  UNL     1      21.343   8.128  50.140  1.00  0.00     0.073 A 
HETATM   10  O3  UNL     1      20.236   8.788  49.700  1.00  0.00     0.000 OA
HETATM   11  N1  UNL     1      21.182   8.351  48.837  1.00  0.00    -0.243 N 
HETATM   12  C9  UNL     1      22.190   7.883  47.941  1.00  0.00     0.234 C 
HETATM   13  N2  UNL     1      22.861   8.963  48.120  1.00  0.00    -0.234 NA
HETATM   14  C10 UNL     1      24.089   9.304  47.537  1.00  0.00     0.256 C 
HETATM   15  N3  UNL     1      24.568   8.575  48.478  1.00  0.00    -0.168 NA
HETATM   16  N4  UNL     1      25.922   8.316  48.701  1.00  0.00    -0.277 N 
HETATM   17  C11 UNL     1      26.745   7.168  48.619  1.00  0.00     0.059 A 
HETATM   18  C12 UNL     1      28.022   7.496  48.237  1.00  0.00     0.050 A 
HETATM   19  C13 UNL     1      29.013   6.522  48.077  1.00  0.00     0.013 A 
HETATM   20 BR1  UNL     1      30.789   6.963  47.556  1.00  0.00    -0.051 Br
HETATM   21  C14 UNL     1      28.675   5.206  48.316  1.00  0.00     0.020 A 
HETATM   22  C15 UNL     1      27.382   4.931  48.700  1.00  0.00     0.012 A 
HETATM   23  C16 UNL     1      26.356   5.883  48.872  1.00  0.00    -0.002 A 
HETATM   24  C17 UNL     1      25.081   5.257  49.297  1.00  0.00     0.310 C 
HETATM   25  N5  UNL     1      25.015   5.174  50.761  1.00  0.00     0.088 N 
HETATM   26  C18 UNL     1      24.343   6.344  51.335  1.00  0.00     0.282 C 
HETATM   27  H8  UNL     1      19.743   9.500  50.287  1.00  0.00     0.000 HD
HETATM   28  H11 UNL     1      26.308   9.250  49.001  1.00  0.00     0.189 HD
HETATM   29  H17 UNL     1      26.014   5.146  51.076  1.00  0.00     0.316 HD
ENDROOT
BRANCH   8  30
HETATM   30  O2  UNL     1      19.075   3.233  50.582  1.00  0.00    -0.373 OA
HETATM   31  C7  UNL     1      18.432   4.377  50.011  1.00  0.00     0.206 C 
ENDBRANCH   8  30
TORSDOF 2
ENDMDL
