MODEL 1
REMARK VINA RESULT:      -8.6      0.000      0.000
REMARK  8 active torsions:
REMARK  status: ('A' for Active; 'I' for Inactive)
REMARK    1  A    between atoms: O1_2  and  C2_3 
REMARK    2  A    between atoms: C4_5  and  C5_6 
REMARK    3  A    between atoms: C6_7  and  C7_8 
REMARK    4  A    between atoms: C7_8  and  C8_9 
REMARK    5  A    between atoms: C10_11  and  C11_12 
REMARK    6  A    between atoms: C14_15  and  O2_16 
REMARK    7  A    between atoms: N2_21  and  C18_22 
REMARK    8  A    between atoms: C19_24  and  O3_25 
ROOT
HETATM    1  C8  UNL     1      25.716   1.932  53.082  1.00  0.00     0.122 C 
HETATM    2  C9  UNL     1      24.281   1.736  52.648  1.00  0.00     0.089 C 
HETATM    3  C10 UNL     1      23.949   0.420  53.252  1.00  0.00     0.067 C 
HETATM    4  N1  UNL     1      25.022  -0.188  53.632  1.00  0.00    -0.174 NA
HETATM    5  N2  UNL     1      26.150   0.603  53.347  1.00  0.00    -0.240 N 
ENDROOT
BRANCH   1   6
HETATM    6  C7  UNL     1      26.521   2.724  52.120  1.00  0.00     0.055 C 
BRANCH   6   7
HETATM    7  C6  UNL     1      26.607   2.212  50.755  1.00  0.00    -0.024 C 
HETATM    8  C5  UNL     1      26.207   2.861  49.646  1.00  0.00     0.007 C 
BRANCH   8   9
HETATM    9  C4  UNL     1      25.653   4.170  49.882  1.00  0.00    -0.005 A 
HETATM   10  C2  UNL     1      24.937   5.348  50.243  1.00  0.00     0.156 A 
HETATM   11  C3  UNL     1      26.032   5.444  49.517  1.00  0.00     0.005 A 
BRANCH  10  12
HETATM   12  O1  UNL     1      24.944   6.716  50.115  1.00  0.00    -0.371 OA
HETATM   13  C1  UNL     1      24.111   7.566  50.923  1.00  0.00     0.203 C 
ENDBRANCH  10  12
ENDBRANCH   8   9
ENDBRANCH   6   7
ENDBRANCH   1   6
BRANCH   5  14
HETATM   14  C18 UNL     1      27.386  -0.169  53.419  1.00  0.00     0.192 A 
HETATM   15  N3  UNL     1      27.436  -1.561  53.301  1.00  0.00    -0.198 NA
HETATM   16  C19 UNL     1      28.682  -1.993  53.401  1.00  0.00     0.171 A 
HETATM   17  C20 UNL     1      29.843  -1.275  53.592  1.00  0.00     0.111 A 
HETATM   18  S1  UNL     1      29.180   0.408  53.667  1.00  0.00    -0.058 SA
BRANCH  16  19
HETATM   19  O3  UNL     1      28.664  -3.403  53.275  1.00  0.00    -0.344 OA
HETATM   20  H18 UNL     1      27.953  -3.891  53.832  1.00  0.00     0.219 HD
ENDBRANCH  16  19
ENDBRANCH   5  14
BRANCH   3  21
HETATM   21  C11 UNL     1      22.577  -0.106  53.389  1.00  0.00    -0.010 A 
HETATM   22  C12 UNL     1      21.594   0.489  52.641  1.00  0.00     0.016 A 
HETATM   23  C13 UNL     1      20.277   0.083  52.685  1.00  0.00     0.037 A 
HETATM   24  C14 UNL     1      19.965  -0.978  53.534  1.00  0.00     0.068 A 
HETATM   25  C16 UNL     1      20.986  -1.548  54.270  1.00  0.00     0.037 A 
HETATM   26  C17 UNL     1      22.305  -1.155  54.238  1.00  0.00     0.016 A 
BRANCH  24  27
HETATM   27  O2  UNL     1      18.652  -1.422  53.613  1.00  0.00    -0.356 OA
HETATM   28  C15 UNL     1      17.761  -0.992  52.599  1.00  0.00     0.210 C 
ENDBRANCH  24  27
ENDBRANCH   3  21
TORSDOF 8
ENDMDL
MODEL 2
REMARK VINA RESULT:      -8.2      1.661      6.425
REMARK  8 active torsions:
REMARK  status: ('A' for Active; 'I' for Inactive)
REMARK    1  A    between atoms: O1_2  and  C2_3 
REMARK    2  A    between atoms: C4_5  and  C5_6 
REMARK    3  A    between atoms: C6_7  and  C7_8 
REMARK    4  A    between atoms: C7_8  and  C8_9 
REMARK    5  A    between atoms: C10_11  and  C11_12 
REMARK    6  A    between atoms: C14_15  and  O2_16 
REMARK    7  A    between atoms: N2_21  and  C18_22 
REMARK    8  A    between atoms: C19_24  and  O3_25 
ROOT
HETATM    1  C8  UNL     1      24.960   0.958  52.111  1.00  0.00     0.122 C 
HETATM    2  C9  UNL     1      24.668   2.384  51.700  1.00  0.00     0.089 C 
HETATM    3  C10 UNL     1      25.918   2.768  50.995  1.00  0.00     0.067 C 
HETATM    4  N1  UNL     1      26.858   1.921  51.246  1.00  0.00    -0.174 NA
HETATM    5  N2  UNL     1      26.383   0.914  52.105  1.00  0.00    -0.240 N 
ENDROOT
BRANCH   1   6
HETATM    6  C7  UNL     1      24.280   0.555  53.366  1.00  0.00     0.055 C 
BRANCH   6   7
HETATM    7  C6  UNL     1      23.643  -0.760  53.377  1.00  0.00    -0.024 C 
HETATM    8  C5  UNL     1      22.324  -0.995  53.255  1.00  0.00     0.007 C 
BRANCH   8   9
HETATM    9  C4  UNL     1      21.514   0.187  53.103  1.00  0.00    -0.005 A 
HETATM   10  C2  UNL     1      20.758   1.393  53.188  1.00  0.00     0.156 A 
HETATM   11  C3  UNL     1      20.863   0.766  52.034  1.00  0.00     0.005 A 
BRANCH  10  12
HETATM   12  O1  UNL     1      20.002   2.265  52.443  1.00  0.00    -0.371 OA
HETATM   13  C1  UNL     1      20.481   3.571  52.073  1.00  0.00     0.203 C 
ENDBRANCH  10  12
ENDBRANCH   8   9
ENDBRANCH   6   7
ENDBRANCH   1   6
BRANCH   5  14
HETATM   14  C18 UNL     1      27.473   0.150  52.701  1.00  0.00     0.192 A 
HETATM   15  N3  UNL     1      27.552  -1.245  52.659  1.00  0.00    -0.198 NA
HETATM   16  C19 UNL     1      28.645  -1.670  53.273  1.00  0.00     0.171 A 
HETATM   17  C20 UNL     1      29.634  -0.940  53.898  1.00  0.00     0.111 A 
HETATM   18  S1  UNL     1      29.016   0.741  53.641  1.00  0.00    -0.058 SA
BRANCH  16  19
HETATM   19  O3  UNL     1      28.665  -3.082  53.197  1.00  0.00    -0.344 OA
HETATM   20  H18 UNL     1      29.571  -3.503  52.960  1.00  0.00     0.219 HD
ENDBRANCH  16  19
ENDBRANCH   5  14
BRANCH   3  21
HETATM   21  C11 UNL     1      26.050   3.958  50.132  1.00  0.00    -0.010 A 
HETATM   22  C12 UNL     1      25.027   4.871  50.153  1.00  0.00     0.016 A 
HETATM   23  C13 UNL     1      25.039   6.020  49.392  1.00  0.00     0.037 A 
HETATM   24  C14 UNL     1      26.151   6.233  48.578  1.00  0.00     0.068 A 
HETATM   25  C16 UNL     1      27.159   5.288  48.587  1.00  0.00     0.037 A 
HETATM   26  C17 UNL     1      27.162   4.136  49.341  1.00  0.00     0.016 A 
BRANCH  24  27
HETATM   27  O2  UNL     1      26.208   7.376  47.792  1.00  0.00    -0.356 OA
HETATM   28  C15 UNL     1      24.978   7.981  47.438  1.00  0.00     0.210 C 
ENDBRANCH  24  27
ENDBRANCH   3  21
TORSDOF 8
ENDMDL
MODEL 3
REMARK VINA RESULT:      -8.1      2.703      8.005
REMARK  8 active torsions:
REMARK  status: ('A' for Active; 'I' for Inactive)
REMARK    1  A    between atoms: O1_2  and  C2_3 
REMARK    2  A    between atoms: C4_5  and  C5_6 
REMARK    3  A    between atoms: C6_7  and  C7_8 
REMARK    4  A    between atoms: C7_8  and  C8_9 
REMARK    5  A    between atoms: C10_11  and  C11_12 
REMARK    6  A    between atoms: C14_15  and  O2_16 
REMARK    7  A    between atoms: N2_21  and  C18_22 
REMARK    8  A    between atoms: C19_24  and  O3_25 
ROOT
HETATM    1  C8  UNL     1      25.057   2.198  50.601  1.00  0.00     0.122 C 
HETATM    2  C9  UNL     1      24.838   3.565  49.994  1.00  0.00     0.089 C 
HETATM    3  C10 UNL     1      26.228   4.071  49.852  1.00  0.00     0.067 C 
HETATM    4  N1  UNL     1      27.045   3.348  50.540  1.00  0.00    -0.174 NA
HETATM    5  N2  UNL     1      26.344   2.320  51.197  1.00  0.00    -0.240 N 
ENDROOT
BRANCH   1   6
HETATM    6  C7  UNL     1      23.947   1.758  51.481  1.00  0.00     0.055 C 
BRANCH   6   7
HETATM    7  C6  UNL     1      22.650   1.543  50.847  1.00  0.00    -0.024 C 
HETATM    8  C5  UNL     1      21.698   0.691  51.273  1.00  0.00     0.007 C 
BRANCH   8   9
HETATM    9  C4  UNL     1      22.041  -0.048  52.460  1.00  0.00    -0.005 A 
HETATM   10  C2  UNL     1      22.524  -0.909  53.489  1.00  0.00     0.156 A 
HETATM   11  C3  UNL     1      21.676   0.055  53.786  1.00  0.00     0.005 A 
BRANCH  10  12
HETATM   12  O1  UNL     1      22.441  -1.156  54.838  1.00  0.00    -0.371 OA
HETATM   13  C1  UNL     1      23.606  -1.394  55.647  1.00  0.00     0.203 C 
ENDBRANCH  10  12
ENDBRANCH   8   9
ENDBRANCH   6   7
ENDBRANCH   1   6
BRANCH   5  14
HETATM   14  C18 UNL     1      27.142   1.708  52.253  1.00  0.00     0.192 A 
HETATM   15  N3  UNL     1      28.100   2.402  52.999  1.00  0.00    -0.198 NA
HETATM   16  C19 UNL     1      28.667   1.604  53.888  1.00  0.00     0.171 A 
HETATM   17  C20 UNL     1      28.431   0.269  54.139  1.00  0.00     0.111 A 
HETATM   18  S1  UNL     1      27.141  -0.073  52.916  1.00  0.00    -0.058 SA
BRANCH  16  19
HETATM   19  O3  UNL     1      29.622   2.362  54.605  1.00  0.00    -0.344 OA
HETATM   20  H18 UNL     1      30.599   2.241  54.313  1.00  0.00     0.219 HD
ENDBRANCH  16  19
ENDBRANCH   5  14
BRANCH   3  21
HETATM   21  C11 UNL     1      26.604   5.240  49.033  1.00  0.00    -0.010 A 
HETATM   22  C12 UNL     1      27.913   5.339  48.638  1.00  0.00     0.016 A 
HETATM   23  C13 UNL     1      28.381   6.384  47.870  1.00  0.00     0.037 A 
HETATM   24  C14 UNL     1      27.461   7.363  47.498  1.00  0.00     0.068 A 
HETATM   25  C16 UNL     1      26.152   7.224  47.918  1.00  0.00     0.037 A 
HETATM   26  C17 UNL     1      25.669   6.187  48.684  1.00  0.00     0.016 A 
BRANCH  24  27
HETATM   27  O2  UNL     1      27.885   8.436  46.725  1.00  0.00    -0.356 OA
HETATM   28  C15 UNL     1      29.181   8.946  46.981  1.00  0.00     0.210 C 
ENDBRANCH  24  27
ENDBRANCH   3  21
TORSDOF 8
ENDMDL
MODEL 4
REMARK VINA RESULT:      -7.7      2.362      6.910
REMARK  8 active torsions:
REMARK  status: ('A' for Active; 'I' for Inactive)
REMARK    1  A    between atoms: O1_2  and  C2_3 
REMARK    2  A    between atoms: C4_5  and  C5_6 
REMARK    3  A    between atoms: C6_7  and  C7_8 
REMARK    4  A    between atoms: C7_8  and  C8_9 
REMARK    5  A    between atoms: C10_11  and  C11_12 
REMARK    6  A    between atoms: C14_15  and  O2_16 
REMARK    7  A    between atoms: N2_21  and  C18_22 
REMARK    8  A    between atoms: C19_24  and  O3_25 
ROOT
HETATM    1  C8  UNL     1      24.740   1.638  51.902  1.00  0.00     0.122 C 
HETATM    2  C9  UNL     1      24.244   2.945  51.326  1.00  0.00     0.089 C 
HETATM    3  C10 UNL     1      25.486   3.526  50.755  1.00  0.00     0.067 C 
HETATM    4  N1  UNL     1      26.525   2.904  51.202  1.00  0.00    -0.174 NA
HETATM    5  N2  UNL     1      26.130   1.880  52.083  1.00  0.00    -0.240 N 
ENDROOT
BRANCH   1   6
HETATM    6  C7  UNL     1      23.975   1.189  53.091  1.00  0.00     0.055 C 
BRANCH   6   7
HETATM    7  C6  UNL     1      23.673  -0.237  53.180  1.00  0.00    -0.024 C 
HETATM    8  C5  UNL     1      22.490  -0.809  52.894  1.00  0.00     0.007 C 
BRANCH   8   9
HETATM    9  C4  UNL     1      21.465   0.109  52.468  1.00  0.00    -0.005 A 
HETATM   10  C2  UNL     1      20.451   1.094  52.276  1.00  0.00     0.156 A 
HETATM   11  C3  UNL     1      20.867   0.373  51.254  1.00  0.00     0.005 A 
BRANCH  10  12
HETATM   12  O1  UNL     1      19.638   1.654  51.322  1.00  0.00    -0.371 OA
HETATM   13  C1  UNL     1      18.422   2.345  51.662  1.00  0.00     0.203 C 
ENDBRANCH  10  12
ENDBRANCH   8   9
ENDBRANCH   6   7
ENDBRANCH   1   6
BRANCH   5  14
HETATM   14  C18 UNL     1      27.249   1.392  52.882  1.00  0.00     0.192 A 
HETATM   15  N3  UNL     1      28.118   2.228  53.588  1.00  0.00    -0.198 NA
HETATM   16  C19 UNL     1      29.035   1.518  54.225  1.00  0.00     0.171 A 
HETATM   17  C20 UNL     1      29.208   0.151  54.265  1.00  0.00     0.111 A 
HETATM   18  S1  UNL     1      27.841  -0.385  53.207  1.00  0.00    -0.058 SA
BRANCH  16  19
HETATM   19  O3  UNL     1      29.879   2.420  54.916  1.00  0.00    -0.344 OA
HETATM   20  H18 UNL     1      30.000   2.237  55.919  1.00  0.00     0.219 HD
ENDBRANCH  16  19
ENDBRANCH   5  14
BRANCH   3  21
HETATM   21  C11 UNL     1      25.512   4.659  49.809  1.00  0.00    -0.010 A 
HETATM   22  C12 UNL     1      26.731   5.034  49.306  1.00  0.00     0.016 A 
HETATM   23  C13 UNL     1      26.880   6.076  48.415  1.00  0.00     0.037 A 
HETATM   24  C14 UNL     1      25.724   6.754  48.029  1.00  0.00     0.068 A 
HETATM   25  C16 UNL     1      24.517   6.343  48.560  1.00  0.00     0.037 A 
HETATM   26  C17 UNL     1      24.352   5.305  49.451  1.00  0.00     0.016 A 
BRANCH  24  27
HETATM   27  O2  UNL     1      25.823   7.811  47.134  1.00  0.00    -0.356 OA
HETATM   28  C15 UNL     1      24.689   8.088  46.332  1.00  0.00     0.210 C 
ENDBRANCH  24  27
ENDBRANCH   3  21
TORSDOF 8
ENDMDL
MODEL 5
REMARK VINA RESULT:      -7.4      2.039      2.528
REMARK  8 active torsions:
REMARK  status: ('A' for Active; 'I' for Inactive)
REMARK    1  A    between atoms: O1_2  and  C2_3 
REMARK    2  A    between atoms: C4_5  and  C5_6 
REMARK    3  A    between atoms: C6_7  and  C7_8 
REMARK    4  A    between atoms: C7_8  and  C8_9 
REMARK    5  A    between atoms: C10_11  and  C11_12 
REMARK    6  A    between atoms: C14_15  and  O2_16 
REMARK    7  A    between atoms: N2_21  and  C18_22 
REMARK    8  A    between atoms: C19_24  and  O3_25 
ROOT
HETATM    1  C8  UNL     1      24.138   3.009  52.242  1.00  0.00     0.122 C 
HETATM    2  C9  UNL     1      22.816   2.503  51.711  1.00  0.00     0.089 C 
HETATM    3  C10 UNL     1      22.586   1.294  52.543  1.00  0.00     0.067 C 
HETATM    4  N1  UNL     1      23.669   0.954  53.156  1.00  0.00    -0.174 NA
HETATM    5  N2  UNL     1      24.708   1.846  52.830  1.00  0.00    -0.240 N 
ENDROOT
BRANCH   1   6
HETATM    6  C7  UNL     1      24.952   3.717  51.224  1.00  0.00     0.055 C 
BRANCH   6   7
HETATM    7  C6  UNL     1      25.785   2.890  50.355  1.00  0.00    -0.024 C 
HETATM    8  C5  UNL     1      26.576   3.340  49.364  1.00  0.00     0.007 C 
BRANCH   8   9
HETATM    9  C4  UNL     1      26.563   4.770  49.187  1.00  0.00    -0.005 A 
HETATM   10  C2  UNL     1      26.348   6.179  49.146  1.00  0.00     0.156 A 
HETATM   11  C3  UNL     1      27.404   5.659  48.553  1.00  0.00     0.005 A 
BRANCH  10  12
HETATM   12  O1  UNL     1      26.879   7.353  48.670  1.00  0.00    -0.371 OA
HETATM   13  C1  UNL     1      26.709   7.772  47.304  1.00  0.00     0.203 C 
ENDBRANCH  10  12
ENDBRANCH   8   9
ENDBRANCH   6   7
ENDBRANCH   1   6
BRANCH   5  14
HETATM   14  C18 UNL     1      26.015   1.312  53.197  1.00  0.00     0.192 A 
HETATM   15  N3  UNL     1      26.995   2.056  53.862  1.00  0.00    -0.198 NA
HETATM   16  C19 UNL     1      28.076   1.323  54.070  1.00  0.00     0.171 A 
HETATM   17  C20 UNL     1      28.319   0.010  53.729  1.00  0.00     0.111 A 
HETATM   18  S1  UNL     1      26.755  -0.418  52.925  1.00  0.00    -0.058 SA
BRANCH  16  19
HETATM   19  O3  UNL     1      29.024   2.130  54.742  1.00  0.00    -0.344 OA
HETATM   20  H18 UNL     1      30.004   1.988  54.470  1.00  0.00     0.219 HD
ENDBRANCH  16  19
ENDBRANCH   5  14
BRANCH   3  21
HETATM   21  C11 UNL     1      21.292   0.591  52.644  1.00  0.00    -0.010 A 
HETATM   22  C12 UNL     1      21.159  -0.348  53.634  1.00  0.00     0.016 A 
HETATM   23  C13 UNL     1      19.998  -1.066  53.826  1.00  0.00     0.037 A 
HETATM   24  C14 UNL     1      18.936  -0.804  52.962  1.00  0.00     0.068 A 
HETATM   25  C16 UNL     1      19.113   0.151  51.979  1.00  0.00     0.037 A 
HETATM   26  C17 UNL     1      20.266   0.876  51.773  1.00  0.00     0.016 A 
BRANCH  24  27
HETATM   27  O2  UNL     1      17.746  -1.502  53.115  1.00  0.00    -0.356 OA
HETATM   28  C15 UNL     1      17.818  -2.777  53.728  1.00  0.00     0.210 C 
ENDBRANCH  24  27
ENDBRANCH   3  21
TORSDOF 8
ENDMDL
MODEL 6
REMARK VINA RESULT:      -7.4      2.159      2.664
REMARK  8 active torsions:
REMARK  status: ('A' for Active; 'I' for Inactive)
REMARK    1  A    between atoms: O1_2  and  C2_3 
REMARK    2  A    between atoms: C4_5  and  C5_6 
REMARK    3  A    between atoms: C6_7  and  C7_8 
REMARK    4  A    between atoms: C7_8  and  C8_9 
REMARK    5  A    between atoms: C10_11  and  C11_12 
REMARK    6  A    between atoms: C14_15  and  O2_16 
REMARK    7  A    between atoms: N2_21  and  C18_22 
REMARK    8  A    between atoms: C19_24  and  O3_25 
ROOT
HETATM    1  C8  UNL     1      24.835   2.581  51.168  1.00  0.00     0.122 C 
HETATM    2  C9  UNL     1      23.496   1.972  50.815  1.00  0.00     0.089 C 
HETATM    3  C10 UNL     1      23.180   1.185  52.034  1.00  0.00     0.067 C 
HETATM    4  N1  UNL     1      24.228   1.055  52.774  1.00  0.00    -0.174 NA
HETATM    5  N2  UNL     1      25.324   1.705  52.177  1.00  0.00    -0.240 N 
ENDROOT
BRANCH   1   6
HETATM    6  C7  UNL     1      25.709   2.808  49.992  1.00  0.00     0.055 C 
BRANCH   6   7
HETATM    7  C6  UNL     1      26.458   4.061  49.959  1.00  0.00    -0.024 C 
HETATM    8  C5  UNL     1      26.010   5.231  49.466  1.00  0.00     0.007 C 
BRANCH   8   9
HETATM    9  C4  UNL     1      24.671   5.187  48.936  1.00  0.00    -0.005 A 
HETATM   10  C2  UNL     1      23.336   4.923  48.512  1.00  0.00     0.156 A 
HETATM   11  C3  UNL     1      23.896   6.082  48.231  1.00  0.00     0.005 A 
BRANCH  10  12
HETATM   12  O1  UNL     1      22.272   5.476  47.841  1.00  0.00    -0.371 OA
HETATM   13  C1  UNL     1      20.931   5.429  48.360  1.00  0.00     0.203 C 
ENDBRANCH  10  12
ENDBRANCH   8   9
ENDBRANCH   6   7
ENDBRANCH   1   6
BRANCH   5  14
HETATM   14  C18 UNL     1      26.590   1.292  52.772  1.00  0.00     0.192 A 
HETATM   15  N3  UNL     1      27.507   2.184  53.334  1.00  0.00    -0.198 NA
HETATM   16  C19 UNL     1      28.562   1.537  53.801  1.00  0.00     0.171 A 
HETATM   17  C20 UNL     1      28.830   0.185  53.794  1.00  0.00     0.111 A 
HETATM   18  S1  UNL     1      27.344  -0.442  52.972  1.00  0.00    -0.058 SA
BRANCH  16  19
HETATM   19  O3  UNL     1      29.448   2.492  54.353  1.00  0.00    -0.344 OA
HETATM   20  H18 UNL     1      29.049   3.108  55.071  1.00  0.00     0.219 HD
ENDBRANCH  16  19
ENDBRANCH   5  14
BRANCH   3  21
HETATM   21  C11 UNL     1      21.845   0.634  52.341  1.00  0.00    -0.010 A 
HETATM   22  C12 UNL     1      21.699  -0.047  53.521  1.00  0.00     0.016 A 
HETATM   23  C13 UNL     1      20.500  -0.604  53.916  1.00  0.00     0.037 A 
HETATM   24  C14 UNL     1      19.413  -0.450  53.057  1.00  0.00     0.068 A 
HETATM   25  C16 UNL     1      19.605   0.245  51.878  1.00  0.00     0.037 A 
HETATM   26  C17 UNL     1      20.794   0.806  51.470  1.00  0.00     0.016 A 
BRANCH  24  27
HETATM   27  O2  UNL     1      18.186  -0.993  53.411  1.00  0.00    -0.356 OA
HETATM   28  C15 UNL     1      18.150  -2.380  53.697  1.00  0.00     0.210 C 
ENDBRANCH  24  27
ENDBRANCH   3  21
TORSDOF 8
ENDMDL
MODEL 7
REMARK VINA RESULT:      -7.4      3.821      7.294
REMARK  8 active torsions:
REMARK  status: ('A' for Active; 'I' for Inactive)
REMARK    1  A    between atoms: O1_2  and  C2_3 
REMARK    2  A    between atoms: C4_5  and  C5_6 
REMARK    3  A    between atoms: C6_7  and  C7_8 
REMARK    4  A    between atoms: C7_8  and  C8_9 
REMARK    5  A    between atoms: C10_11  and  C11_12 
REMARK    6  A    between atoms: C14_15  and  O2_16 
REMARK    7  A    between atoms: N2_21  and  C18_22 
REMARK    8  A    between atoms: C19_24  and  O3_25 
ROOT
HETATM    1  C8  UNL     1      22.211   2.530  52.256  1.00  0.00     0.122 C 
HETATM    2  C9  UNL     1      23.272   1.455  52.313  1.00  0.00     0.089 C 
HETATM    3  C10 UNL     1      24.488   2.234  52.664  1.00  0.00     0.067 C 
HETATM    4  N1  UNL     1      24.282   3.496  52.493  1.00  0.00    -0.174 NA
HETATM    5  N2  UNL     1      22.971   3.712  52.030  1.00  0.00    -0.240 N 
ENDROOT
BRANCH   1   6
HETATM    6  C7  UNL     1      21.123   2.235  51.292  1.00  0.00     0.055 C 
BRANCH   6   7
HETATM    7  C6  UNL     1      21.157   0.928  50.641  1.00  0.00    -0.024 C 
HETATM    8  C5  UNL     1      21.357   0.709  49.328  1.00  0.00     0.007 C 
BRANCH   8   9
HETATM    9  C4  UNL     1      21.549   1.901  48.542  1.00  0.00    -0.005 A 
HETATM   10  C2  UNL     1      21.554   3.170  47.892  1.00  0.00     0.156 A 
HETATM   11  C3  UNL     1      22.446   2.260  47.559  1.00  0.00     0.005 A 
BRANCH  10  12
HETATM   12  O1  UNL     1      22.208   3.906  46.935  1.00  0.00    -0.371 OA
HETATM   13  C1  UNL     1      21.853   3.841  45.542  1.00  0.00     0.203 C 
ENDBRANCH  10  12
ENDBRANCH   8   9
ENDBRANCH   6   7
ENDBRANCH   1   6
BRANCH   5  14
HETATM   14  C18 UNL     1      22.803   5.054  51.485  1.00  0.00     0.192 A 
HETATM   15  N3  UNL     1      23.797   6.035  51.525  1.00  0.00    -0.198 NA
HETATM   16  C19 UNL     1      23.375   7.152  50.956  1.00  0.00     0.171 A 
HETATM   17  C20 UNL     1      22.157   7.428  50.372  1.00  0.00     0.111 A 
HETATM   18  S1  UNL     1      21.313   5.844  50.607  1.00  0.00    -0.058 SA
BRANCH  16  19
HETATM   19  O3  UNL     1      24.423   8.100  51.030  1.00  0.00    -0.344 OA
HETATM   20  H18 UNL     1      24.147   9.048  51.313  1.00  0.00     0.219 HD
ENDBRANCH  16  19
ENDBRANCH   5  14
BRANCH   3  21
HETATM   21  C11 UNL     1      25.749   1.632  53.140  1.00  0.00    -0.010 A 
HETATM   22  C12 UNL     1      25.656   0.550  53.978  1.00  0.00     0.016 A 
HETATM   23  C13 UNL     1      26.764  -0.096  54.484  1.00  0.00     0.037 A 
HETATM   24  C14 UNL     1      28.014   0.396  54.111  1.00  0.00     0.068 A 
HETATM   25  C16 UNL     1      28.061   1.487  53.265  1.00  0.00     0.037 A 
HETATM   26  C17 UNL     1      26.965   2.143  52.751  1.00  0.00     0.016 A 
BRANCH  24  27
HETATM   27  O2  UNL     1      29.159  -0.221  54.597  1.00  0.00    -0.356 OA
HETATM   28  C15 UNL     1      29.902  -1.014  53.688  1.00  0.00     0.210 C 
ENDBRANCH  24  27
ENDBRANCH   3  21
TORSDOF 8
ENDMDL
MODEL 8
REMARK VINA RESULT:      -7.4      6.690      9.146
REMARK  8 active torsions:
REMARK  status: ('A' for Active; 'I' for Inactive)
REMARK    1  A    between atoms: O1_2  and  C2_3 
REMARK    2  A    between atoms: C4_5  and  C5_6 
REMARK    3  A    between atoms: C6_7  and  C7_8 
REMARK    4  A    between atoms: C7_8  and  C8_9 
REMARK    5  A    between atoms: C10_11  and  C11_12 
REMARK    6  A    between atoms: C14_15  and  O2_16 
REMARK    7  A    between atoms: N2_21  and  C18_22 
REMARK    8  A    between atoms: C19_24  and  O3_25 
ROOT
HETATM    1  C8  UNL     1      30.412   7.210  47.574  1.00  0.00     0.122 C 
HETATM    2  C9  UNL     1      28.900   7.199  47.538  1.00  0.00     0.089 C 
HETATM    3  C10 UNL     1      28.582   5.882  48.146  1.00  0.00     0.067 C 
HETATM    4  N1  UNL     1      29.635   5.138  48.191  1.00  0.00    -0.174 NA
HETATM    5  N2  UNL     1      30.735   5.827  47.648  1.00  0.00    -0.240 N 
ENDROOT
BRANCH   1   6
HETATM    6  C7  UNL     1      31.023   7.987  46.468  1.00  0.00     0.055 C 
BRANCH   6   7
HETATM    7  C6  UNL     1      31.339   9.386  46.742  1.00  0.00    -0.024 C 
HETATM    8  C5  UNL     1      32.444   9.835  47.366  1.00  0.00     0.007 C 
BRANCH   8   9
HETATM    9  C4  UNL     1      33.361   8.803  47.779  1.00  0.00    -0.005 A 
HETATM   10  C2  UNL     1      34.102   7.730  48.356  1.00  0.00     0.156 A 
HETATM   11  C3  UNL     1      34.592   8.384  47.322  1.00  0.00     0.005 A 
BRANCH  10  12
HETATM   12  O1  UNL     1      35.273   7.022  48.239  1.00  0.00    -0.371 OA
HETATM   13  C1  UNL     1      35.521   5.821  48.991  1.00  0.00     0.203 C 
ENDBRANCH  10  12
ENDBRANCH   8   9
ENDBRANCH   6   7
ENDBRANCH   1   6
BRANCH   5  14
HETATM   14  C18 UNL     1      31.843   4.927  47.345  1.00  0.00     0.192 A 
HETATM   15  N3  UNL     1      32.246   3.886  48.187  1.00  0.00    -0.198 NA
HETATM   16  C19 UNL     1      33.269   3.232  47.664  1.00  0.00     0.171 A 
HETATM   17  C20 UNL     1      33.926   3.448  46.471  1.00  0.00     0.111 A 
HETATM   18  S1  UNL     1      32.999   4.868  45.837  1.00  0.00    -0.058 SA
BRANCH  16  19
HETATM   19  O3  UNL     1      33.627   2.197  48.560  1.00  0.00    -0.344 OA
HETATM   20  H18 UNL     1      34.185   1.434  48.161  1.00  0.00     0.219 HD
ENDBRANCH  16  19
ENDBRANCH   5  14
BRANCH   3  21
HETATM   21  C11 UNL     1      27.242   5.493  48.626  1.00  0.00    -0.010 A 
HETATM   22  C12 UNL     1      27.088   4.218  49.107  1.00  0.00     0.016 A 
HETATM   23  C13 UNL     1      25.885   3.743  49.584  1.00  0.00     0.037 A 
HETATM   24  C14 UNL     1      24.800   4.618  49.562  1.00  0.00     0.068 A 
HETATM   25  C16 UNL     1      25.000   5.894  49.070  1.00  0.00     0.037 A 
HETATM   26  C17 UNL     1      26.194   6.384  48.590  1.00  0.00     0.016 A 
BRANCH  24  27
HETATM   27  O2  UNL     1      23.568   4.185  50.031  1.00  0.00    -0.356 OA
HETATM   28  C15 UNL     1      23.572   3.219  51.068  1.00  0.00     0.210 C 
ENDBRANCH  24  27
ENDBRANCH   3  21
TORSDOF 8
ENDMDL
MODEL 9
REMARK VINA RESULT:      -7.3      3.247      8.283
REMARK  8 active torsions:
REMARK  status: ('A' for Active; 'I' for Inactive)
REMARK    1  A    between atoms: O1_2  and  C2_3 
REMARK    2  A    between atoms: C4_5  and  C5_6 
REMARK    3  A    between atoms: C6_7  and  C7_8 
REMARK    4  A    between atoms: C7_8  and  C8_9 
REMARK    5  A    between atoms: C10_11  and  C11_12 
REMARK    6  A    between atoms: C14_15  and  O2_16 
REMARK    7  A    between atoms: N2_21  and  C18_22 
REMARK    8  A    between atoms: C19_24  and  O3_25 
ROOT
HETATM    1  C8  UNL     1      24.880   3.258  50.079  1.00  0.00     0.122 C 
HETATM    2  C9  UNL     1      25.091   4.649  49.525  1.00  0.00     0.089 C 
HETATM    3  C10 UNL     1      26.566   4.697  49.355  1.00  0.00     0.067 C 
HETATM    4  N1  UNL     1      27.128   3.726  49.992  1.00  0.00    -0.174 NA
HETATM    5  N2  UNL     1      26.151   2.944  50.636  1.00  0.00    -0.240 N 
ENDROOT
BRANCH   1   6
HETATM    6  C7  UNL     1      23.706   3.153  50.979  1.00  0.00     0.055 C 
BRANCH   6   7
HETATM    7  C6  UNL     1      23.329   4.358  51.713  1.00  0.00    -0.024 C 
HETATM    8  C5  UNL     1      22.180   4.537  52.392  1.00  0.00     0.007 C 
BRANCH   8   9
HETATM    9  C4  UNL     1      21.281   3.413  52.359  1.00  0.00    -0.005 A 
HETATM   10  C2  UNL     1      20.561   2.186  52.454  1.00  0.00     0.156 A 
HETATM   11  C3  UNL     1      20.021   3.215  51.834  1.00  0.00     0.005 A 
BRANCH  10  12
HETATM   12  O1  UNL     1      19.376   1.583  52.109  1.00  0.00    -0.371 OA
HETATM   13  C1  UNL     1      19.324   0.431  51.248  1.00  0.00     0.203 C 
ENDBRANCH  10  12
ENDBRANCH   8   9
ENDBRANCH   6   7
ENDBRANCH   1   6
BRANCH   5  14
HETATM   14  C18 UNL     1      26.737   2.069  51.646  1.00  0.00     0.192 A 
HETATM   15  N3  UNL     1      27.896   2.382  52.362  1.00  0.00    -0.198 NA
HETATM   16  C19 UNL     1      28.196   1.413  53.211  1.00  0.00     0.171 A 
HETATM   17  C20 UNL     1      27.539   0.225  53.447  1.00  0.00     0.111 A 
HETATM   18  S1  UNL     1      26.167   0.368  52.275  1.00  0.00    -0.058 SA
BRANCH  16  19
HETATM   19  O3  UNL     1      29.373   1.790  53.901  1.00  0.00    -0.344 OA
HETATM   20  H18 UNL     1      29.818   2.658  53.582  1.00  0.00     0.219 HD
ENDBRANCH  16  19
ENDBRANCH   5  14
BRANCH   3  21
HETATM   21  C11 UNL     1      27.275   5.722  48.563  1.00  0.00    -0.010 A 
HETATM   22  C12 UNL     1      28.611   5.524  48.327  1.00  0.00     0.016 A 
HETATM   23  C13 UNL     1      29.377   6.410  47.599  1.00  0.00     0.037 A 
HETATM   24  C14 UNL     1      28.738   7.543  47.098  1.00  0.00     0.068 A 
HETATM   25  C16 UNL     1      27.390   7.702  47.360  1.00  0.00     0.037 A 
HETATM   26  C17 UNL     1      26.612   6.827  48.084  1.00  0.00     0.016 A 
BRANCH  24  27
HETATM   27  O2  UNL     1      29.467   8.465  46.360  1.00  0.00    -0.356 OA
HETATM   28  C15 UNL     1      29.235   9.837  46.626  1.00  0.00     0.210 C 
ENDBRANCH  24  27
ENDBRANCH   3  21
TORSDOF 8
ENDMDL
