MODEL 1
REMARK VINA RESULT:      -9.3      0.000      0.000
REMARK  5 active torsions:
REMARK  status: ('A' for Active; 'I' for Inactive)
REMARK    1  A    between atoms: C5_5  and  C6_6 
REMARK    2  A    between atoms: C8_8  and  C9_9 
REMARK       I    between atoms: C9_9  and  N1_11 
REMARK    3  A    between atoms: N1_11  and  O2_12 
REMARK    4  A    between atoms: O2_12  and  C10_13 
REMARK    5  A    between atoms: C10_13  and  C12_15 
ROOT
HETATM    1  C9  UNL     1      23.320   0.517  53.036  1.00  0.00     0.246 C 
HETATM    2  O1  UNL     1      23.528  -0.721  53.267  1.00  0.00    -0.271 OA
HETATM    3  N1  UNL     1      24.375   1.435  53.137  1.00  0.00    -0.234 N 
HETATM    4  H9  UNL     1      24.142   2.432  52.937  1.00  0.00     0.197 HD
ENDROOT
BRANCH   1   5
HETATM    5  C8  UNL     1      21.937   0.913  52.666  1.00  0.00     0.089 A 
HETATM    6  C6  UNL     1      21.420   0.618  51.307  1.00  0.00     0.034 A 
HETATM    7  C7  UNL     1      21.880   2.009  51.634  1.00  0.00     0.025 A 
BRANCH   6   8
HETATM    8  C5  UNL     1      19.944   0.427  51.188  1.00  0.00    -0.035 A 
HETATM    9  C4  UNL     1      19.126  -0.376  51.960  1.00  0.00     0.025 A 
HETATM   10  C3  UNL     1      17.775  -0.424  51.699  1.00  0.00     0.022 A 
HETATM   11  C2  UNL     1      17.028  -1.207  52.463  1.00  0.00     0.055 A 
HETATM   12  C19 UNL     1      17.220   0.320  50.673  1.00  0.00     0.067 A 
HETATM   13  C1  UNL     1      17.685  -1.982  53.549  1.00  0.00     0.077 C 
HETATM   14  O3  UNL     1      15.657  -1.306  52.258  1.00  0.00    -0.351 OA
HETATM   15  C21 UNL     1      14.993  -0.594  51.247  1.00  0.00     0.205 A 
HETATM   16  C20 UNL     1      15.919   0.250  50.451  1.00  0.00     0.032 A 
HETATM   17  N2  UNL     1      17.993   1.101  49.918  1.00  0.00    -0.260 NA
HETATM   18  C18 UNL     1      19.319   1.151  50.171  1.00  0.00     0.124 A 
ENDBRANCH   6   8
ENDBRANCH   1   5
BRANCH   3  19
HETATM   19  O2  UNL     1      25.659   1.183  53.464  1.00  0.00    -0.268 OA
BRANCH  19  20
HETATM   20  C10 UNL     1      26.450   0.784  52.413  1.00  0.00     0.184 C 
HETATM   21  C11 UNL     1      26.698   1.882  51.409  1.00  0.00     0.047 C 
BRANCH  20  22
HETATM   22  C12 UNL     1      27.684   0.156  52.910  1.00  0.00     0.019 A 
HETATM   23  C13 UNL     1      28.705   0.917  53.440  1.00  0.00     0.044 A 
HETATM   24 CL1  UNL     1      28.548   2.662  53.530  1.00  0.00    -0.084 Cl
HETATM   25  C14 UNL     1      29.897   0.374  53.926  1.00  0.00     0.028 A 
HETATM   26  C15 UNL     1      30.036  -1.000  53.862  1.00  0.00     0.046 A 
HETATM   27  C16 UNL     1      29.039  -1.809  53.338  1.00  0.00     0.138 A 
HETATM   28  F1  UNL     1      29.146  -3.153  53.263  1.00  0.00    -0.204 F 
HETATM   29  C17 UNL     1      27.878  -1.228  52.870  1.00  0.00     0.083 A 
HETATM   30 CL2  UNL     1      26.572  -2.192  52.194  1.00  0.00    -0.080 Cl
ENDBRANCH  20  22
ENDBRANCH  19  20
ENDBRANCH   3  19
TORSDOF 5
ENDMDL
MODEL 2
REMARK VINA RESULT:      -9.2      5.869      8.660
REMARK  5 active torsions:
REMARK  status: ('A' for Active; 'I' for Inactive)
REMARK    1  A    between atoms: C5_5  and  C6_6 
REMARK    2  A    between atoms: C8_8  and  C9_9 
REMARK       I    between atoms: C9_9  and  N1_11 
REMARK    3  A    between atoms: N1_11  and  O2_12 
REMARK    4  A    between atoms: O2_12  and  C10_13 
REMARK    5  A    between atoms: C10_13  and  C12_15 
ROOT
HETATM    1  C9  UNL     1      25.562   5.224  49.309  1.00  0.00     0.246 C 
HETATM    2  O1  UNL     1      24.655   5.704  48.552  1.00  0.00    -0.271 OA
HETATM    3  N1  UNL     1      26.692   5.993  49.624  1.00  0.00    -0.234 N 
HETATM    4  H9  UNL     1      27.398   5.545  50.248  1.00  0.00     0.197 HD
ENDROOT
BRANCH   1   5
HETATM    5  C8  UNL     1      25.356   3.844  49.820  1.00  0.00     0.089 A 
HETATM    6  C6  UNL     1      26.270   3.291  50.850  1.00  0.00     0.034 A 
HETATM    7  C7  UNL     1      26.445   2.884  49.417  1.00  0.00     0.025 A 
BRANCH   6   8
HETATM    8  C5  UNL     1      25.692   2.258  51.759  1.00  0.00    -0.035 A 
HETATM    9  C4  UNL     1      26.320   1.584  52.790  1.00  0.00     0.025 A 
HETATM   10  C3  UNL     1      25.617   0.656  53.526  1.00  0.00     0.022 A 
HETATM   11  C2  UNL     1      26.258   0.034  54.504  1.00  0.00     0.055 A 
HETATM   12  C19 UNL     1      24.288   0.386  53.252  1.00  0.00     0.067 A 
HETATM   13  C1  UNL     1      27.686   0.369  54.749  1.00  0.00     0.077 C 
HETATM   14  O3  UNL     1      25.613  -0.914  55.289  1.00  0.00    -0.351 OA
HETATM   15  C21 UNL     1      24.267  -1.263  55.096  1.00  0.00     0.205 A 
HETATM   16  C20 UNL     1      23.645  -0.510  53.979  1.00  0.00     0.032 A 
HETATM   17  N2  UNL     1      23.665   1.026  52.262  1.00  0.00    -0.260 NA
HETATM   18  C18 UNL     1      24.351   1.937  51.537  1.00  0.00     0.124 A 
ENDBRANCH   6   8
ENDBRANCH   1   5
BRANCH   3  19
HETATM   19  O2  UNL     1      26.974   7.247  49.217  1.00  0.00    -0.268 OA
BRANCH  19  20
HETATM   20  C10 UNL     1      27.808   7.321  48.127  1.00  0.00     0.184 C 
HETATM   21  C11 UNL     1      27.243   8.154  47.003  1.00  0.00     0.047 C 
BRANCH  20  22
HETATM   22  C12 UNL     1      29.157   7.737  48.543  1.00  0.00     0.019 A 
HETATM   23  C13 UNL     1      30.225   6.868  48.458  1.00  0.00     0.044 A 
HETATM   24 CL1  UNL     1      29.991   5.239  47.849  1.00  0.00    -0.084 Cl
HETATM   25  C14 UNL     1      31.526   7.209  48.838  1.00  0.00     0.028 A 
HETATM   26  C15 UNL     1      31.727   8.489  49.320  1.00  0.00     0.046 A 
HETATM   27  C16 UNL     1      30.687   9.399  49.425  1.00  0.00     0.138 A 
HETATM   28  F1  UNL     1      30.853  10.655  49.891  1.00  0.00    -0.204 F 
HETATM   29  C17 UNL     1      29.418   9.018  49.038  1.00  0.00     0.083 A 
HETATM   30 CL2  UNL     1      28.052  10.120  49.142  1.00  0.00    -0.080 Cl
ENDBRANCH  20  22
ENDBRANCH  19  20
ENDBRANCH   3  19
TORSDOF 5
ENDMDL
MODEL 3
REMARK VINA RESULT:      -9.1      5.626      8.423
REMARK  5 active torsions:
REMARK  status: ('A' for Active; 'I' for Inactive)
REMARK    1  A    between atoms: C5_5  and  C6_6 
REMARK    2  A    between atoms: C8_8  and  C9_9 
REMARK       I    between atoms: C9_9  and  N1_11 
REMARK    3  A    between atoms: N1_11  and  O2_12 
REMARK    4  A    between atoms: O2_12  and  C10_13 
REMARK    5  A    between atoms: C10_13  and  C12_15 
ROOT
HETATM    1  C9  UNL     1      25.559   5.288  49.311  1.00  0.00     0.246 C 
HETATM    2  O1  UNL     1      24.655   5.754  48.542  1.00  0.00    -0.271 OA
HETATM    3  N1  UNL     1      26.671   6.074  49.644  1.00  0.00    -0.234 N 
HETATM    4  H9  UNL     1      27.375   5.636  50.277  1.00  0.00     0.197 HD
ENDROOT
BRANCH   1   5
HETATM    5  C8  UNL     1      25.368   3.903  49.817  1.00  0.00     0.089 A 
HETATM    6  C6  UNL     1      26.313   3.341  50.813  1.00  0.00     0.034 A 
HETATM    7  C7  UNL     1      26.443   2.946  49.372  1.00  0.00     0.025 A 
BRANCH   6   8
HETATM    8  C5  UNL     1      25.763   2.300  51.731  1.00  0.00    -0.035 A 
HETATM    9  C4  UNL     1      26.412   1.642  52.759  1.00  0.00     0.025 A 
HETATM   10  C3  UNL     1      25.733   0.704  53.504  1.00  0.00     0.022 A 
HETATM   11  C2  UNL     1      26.394   0.098  54.478  1.00  0.00     0.055 A 
HETATM   12  C19 UNL     1      24.407   0.408  53.242  1.00  0.00     0.067 A 
HETATM   13  C1  UNL     1      27.818   0.461  54.709  1.00  0.00     0.077 C 
HETATM   14  O3  UNL     1      25.774  -0.860  55.273  1.00  0.00    -0.351 OA
HETATM   15  C21 UNL     1      24.434  -1.234  55.093  1.00  0.00     0.205 A 
HETATM   16  C20 UNL     1      23.787  -0.497  53.979  1.00  0.00     0.032 A 
HETATM   17  N2  UNL     1      23.763   1.033  52.256  1.00  0.00    -0.260 NA
HETATM   18  C18 UNL     1      24.426   1.954  51.522  1.00  0.00     0.124 A 
ENDBRANCH   6   8
ENDBRANCH   1   5
BRANCH   3  19
HETATM   19  O2  UNL     1      26.939   7.333  49.243  1.00  0.00    -0.268 OA
BRANCH  19  20
HETATM   20  C10 UNL     1      27.770   7.422  48.153  1.00  0.00     0.184 C 
HETATM   21  C11 UNL     1      27.225   8.311  47.063  1.00  0.00     0.047 C 
BRANCH  20  22
HETATM   22  C12 UNL     1      29.133   7.783  48.576  1.00  0.00     0.019 A 
HETATM   23  C13 UNL     1      29.416   9.045  49.057  1.00  0.00     0.044 A 
HETATM   24 CL1  UNL     1      28.147  10.250  49.172  1.00  0.00    -0.084 Cl
HETATM   25  C14 UNL     1      30.691   9.442  49.471  1.00  0.00     0.028 A 
HETATM   26  C15 UNL     1      31.702   8.503  49.386  1.00  0.00     0.046 A 
HETATM   27  C16 UNL     1      31.468   7.222  48.909  1.00  0.00     0.138 A 
HETATM   28  F1  UNL     1      32.435   6.285  48.815  1.00  0.00    -0.204 F 
HETATM   29  C17 UNL     1      30.193   6.875  48.511  1.00  0.00     0.083 A 
HETATM   30 CL2  UNL     1      29.824   5.269  47.898  1.00  0.00    -0.080 Cl
ENDBRANCH  20  22
ENDBRANCH  19  20
ENDBRANCH   3  19
TORSDOF 5
ENDMDL
MODEL 4
REMARK VINA RESULT:      -9.0      3.868      9.002
REMARK  5 active torsions:
REMARK  status: ('A' for Active; 'I' for Inactive)
REMARK    1  A    between atoms: C5_5  and  C6_6 
REMARK    2  A    between atoms: C8_8  and  C9_9 
REMARK       I    between atoms: C9_9  and  N1_11 
REMARK    3  A    between atoms: N1_11  and  O2_12 
REMARK    4  A    between atoms: O2_12  and  C10_13 
REMARK    5  A    between atoms: C10_13  and  C12_15 
ROOT
HETATM    1  C9  UNL     1      20.492   0.208  53.359  1.00  0.00     0.246 C 
HETATM    2  O1  UNL     1      19.584  -0.568  53.806  1.00  0.00    -0.271 OA
HETATM    3  N1  UNL     1      20.187   1.140  52.357  1.00  0.00    -0.234 N 
HETATM    4  H9  UNL     1      20.972   1.746  52.033  1.00  0.00     0.197 HD
ENDROOT
BRANCH   1   5
HETATM    5  C8  UNL     1      21.851   0.068  53.945  1.00  0.00     0.089 A 
HETATM    6  C6  UNL     1      22.913  -0.645  53.192  1.00  0.00     0.034 A 
HETATM    7  C7  UNL     1      22.205  -1.349  54.312  1.00  0.00     0.025 A 
BRANCH   6   8
HETATM    8  C5  UNL     1      24.316  -0.220  53.469  1.00  0.00    -0.035 A 
HETATM    9  C4  UNL     1      25.091   0.674  52.754  1.00  0.00     0.025 A 
HETATM   10  C3  UNL     1      26.377   0.943  53.166  1.00  0.00     0.022 A 
HETATM   11  C2  UNL     1      27.084   1.806  52.452  1.00  0.00     0.055 A 
HETATM   12  C19 UNL     1      26.910   0.332  54.287  1.00  0.00     0.067 A 
HETATM   13  C1  UNL     1      26.454   2.429  51.257  1.00  0.00     0.077 C 
HETATM   14  O3  UNL     1      28.389   2.127  52.807  1.00  0.00    -0.351 OA
HETATM   15  C21 UNL     1      29.024   1.565  53.925  1.00  0.00     0.205 A 
HETATM   16  C20 UNL     1      28.148   0.614  54.653  1.00  0.00     0.032 A 
HETATM   17  N2  UNL     1      26.178  -0.533  54.990  1.00  0.00    -0.260 NA
HETATM   18  C18 UNL     1      24.916  -0.800  54.589  1.00  0.00     0.124 A 
ENDBRANCH   6   8
ENDBRANCH   1   5
BRANCH   3  19
HETATM   19  O2  UNL     1      18.995   1.348  51.760  1.00  0.00    -0.268 OA
BRANCH  19  20
HETATM   20  C10 UNL     1      19.043   1.403  50.389  1.00  0.00     0.184 C 
HETATM   21  C11 UNL     1      17.692   1.224  49.740  1.00  0.00     0.047 C 
BRANCH  20  22
HETATM   22  C12 UNL     1      19.747   2.618  49.949  1.00  0.00     0.019 A 
HETATM   23  C13 UNL     1      19.289   3.871  50.299  1.00  0.00     0.044 A 
HETATM   24 CL1  UNL     1      17.845   4.038  51.283  1.00  0.00    -0.084 Cl
HETATM   25  C14 UNL     1      19.917   5.057  49.910  1.00  0.00     0.028 A 
HETATM   26  C15 UNL     1      21.055   4.941  49.134  1.00  0.00     0.046 A 
HETATM   27  C16 UNL     1      21.556   3.706  48.755  1.00  0.00     0.138 A 
HETATM   28  F1  UNL     1      22.665   3.562  47.999  1.00  0.00    -0.204 F 
HETATM   29  C17 UNL     1      20.902   2.561  49.163  1.00  0.00     0.083 A 
HETATM   30 CL2  UNL     1      21.481   0.961  48.721  1.00  0.00    -0.080 Cl
ENDBRANCH  20  22
ENDBRANCH  19  20
ENDBRANCH   3  19
TORSDOF 5
ENDMDL
MODEL 5
REMARK VINA RESULT:      -9.0      4.962      9.866
REMARK  5 active torsions:
REMARK  status: ('A' for Active; 'I' for Inactive)
REMARK    1  A    between atoms: C5_5  and  C6_6 
REMARK    2  A    between atoms: C8_8  and  C9_9 
REMARK       I    between atoms: C9_9  and  N1_11 
REMARK    3  A    between atoms: N1_11  and  O2_12 
REMARK    4  A    between atoms: O2_12  and  C10_13 
REMARK    5  A    between atoms: C10_13  and  C12_15 
ROOT
HETATM    1  C9  UNL     1      22.275   1.796  49.297  1.00  0.00     0.246 C 
HETATM    2  O1  UNL     1      21.587   1.210  48.397  1.00  0.00    -0.271 OA
HETATM    3  N1  UNL     1      22.212   1.355  50.626  1.00  0.00    -0.234 N 
HETATM    4  H9  UNL     1      22.798   1.875  51.316  1.00  0.00     0.197 HD
ENDROOT
BRANCH   1   5
HETATM    5  C8  UNL     1      23.120   2.940  48.864  1.00  0.00     0.089 A 
HETATM    6  C6  UNL     1      23.878   3.724  49.871  1.00  0.00     0.034 A 
HETATM    7  C7  UNL     1      22.599   4.279  49.316  1.00  0.00     0.025 A 
BRANCH   6   8
HETATM    8  C5  UNL     1      25.135   4.372  49.394  1.00  0.00    -0.035 A 
HETATM    9  C4  UNL     1      25.291   5.638  48.861  1.00  0.00     0.025 A 
HETATM   10  C3  UNL     1      26.541   6.065  48.473  1.00  0.00     0.022 A 
HETATM   11  C2  UNL     1      26.645   7.285  47.968  1.00  0.00     0.055 A 
HETATM   12  C19 UNL     1      27.648   5.247  48.608  1.00  0.00     0.067 A 
HETATM   13  C1  UNL     1      25.417   8.115  47.849  1.00  0.00     0.077 C 
HETATM   14  O3  UNL     1      27.874   7.784  47.555  1.00  0.00    -0.351 OA
HETATM   15  C21 UNL     1      29.060   7.038  47.648  1.00  0.00     0.205 A 
HETATM   16  C20 UNL     1      28.833   5.690  48.225  1.00  0.00     0.032 A 
HETATM   17  N2  UNL     1      27.518   4.023  49.120  1.00  0.00    -0.260 NA
HETATM   18  C18 UNL     1      26.294   3.599  49.502  1.00  0.00     0.124 A 
ENDBRANCH   6   8
ENDBRANCH   1   5
BRANCH   3  19
HETATM   19  O2  UNL     1      21.483   0.335  51.122  1.00  0.00    -0.268 OA
BRANCH  19  20
HETATM   20  C10 UNL     1      20.882   0.594  52.330  1.00  0.00     0.184 C 
HETATM   21  C11 UNL     1      20.788   2.067  52.642  1.00  0.00     0.047 C 
BRANCH  20  22
HETATM   22  C12 UNL     1      19.591  -0.107  52.420  1.00  0.00     0.019 A 
HETATM   23  C13 UNL     1      18.543   0.225  51.586  1.00  0.00     0.044 A 
HETATM   24 CL1  UNL     1      18.733   1.499  50.395  1.00  0.00    -0.084 Cl
HETATM   25  C14 UNL     1      17.297  -0.406  51.628  1.00  0.00     0.028 A 
HETATM   26  C15 UNL     1      17.131  -1.412  52.561  1.00  0.00     0.046 A 
HETATM   27  C16 UNL     1      18.153  -1.783  53.422  1.00  0.00     0.138 A 
HETATM   28  F1  UNL     1      18.021  -2.761  54.342  1.00  0.00    -0.204 F 
HETATM   29  C17 UNL     1      19.367  -1.131  53.344  1.00  0.00     0.083 A 
HETATM   30 CL2  UNL     1      20.707  -1.550  54.403  1.00  0.00    -0.080 Cl
ENDBRANCH  20  22
ENDBRANCH  19  20
ENDBRANCH   3  19
TORSDOF 5
ENDMDL
MODEL 6
REMARK VINA RESULT:      -8.9      5.914      8.599
REMARK  5 active torsions:
REMARK  status: ('A' for Active; 'I' for Inactive)
REMARK    1  A    between atoms: C5_5  and  C6_6 
REMARK    2  A    between atoms: C8_8  and  C9_9 
REMARK       I    between atoms: C9_9  and  N1_11 
REMARK    3  A    between atoms: N1_11  and  O2_12 
REMARK    4  A    between atoms: O2_12  and  C10_13 
REMARK    5  A    between atoms: C10_13  and  C12_15 
ROOT
HETATM    1  C9  UNL     1      25.232   5.725  49.656  1.00  0.00     0.246 C 
HETATM    2  O1  UNL     1      24.403   6.209  48.817  1.00  0.00    -0.271 OA
HETATM    3  N1  UNL     1      26.427   6.403  49.932  1.00  0.00    -0.234 N 
HETATM    4  H9  UNL     1      27.064   5.956  50.628  1.00  0.00     0.197 HD
ENDROOT
BRANCH   1   5
HETATM    5  C8  UNL     1      24.865   4.438  50.304  1.00  0.00     0.089 A 
HETATM    6  C6  UNL     1      25.818   3.301  50.286  1.00  0.00     0.034 A 
HETATM    7  C7  UNL     1      24.664   3.308  49.327  1.00  0.00     0.025 A 
BRANCH   6   8
HETATM    8  C5  UNL     1      25.720   2.339  51.423  1.00  0.00    -0.035 A 
HETATM    9  C4  UNL     1      24.617   1.614  51.832  1.00  0.00     0.025 A 
HETATM   10  C3  UNL     1      24.719   0.768  52.913  1.00  0.00     0.022 A 
HETATM   11  C2  UNL     1      23.637   0.093  53.271  1.00  0.00     0.055 A 
HETATM   12  C19 UNL     1      25.912   0.630  53.601  1.00  0.00     0.067 A 
HETATM   13  C1  UNL     1      22.385   0.286  52.491  1.00  0.00     0.077 C 
HETATM   14  O3  UNL     1      23.665  -0.779  54.352  1.00  0.00    -0.351 OA
HETATM   15  C21 UNL     1      24.822  -0.993  55.117  1.00  0.00     0.205 A 
HETATM   16  C20 UNL     1      25.973  -0.191  54.635  1.00  0.00     0.032 A 
HETATM   17  N2  UNL     1      26.988   1.321  53.221  1.00  0.00    -0.260 NA
HETATM   18  C18 UNL     1      26.891   2.152  52.161  1.00  0.00     0.124 A 
ENDBRANCH   6   8
ENDBRANCH   1   5
BRANCH   3  19
HETATM   19  O2  UNL     1      26.854   7.568  49.405  1.00  0.00    -0.268 OA
BRANCH  19  20
HETATM   20  C10 UNL     1      27.665   7.436  48.303  1.00  0.00     0.184 C 
HETATM   21  C11 UNL     1      27.123   8.134  47.081  1.00  0.00     0.047 C 
BRANCH  20  22
HETATM   22  C12 UNL     1      29.046   7.821  48.634  1.00  0.00     0.019 A 
HETATM   23  C13 UNL     1      30.085   6.925  48.499  1.00  0.00     0.044 A 
HETATM   24 CL1  UNL     1      29.776   5.295  47.927  1.00  0.00    -0.084 Cl
HETATM   25  C14 UNL     1      31.414   7.236  48.800  1.00  0.00     0.028 A 
HETATM   26  C15 UNL     1      31.674   8.516  49.253  1.00  0.00     0.046 A 
HETATM   27  C16 UNL     1      30.665   9.454  49.406  1.00  0.00     0.138 A 
HETATM   28  F1  UNL     1      30.888  10.710  49.845  1.00  0.00    -0.204 F 
HETATM   29  C17 UNL     1      29.367   9.101  49.097  1.00  0.00     0.083 A 
HETATM   30 CL2  UNL     1      28.037  10.239  49.266  1.00  0.00    -0.080 Cl
ENDBRANCH  20  22
ENDBRANCH  19  20
ENDBRANCH   3  19
TORSDOF 5
ENDMDL
MODEL 7
REMARK VINA RESULT:      -8.8      5.461      9.717
REMARK  5 active torsions:
REMARK  status: ('A' for Active; 'I' for Inactive)
REMARK    1  A    between atoms: C5_5  and  C6_6 
REMARK    2  A    between atoms: C8_8  and  C9_9 
REMARK       I    between atoms: C9_9  and  N1_11 
REMARK    3  A    between atoms: N1_11  and  O2_12 
REMARK    4  A    between atoms: O2_12  and  C10_13 
REMARK    5  A    between atoms: C10_13  and  C12_15 
ROOT
HETATM    1  C9  UNL     1      23.866   3.297  49.527  1.00  0.00     0.246 C 
HETATM    2  O1  UNL     1      22.874   2.758  48.934  1.00  0.00    -0.271 OA
HETATM    3  N1  UNL     1      24.418   2.690  50.664  1.00  0.00    -0.234 N 
HETATM    4  H9  UNL     1      25.227   3.179  51.104  1.00  0.00     0.197 HD
ENDROOT
BRANCH   1   5
HETATM    5  C8  UNL     1      24.384   4.569  48.959  1.00  0.00     0.089 A 
HETATM    6  C6  UNL     1      25.513   5.271  49.619  1.00  0.00     0.034 A 
HETATM    7  C7  UNL     1      24.113   5.771  49.826  1.00  0.00     0.025 A 
BRANCH   6   8
HETATM    8  C5  UNL     1      26.381   6.101  48.734  1.00  0.00    -0.035 A 
HETATM    9  C4  UNL     1      27.737   5.965  48.501  1.00  0.00     0.025 A 
HETATM   10  C3  UNL     1      28.372   6.835  47.644  1.00  0.00     0.022 A 
HETATM   11  C2  UNL     1      29.672   6.668  47.450  1.00  0.00     0.055 A 
HETATM   12  C19 UNL     1      27.675   7.847  47.009  1.00  0.00     0.067 A 
HETATM   13  C1  UNL     1      30.363   5.560  48.162  1.00  0.00     0.077 C 
HETATM   14  O3  UNL     1      30.380   7.507  46.598  1.00  0.00    -0.351 OA
HETATM   15  C21 UNL     1      29.771   8.564  45.905  1.00  0.00     0.205 A 
HETATM   16  C20 UNL     1      28.318   8.664  46.192  1.00  0.00     0.032 A 
HETATM   17  N2  UNL     1      26.367   7.995  47.220  1.00  0.00    -0.260 NA
HETATM   18  C18 UNL     1      25.740   7.144  48.061  1.00  0.00     0.124 A 
ENDBRANCH   6   8
ENDBRANCH   1   5
BRANCH   3  19
HETATM   19  O2  UNL     1      24.027   1.544  51.258  1.00  0.00    -0.268 OA
BRANCH  19  20
HETATM   20  C10 UNL     1      24.303   1.472  52.602  1.00  0.00     0.184 C 
HETATM   21  C11 UNL     1      24.570   2.819  53.225  1.00  0.00     0.047 C 
BRANCH  20  22
HETATM   22  C12 UNL     1      23.260   0.701  53.298  1.00  0.00     0.019 A 
HETATM   23  C13 UNL     1      21.929   1.041  53.181  1.00  0.00     0.044 A 
HETATM   24 CL1  UNL     1      21.451   2.410  52.193  1.00  0.00    -0.084 Cl
HETATM   25  C14 UNL     1      20.898   0.345  53.820  1.00  0.00     0.028 A 
HETATM   26  C15 UNL     1      21.258  -0.736  54.602  1.00  0.00     0.046 A 
HETATM   27  C16 UNL     1      22.583  -1.118  54.752  1.00  0.00     0.138 A 
HETATM   28  F1  UNL     1      22.964  -2.168  55.508  1.00  0.00    -0.204 F 
HETATM   29  C17 UNL     1      23.567  -0.401  54.102  1.00  0.00     0.083 A 
HETATM   30 CL2  UNL     1      25.266  -0.829  54.245  1.00  0.00    -0.080 Cl
ENDBRANCH  20  22
ENDBRANCH  19  20
ENDBRANCH   3  19
TORSDOF 5
ENDMDL
MODEL 8
REMARK VINA RESULT:      -8.7      4.572     10.431
REMARK  5 active torsions:
REMARK  status: ('A' for Active; 'I' for Inactive)
REMARK    1  A    between atoms: C5_5  and  C6_6 
REMARK    2  A    between atoms: C8_8  and  C9_9 
REMARK       I    between atoms: C9_9  and  N1_11 
REMARK    3  A    between atoms: N1_11  and  O2_12 
REMARK    4  A    between atoms: O2_12  and  C10_13 
REMARK    5  A    between atoms: C10_13  and  C12_15 
ROOT
HETATM    1  C9  UNL     1      21.189   0.411  53.060  1.00  0.00     0.246 C 
HETATM    2  O1  UNL     1      20.905   0.804  54.240  1.00  0.00    -0.271 OA
HETATM    3  N1  UNL     1      20.163   0.076  52.166  1.00  0.00    -0.234 N 
HETATM    4  H9  UNL     1      20.459  -0.238  51.216  1.00  0.00     0.197 HD
ENDROOT
BRANCH   1   5
HETATM    5  C8  UNL     1      22.630   0.331  52.703  1.00  0.00     0.089 A 
HETATM    6  C6  UNL     1      23.515   1.502  52.924  1.00  0.00     0.034 A 
HETATM    7  C7  UNL     1      23.012   1.210  51.541  1.00  0.00     0.025 A 
BRANCH   6   8
HETATM    8  C5  UNL     1      24.955   1.202  53.175  1.00  0.00    -0.035 A 
HETATM    9  C4  UNL     1      25.646   0.040  52.889  1.00  0.00     0.025 A 
HETATM   10  C3  UNL     1      26.984  -0.052  53.196  1.00  0.00     0.022 A 
HETATM   11  C2  UNL     1      27.607  -1.184  52.905  1.00  0.00     0.055 A 
HETATM   12  C19 UNL     1      27.654   1.004  53.788  1.00  0.00     0.067 A 
HETATM   13  C1  UNL     1      26.830  -2.282  52.269  1.00  0.00     0.077 C 
HETATM   14  O3  UNL     1      28.958  -1.349  53.186  1.00  0.00    -0.351 OA
HETATM   15  C21 UNL     1      29.730  -0.342  53.785  1.00  0.00     0.205 A 
HETATM   16  C20 UNL     1      28.940   0.881  54.070  1.00  0.00     0.032 A 
HETATM   17  N2  UNL     1      27.006   2.134  54.072  1.00  0.00    -0.260 NA
HETATM   18  C18 UNL     1      25.692   2.228  53.772  1.00  0.00     0.124 A 
ENDBRANCH   6   8
ENDBRANCH   1   5
BRANCH   3  19
HETATM   19  O2  UNL     1      18.833   0.113  52.388  1.00  0.00    -0.268 OA
BRANCH  19  20
HETATM   20  C10 UNL     1      18.120   0.855  51.476  1.00  0.00     0.184 C 
HETATM   21  C11 UNL     1      18.154   0.275  50.084  1.00  0.00     0.047 C 
BRANCH  20  22
HETATM   22  C12 UNL     1      16.758   1.106  51.974  1.00  0.00     0.019 A 
HETATM   23  C13 UNL     1      15.960   0.070  52.412  1.00  0.00     0.044 A 
HETATM   24 CL1  UNL     1      16.560  -1.578  52.383  1.00  0.00    -0.084 Cl
HETATM   25  C14 UNL     1      14.660   0.250  52.893  1.00  0.00     0.028 A 
HETATM   26  C15 UNL     1      14.173   1.544  52.921  1.00  0.00     0.046 A 
HETATM   27  C16 UNL     1      14.935   2.619  52.492  1.00  0.00     0.138 A 
HETATM   28  F1  UNL     1      14.487   3.892  52.508  1.00  0.00    -0.204 F 
HETATM   29  C17 UNL     1      16.214   2.393  52.024  1.00  0.00     0.083 A 
HETATM   30 CL2  UNL     1      17.237   3.709  51.465  1.00  0.00    -0.080 Cl
ENDBRANCH  20  22
ENDBRANCH  19  20
ENDBRANCH   3  19
TORSDOF 5
ENDMDL
MODEL 9
REMARK VINA RESULT:      -8.6      5.391      9.935
REMARK  5 active torsions:
REMARK  status: ('A' for Active; 'I' for Inactive)
REMARK    1  A    between atoms: C5_5  and  C6_6 
REMARK    2  A    between atoms: C8_8  and  C9_9 
REMARK       I    between atoms: C9_9  and  N1_11 
REMARK    3  A    between atoms: N1_11  and  O2_12 
REMARK    4  A    between atoms: O2_12  and  C10_13 
REMARK    5  A    between atoms: C10_13  and  C12_15 
ROOT
HETATM    1  C9  UNL     1      23.833   3.334  49.524  1.00  0.00     0.246 C 
HETATM    2  O1  UNL     1      22.600   3.313  49.198  1.00  0.00    -0.271 OA
HETATM    3  N1  UNL     1      24.312   2.460  50.511  1.00  0.00    -0.234 N 
HETATM    4  H9  UNL     1      25.330   2.525  50.733  1.00  0.00     0.197 HD
ENDROOT
BRANCH   1   5
HETATM    5  C8  UNL     1      24.703   4.310  48.817  1.00  0.00     0.089 A 
HETATM    6  C6  UNL     1      25.449   5.334  49.591  1.00  0.00     0.034 A 
HETATM    7  C7  UNL     1      24.190   5.725  48.874  1.00  0.00     0.025 A 
BRANCH   6   8
HETATM    8  C5  UNL     1      26.725   5.817  48.987  1.00  0.00    -0.035 A 
HETATM    9  C4  UNL     1      27.069   7.112  48.647  1.00  0.00     0.025 A 
HETATM   10  C3  UNL     1      28.304   7.367  48.095  1.00  0.00     0.022 A 
HETATM   11  C2  UNL     1      28.592   8.622  47.784  1.00  0.00     0.055 A 
HETATM   12  C19 UNL     1      29.211   6.346  47.874  1.00  0.00     0.067 A 
HETATM   13  C1  UNL     1      27.574   9.674  48.047  1.00  0.00     0.077 C 
HETATM   14  O3  UNL     1      29.819   8.955  47.224  1.00  0.00    -0.351 OA
HETATM   15  C21 UNL     1      30.810   7.998  46.958  1.00  0.00     0.205 A 
HETATM   16  C20 UNL     1      30.388   6.628  47.342  1.00  0.00     0.032 A 
HETATM   17  N2  UNL     1      28.898   5.091  48.196  1.00  0.00    -0.260 NA
HETATM   18  C18 UNL     1      27.688   4.836  48.737  1.00  0.00     0.124 A 
ENDBRANCH   6   8
ENDBRANCH   1   5
BRANCH   3  19
HETATM   19  O2  UNL     1      23.613   1.542  51.209  1.00  0.00    -0.268 OA
BRANCH  19  20
HETATM   20  C10 UNL     1      23.984   1.419  52.526  1.00  0.00     0.184 C 
HETATM   21  C11 UNL     1      24.286   2.743  53.183  1.00  0.00     0.047 C 
BRANCH  20  22
HETATM   22  C12 UNL     1      22.998   0.612  53.262  1.00  0.00     0.019 A 
HETATM   23  C13 UNL     1      21.648   0.883  53.171  1.00  0.00     0.044 A 
HETATM   24 CL1  UNL     1      21.080   2.205  52.169  1.00  0.00    -0.084 Cl
HETATM   25  C14 UNL     1      20.669   0.150  53.848  1.00  0.00     0.028 A 
HETATM   26  C15 UNL     1      21.102  -0.896  54.642  1.00  0.00     0.046 A 
HETATM   27  C16 UNL     1      22.447  -1.208  54.767  1.00  0.00     0.138 A 
HETATM   28  F1  UNL     1      22.898  -2.222  55.535  1.00  0.00    -0.204 F 
HETATM   29  C17 UNL     1      23.378  -0.456  54.080  1.00  0.00     0.083 A 
HETATM   30 CL2  UNL     1      25.100  -0.796  54.190  1.00  0.00    -0.080 Cl
ENDBRANCH  20  22
ENDBRANCH  19  20
ENDBRANCH   3  19
TORSDOF 5
ENDMDL
