MODEL 1
REMARK VINA RESULT:      -8.6      0.000      0.000
REMARK  4 active torsions:
REMARK  status: ('A' for Active; 'I' for Inactive)
REMARK    1  A    between atoms: O1_1  and  C1_2 
REMARK    2  A    between atoms: C3_5  and  N1_6 
REMARK    3  A    between atoms: C4_8  and  C5_9 
REMARK    4  A    between atoms: C12_18  and  C13_19 
ROOT
HETATM    1  N1  UNL     1      26.143   2.412  51.619  1.00  0.00    -0.236 N 
HETATM    2  N2  UNL     1      26.888   3.194  50.744  1.00  0.00    -0.174 NA
HETATM    3  C4  UNL     1      26.103   3.924  50.013  1.00  0.00     0.058 C 
HETATM    4  C11 UNL     1      24.682   3.683  50.368  1.00  0.00     0.093 C 
HETATM    5  C12 UNL     1      24.829   2.946  51.706  1.00  0.00     0.151 C 
ENDROOT
BRANCH   3   6
HETATM    6  C5  UNL     1      26.643   4.852  48.993  1.00  0.00     0.047 C 
HETATM    7  C6  UNL     1      26.450   6.141  49.001  1.00  0.00     0.006 A 
HETATM    8  C7  UNL     1      27.029   6.955  47.948  1.00  0.00     0.020 A 
HETATM    9  S2  UNL     1      25.498   7.015  50.225  1.00  0.00    -0.100 SA
HETATM   10  C8  UNL     1      26.963   8.230  47.756  1.00  0.00     0.026 A 
HETATM   11  C9  UNL     1      26.220   9.073  48.675  1.00  0.00     0.040 A 
HETATM   12 CL1  UNL     1      26.132  10.812  48.409  1.00  0.00    -0.084 Cl
HETATM   13  C10 UNL     1      25.548   8.736  49.756  1.00  0.00     0.074 A 
ENDBRANCH   3   6
BRANCH   1  14
HETATM   14  C3  UNL     1      26.783   1.285  52.236  1.00  0.00     0.192 A 
HETATM   15  S1  UNL     1      28.241   1.562  53.403  1.00  0.00    -0.058 SA
HETATM   16  C2  UNL     1      28.419  -0.241  53.700  1.00  0.00     0.111 A 
HETATM   17  C1  UNL     1      27.403  -0.750  52.912  1.00  0.00     0.171 A 
HETATM   18  N3  UNL     1      26.564  -0.030  52.166  1.00  0.00    -0.198 NA
BRANCH  17  19
HETATM   19  O1  UNL     1      27.069  -2.114  52.752  1.00  0.00    -0.344 OA
HETATM   20  H1  UNL     1      27.317  -2.579  51.871  1.00  0.00     0.219 HD
ENDBRANCH  17  19
ENDBRANCH   1  14
BRANCH   5  21
HETATM   21  C13 UNL     1      23.740   1.967  51.825  1.00  0.00    -0.033 A 
HETATM   22  C14 UNL     1      23.435   1.294  52.991  1.00  0.00     0.009 A 
HETATM   23  C15 UNL     1      22.413   0.366  53.131  1.00  0.00     0.001 A 
HETATM   24  C16 UNL     1      21.637   0.083  52.042  1.00  0.00     0.000 A 
HETATM   25  C17 UNL     1      21.873   0.710  50.836  1.00  0.00     0.001 A 
HETATM   26  C18 UNL     1      22.904   1.622  50.767  1.00  0.00     0.009 A 
ENDBRANCH   5  21
TORSDOF 4
ENDMDL
MODEL 2
REMARK VINA RESULT:      -8.4      4.442      8.034
REMARK  4 active torsions:
REMARK  status: ('A' for Active; 'I' for Inactive)
REMARK    1  A    between atoms: O1_1  and  C1_2 
REMARK    2  A    between atoms: C3_5  and  N1_6 
REMARK    3  A    between atoms: C4_8  and  C5_9 
REMARK    4  A    between atoms: C12_18  and  C13_19 
ROOT
HETATM    1  N1  UNL     1      24.300   1.023  53.083  1.00  0.00    -0.236 N 
HETATM    2  N2  UNL     1      22.936   0.759  53.141  1.00  0.00    -0.174 NA
HETATM    3  C4  UNL     1      22.710  -0.283  53.880  1.00  0.00     0.058 C 
HETATM    4  C11 UNL     1      23.981  -0.829  54.418  1.00  0.00     0.093 C 
HETATM    5  C12 UNL     1      24.946   0.332  54.144  1.00  0.00     0.151 C 
ENDROOT
BRANCH   3   6
HETATM    6  C5  UNL     1      21.334  -0.782  54.107  1.00  0.00     0.047 C 
HETATM    7  C6  UNL     1      20.344  -0.602  53.279  1.00  0.00     0.006 A 
HETATM    8  C7  UNL     1      19.036  -1.139  53.606  1.00  0.00     0.020 A 
HETATM    9  S2  UNL     1      20.460   0.281  51.739  1.00  0.00    -0.100 SA
HETATM   10  C8  UNL     1      17.927  -1.076  52.947  1.00  0.00     0.026 A 
HETATM   11  C9  UNL     1      17.870  -0.386  51.671  1.00  0.00     0.040 A 
HETATM   12 CL1  UNL     1      16.355  -0.302  50.776  1.00  0.00    -0.084 Cl
HETATM   13  C10 UNL     1      18.829   0.236  51.018  1.00  0.00     0.074 A 
ENDBRANCH   3   6
BRANCH   1  14
HETATM   14  C3  UNL     1      24.782   1.882  52.039  1.00  0.00     0.192 A 
HETATM   15  S1  UNL     1      23.627   2.384  50.634  1.00  0.00    -0.058 SA
HETATM   16  C2  UNL     1      24.941   3.385  49.834  1.00  0.00     0.111 A 
HETATM   17  C1  UNL     1      25.998   3.196  50.706  1.00  0.00     0.171 A 
HETATM   18  N3  UNL     1      25.966   2.457  51.815  1.00  0.00    -0.198 NA
BRANCH  17  19
HETATM   19  O1  UNL     1      27.294   3.745  50.583  1.00  0.00    -0.344 OA
HETATM   20  H1  UNL     1      27.760   3.700  49.669  1.00  0.00     0.219 HD
ENDBRANCH  17  19
ENDBRANCH   1  14
BRANCH   5  21
HETATM   21  C13 UNL     1      26.272  -0.221  53.842  1.00  0.00    -0.033 A 
HETATM   22  C14 UNL     1      26.486  -1.277  52.979  1.00  0.00     0.009 A 
HETATM   23  C15 UNL     1      27.726  -1.820  52.675  1.00  0.00     0.001 A 
HETATM   24  C16 UNL     1      28.835  -1.280  53.265  1.00  0.00     0.000 A 
HETATM   25  C17 UNL     1      28.713  -0.221  54.141  1.00  0.00     0.001 A 
HETATM   26  C18 UNL     1      27.450   0.269  54.398  1.00  0.00     0.009 A 
ENDBRANCH   5  21
TORSDOF 4
ENDMDL
MODEL 3
REMARK VINA RESULT:      -8.3      3.134      4.600
REMARK  4 active torsions:
REMARK  status: ('A' for Active; 'I' for Inactive)
REMARK    1  A    between atoms: O1_1  and  C1_2 
REMARK    2  A    between atoms: C3_5  and  N1_6 
REMARK    3  A    between atoms: C4_8  and  C5_9 
REMARK    4  A    between atoms: C12_18  and  C13_19 
ROOT
HETATM    1  N1  UNL     1      23.903   1.262  52.686  1.00  0.00    -0.236 N 
HETATM    2  N2  UNL     1      23.292   2.509  52.624  1.00  0.00    -0.174 NA
HETATM    3  C4  UNL     1      24.133   3.402  52.202  1.00  0.00     0.058 C 
HETATM    4  C11 UNL     1      25.454   2.786  51.922  1.00  0.00     0.093 C 
HETATM    5  C12 UNL     1      25.092   1.295  51.909  1.00  0.00     0.151 C 
ENDROOT
BRANCH   3   6
HETATM    6  C5  UNL     1      23.736   4.820  52.044  1.00  0.00     0.047 C 
HETATM    7  C6  UNL     1      23.559   5.407  50.894  1.00  0.00     0.006 A 
HETATM    8  C7  UNL     1      23.168   6.804  50.860  1.00  0.00     0.020 A 
HETATM    9  S2  UNL     1      23.772   4.619  49.312  1.00  0.00    -0.100 SA
HETATM   10  C8  UNL     1      22.948   7.578  49.850  1.00  0.00     0.026 A 
HETATM   11  C9  UNL     1      23.082   7.073  48.496  1.00  0.00     0.040 A 
HETATM   12 CL1  UNL     1      22.781   8.131  47.120  1.00  0.00    -0.084 Cl
HETATM   13  C10 UNL     1      23.417   5.867  48.086  1.00  0.00     0.074 A 
ENDBRANCH   3   6
BRANCH   1  14
HETATM   14  C3  UNL     1      23.273   0.235  53.467  1.00  0.00     0.192 A 
HETATM   15  S1  UNL     1      21.532  -0.341  53.022  1.00  0.00    -0.058 SA
HETATM   16  C2  UNL     1      21.517  -1.551  54.403  1.00  0.00     0.111 A 
HETATM   17  C1  UNL     1      22.766  -1.344  54.961  1.00  0.00     0.171 A 
HETATM   18  N3  UNL     1      23.673  -0.467  54.529  1.00  0.00    -0.198 NA
BRANCH  17  19
HETATM   19  O1  UNL     1      23.305  -2.017  56.080  1.00  0.00    -0.344 OA
HETATM   20  H1  UNL     1      23.045  -1.693  57.019  1.00  0.00     0.219 HD
ENDBRANCH  17  19
ENDBRANCH   1  14
BRANCH   5  21
HETATM   21  C13 UNL     1      26.231   0.532  52.438  1.00  0.00    -0.033 A 
HETATM   22  C14 UNL     1      26.418  -0.818  52.222  1.00  0.00     0.009 A 
HETATM   23  C15 UNL     1      27.483  -1.563  52.708  1.00  0.00     0.001 A 
HETATM   24  C16 UNL     1      28.431  -0.929  53.461  1.00  0.00     0.000 A 
HETATM   25  C17 UNL     1      28.322   0.420  53.726  1.00  0.00     0.001 A 
HETATM   26  C18 UNL     1      27.238   1.100  53.212  1.00  0.00     0.009 A 
ENDBRANCH   5  21
TORSDOF 4
ENDMDL
MODEL 4
REMARK VINA RESULT:      -8.1      2.382      4.305
REMARK  4 active torsions:
REMARK  status: ('A' for Active; 'I' for Inactive)
REMARK    1  A    between atoms: O1_1  and  C1_2 
REMARK    2  A    between atoms: C3_5  and  N1_6 
REMARK    3  A    between atoms: C4_8  and  C5_9 
REMARK    4  A    between atoms: C12_18  and  C13_19 
ROOT
HETATM    1  N1  UNL     1      24.811   0.846  52.223  1.00  0.00    -0.236 N 
HETATM    2  N2  UNL     1      23.893   1.623  51.526  1.00  0.00    -0.174 NA
HETATM    3  C4  UNL     1      24.508   2.503  50.798  1.00  0.00     0.058 C 
HETATM    4  C11 UNL     1      25.978   2.373  50.951  1.00  0.00     0.093 C 
HETATM    5  C12 UNL     1      26.089   0.997  51.622  1.00  0.00     0.151 C 
ENDROOT
BRANCH   3   6
HETATM    6  C5  UNL     1      23.761   3.463  49.953  1.00  0.00     0.047 C 
HETATM    7  C6  UNL     1      24.292   4.512  49.393  1.00  0.00     0.006 A 
HETATM    8  C7  UNL     1      23.462   5.384  48.582  1.00  0.00     0.020 A 
HETATM    9  S2  UNL     1      26.000   4.989  49.550  1.00  0.00    -0.100 SA
HETATM   10  C8  UNL     1      23.771   6.466  47.948  1.00  0.00     0.026 A 
HETATM   11  C9  UNL     1      25.129   6.977  47.985  1.00  0.00     0.040 A 
HETATM   12 CL1  UNL     1      25.545   8.453  47.119  1.00  0.00    -0.084 Cl
HETATM   13  C10 UNL     1      26.185   6.490  48.603  1.00  0.00     0.074 A 
ENDBRANCH   3   6
BRANCH   1  14
HETATM   14  C3  UNL     1      24.342   0.083  53.346  1.00  0.00     0.192 A 
HETATM   15  S1  UNL     1      22.503  -0.309  53.505  1.00  0.00    -0.058 SA
HETATM   16  C2  UNL     1      22.776  -1.225  55.073  1.00  0.00     0.111 A 
HETATM   17  C1  UNL     1      24.145  -1.099  55.228  1.00  0.00     0.171 A 
HETATM   18  N3  UNL     1      24.965  -0.458  54.395  1.00  0.00    -0.198 NA
BRANCH  17  19
HETATM   19  O1  UNL     1      24.919  -1.622  56.288  1.00  0.00    -0.344 OA
HETATM   20  H1  UNL     1      25.607  -1.009  56.741  1.00  0.00     0.219 HD
ENDBRANCH  17  19
ENDBRANCH   1  14
BRANCH   5  21
HETATM   21  C13 UNL     1      27.237   1.013  52.539  1.00  0.00    -0.033 A 
HETATM   22  C14 UNL     1      27.762   2.163  53.092  1.00  0.00     0.009 A 
HETATM   23  C15 UNL     1      28.843   2.208  53.961  1.00  0.00     0.001 A 
HETATM   24  C16 UNL     1      29.448   1.033  54.308  1.00  0.00     0.000 A 
HETATM   25  C17 UNL     1      28.987  -0.165  53.801  1.00  0.00     0.001 A 
HETATM   26  C18 UNL     1      27.908  -0.137  52.943  1.00  0.00     0.009 A 
ENDBRANCH   5  21
TORSDOF 4
ENDMDL
MODEL 5
REMARK VINA RESULT:      -8.1      2.118      2.618
REMARK  4 active torsions:
REMARK  status: ('A' for Active; 'I' for Inactive)
REMARK    1  A    between atoms: O1_1  and  C1_2 
REMARK    2  A    between atoms: C3_5  and  N1_6 
REMARK    3  A    between atoms: C4_8  and  C5_9 
REMARK    4  A    between atoms: C12_18  and  C13_19 
ROOT
HETATM    1  N1  UNL     1      25.113   1.186  52.246  1.00  0.00    -0.236 N 
HETATM    2  N2  UNL     1      25.240   1.954  51.095  1.00  0.00    -0.174 NA
HETATM    3  C4  UNL     1      24.082   2.405  50.723  1.00  0.00     0.058 C 
HETATM    4  C11 UNL     1      23.021   1.954  51.658  1.00  0.00     0.093 C 
HETATM    5  C12 UNL     1      23.857   1.468  52.849  1.00  0.00     0.151 C 
ENDROOT
BRANCH   3   6
HETATM    6  C5  UNL     1      23.936   3.255  49.519  1.00  0.00     0.047 C 
HETATM    7  C6  UNL     1      23.729   4.541  49.552  1.00  0.00     0.006 A 
HETATM    8  C7  UNL     1      23.603   5.274  48.306  1.00  0.00     0.020 A 
HETATM    9  S2  UNL     1      23.574   5.504  51.041  1.00  0.00    -0.100 SA
HETATM   10  C8  UNL     1      23.392   6.532  48.104  1.00  0.00     0.026 A 
HETATM   11  C9  UNL     1      23.244   7.442  49.225  1.00  0.00     0.040 A 
HETATM   12 CL1  UNL     1      22.957   9.157  48.944  1.00  0.00    -0.084 Cl
HETATM   13  C10 UNL     1      23.291   7.186  50.516  1.00  0.00     0.074 A 
ENDBRANCH   3   6
BRANCH   1  14
HETATM   14  C3  UNL     1      26.191   0.306  52.599  1.00  0.00     0.192 A 
HETATM   15  S1  UNL     1      27.769   1.016  53.352  1.00  0.00    -0.058 SA
HETATM   16  C2  UNL     1      28.528  -0.650  53.476  1.00  0.00     0.111 A 
HETATM   17  C1  UNL     1      27.525  -1.448  52.955  1.00  0.00     0.171 A 
HETATM   18  N3  UNL     1      26.346  -1.017  52.506  1.00  0.00    -0.198 NA
BRANCH  17  19
HETATM   19  O1  UNL     1      27.565  -2.852  52.804  1.00  0.00    -0.344 OA
HETATM   20  H1  UNL     1      26.967  -3.427  53.410  1.00  0.00     0.219 HD
ENDBRANCH  17  19
ENDBRANCH   1  14
BRANCH   5  21
HETATM   21  C13 UNL     1      23.169   0.330  53.472  1.00  0.00    -0.033 A 
HETATM   22  C14 UNL     1      23.629  -0.324  54.598  1.00  0.00     0.009 A 
HETATM   23  C15 UNL     1      22.999  -1.400  55.207  1.00  0.00     0.001 A 
HETATM   24  C16 UNL     1      21.833  -1.863  54.666  1.00  0.00     0.000 A 
HETATM   25  C17 UNL     1      21.302  -1.269  53.540  1.00  0.00     0.001 A 
HETATM   26  C18 UNL     1      21.979  -0.203  52.986  1.00  0.00     0.009 A 
ENDBRANCH   5  21
TORSDOF 4
ENDMDL
MODEL 6
REMARK VINA RESULT:      -7.8      4.160      7.444
REMARK  4 active torsions:
REMARK  status: ('A' for Active; 'I' for Inactive)
REMARK    1  A    between atoms: O1_1  and  C1_2 
REMARK    2  A    between atoms: C3_5  and  N1_6 
REMARK    3  A    between atoms: C4_8  and  C5_9 
REMARK    4  A    between atoms: C12_18  and  C13_19 
ROOT
HETATM    1  N1  UNL     1      23.748   1.801  51.910  1.00  0.00    -0.236 N 
HETATM    2  N2  UNL     1      22.457   1.459  51.523  1.00  0.00    -0.174 NA
HETATM    3  C4  UNL     1      22.062   0.400  52.159  1.00  0.00     0.058 C 
HETATM    4  C11 UNL     1      23.117  -0.077  53.087  1.00  0.00     0.093 C 
HETATM    5  C12 UNL     1      24.051   1.139  53.131  1.00  0.00     0.151 C 
ENDROOT
BRANCH   3   6
HETATM    6  C5  UNL     1      20.718  -0.179  51.930  1.00  0.00     0.047 C 
HETATM    7  C6  UNL     1      19.634   0.527  51.775  1.00  0.00     0.006 A 
HETATM    8  C7  UNL     1      18.368  -0.149  51.555  1.00  0.00     0.020 A 
HETATM    9  S2  UNL     1      19.568   2.306  51.819  1.00  0.00    -0.100 SA
HETATM   10  C8  UNL     1      17.186   0.342  51.385  1.00  0.00     0.026 A 
HETATM   11  C9  UNL     1      16.979   1.778  51.397  1.00  0.00     0.040 A 
HETATM   12 CL1  UNL     1      15.364   2.443  51.165  1.00  0.00    -0.084 Cl
HETATM   13  C10 UNL     1      17.857   2.745  51.565  1.00  0.00     0.074 A 
ENDBRANCH   3   6
BRANCH   1  14
HETATM   14  C3  UNL     1      24.495   2.696  51.071  1.00  0.00     0.192 A 
HETATM   15  S1  UNL     1      23.586   3.797  49.838  1.00  0.00    -0.058 SA
HETATM   16  C2  UNL     1      25.160   4.536  49.250  1.00  0.00     0.111 A 
HETATM   17  C1  UNL     1      26.085   3.871  50.035  1.00  0.00     0.171 A 
HETATM   18  N3  UNL     1      25.800   2.947  50.954  1.00  0.00    -0.198 NA
BRANCH  17  19
HETATM   19  O1  UNL     1      27.486   4.045  50.008  1.00  0.00    -0.344 OA
HETATM   20  H1  UNL     1      27.979   4.189  50.897  1.00  0.00     0.219 HD
ENDBRANCH  17  19
ENDBRANCH   1  14
BRANCH   5  21
HETATM   21  C13 UNL     1      25.433   0.665  53.283  1.00  0.00    -0.033 A 
HETATM   22  C14 UNL     1      26.360   1.253  54.119  1.00  0.00     0.009 A 
HETATM   23  C15 UNL     1      27.670   0.826  54.283  1.00  0.00     0.001 A 
HETATM   24  C16 UNL     1      28.094  -0.261  53.570  1.00  0.00     0.000 A 
HETATM   25  C17 UNL     1      27.232  -0.910  52.710  1.00  0.00     0.001 A 
HETATM   26  C18 UNL     1      25.944  -0.432  52.595  1.00  0.00     0.009 A 
ENDBRANCH   5  21
TORSDOF 4
ENDMDL
MODEL 7
REMARK VINA RESULT:      -7.6      5.580      7.845
REMARK  4 active torsions:
REMARK  status: ('A' for Active; 'I' for Inactive)
REMARK    1  A    between atoms: O1_1  and  C1_2 
REMARK    2  A    between atoms: C3_5  and  N1_6 
REMARK    3  A    between atoms: C4_8  and  C5_9 
REMARK    4  A    between atoms: C12_18  and  C13_19 
ROOT
HETATM    1  N1  UNL     1      19.061   2.243  50.475  1.00  0.00    -0.236 N 
HETATM    2  N2  UNL     1      20.215   2.936  50.128  1.00  0.00    -0.174 NA
HETATM    3  C4  UNL     1      21.244   2.147  50.170  1.00  0.00     0.058 C 
HETATM    4  C11 UNL     1      20.836   0.775  50.562  1.00  0.00     0.093 C 
HETATM    5  C12 UNL     1      19.315   0.849  50.372  1.00  0.00     0.151 C 
ENDROOT
BRANCH   3   6
HETATM    6  C5  UNL     1      22.604   2.635  49.844  1.00  0.00     0.047 C 
HETATM    7  C6  UNL     1      23.642   2.478  50.616  1.00  0.00     0.006 A 
HETATM    8  C7  UNL     1      24.929   2.998  50.193  1.00  0.00     0.020 A 
HETATM    9  S2  UNL     1      23.614   1.662  52.198  1.00  0.00    -0.100 SA
HETATM   10  C8  UNL     1      26.073   2.963  50.791  1.00  0.00     0.026 A 
HETATM   11  C9  UNL     1      26.204   2.330  52.090  1.00  0.00     0.040 A 
HETATM   12 CL1  UNL     1      27.766   2.284  52.902  1.00  0.00    -0.084 Cl
HETATM   13  C10 UNL     1      25.284   1.737  52.823  1.00  0.00     0.074 A 
ENDBRANCH   3   6
BRANCH   1  14
HETATM   14  C3  UNL     1      17.900   3.000  50.850  1.00  0.00     0.192 A 
HETATM   15  S1  UNL     1      16.564   3.357  49.566  1.00  0.00    -0.058 SA
HETATM   16  C2  UNL     1      15.556   4.284  50.790  1.00  0.00     0.111 A 
HETATM   17  C1  UNL     1      16.345   4.188  51.922  1.00  0.00     0.171 A 
HETATM   18  N3  UNL     1      17.518   3.559  52.000  1.00  0.00    -0.198 NA
BRANCH  17  19
HETATM   19  O1  UNL     1      16.055   4.732  53.193  1.00  0.00    -0.344 OA
HETATM   20  H1  UNL     1      15.174   4.467  53.651  1.00  0.00     0.219 HD
ENDBRANCH  17  19
ENDBRANCH   1  14
BRANCH   5  21
HETATM   21  C13 UNL     1      18.674  -0.002  51.383  1.00  0.00    -0.033 A 
HETATM   22  C14 UNL     1      19.298  -0.424  52.539  1.00  0.00     0.009 A 
HETATM   23  C15 UNL     1      18.717  -1.226  53.512  1.00  0.00     0.001 A 
HETATM   24  C16 UNL     1      17.427  -1.639  53.328  1.00  0.00     0.000 A 
HETATM   25  C17 UNL     1      16.728  -1.263  52.200  1.00  0.00     0.001 A 
HETATM   26  C18 UNL     1      17.366  -0.465  51.274  1.00  0.00     0.009 A 
ENDBRANCH   5  21
TORSDOF 4
ENDMDL
MODEL 8
REMARK VINA RESULT:      -7.5      4.176      5.667
REMARK  4 active torsions:
REMARK  status: ('A' for Active; 'I' for Inactive)
REMARK    1  A    between atoms: O1_1  and  C1_2 
REMARK    2  A    between atoms: C3_5  and  N1_6 
REMARK    3  A    between atoms: C4_8  and  C5_9 
REMARK    4  A    between atoms: C12_18  and  C13_19 
ROOT
HETATM    1  N1  UNL     1      21.278   3.197  51.371  1.00  0.00    -0.236 N 
HETATM    2  N2  UNL     1      21.763   4.472  51.102  1.00  0.00    -0.174 NA
HETATM    3  C4  UNL     1      22.980   4.592  51.534  1.00  0.00     0.058 C 
HETATM    4  C11 UNL     1      23.440   3.326  52.158  1.00  0.00     0.093 C 
HETATM    5  C12 UNL     1      22.374   2.341  51.659  1.00  0.00     0.151 C 
ENDROOT
BRANCH   3   6
HETATM    6  C5  UNL     1      23.734   5.856  51.375  1.00  0.00     0.047 C 
HETATM    7  C6  UNL     1      24.743   6.009  50.565  1.00  0.00     0.006 A 
HETATM    8  C7  UNL     1      25.408   7.298  50.490  1.00  0.00     0.020 A 
HETATM    9  S2  UNL     1      25.404   4.731  49.517  1.00  0.00    -0.100 SA
HETATM   10  C8  UNL     1      26.416   7.668  49.774  1.00  0.00     0.026 A 
HETATM   11  C9  UNL     1      27.059   6.732  48.871  1.00  0.00     0.040 A 
HETATM   12 CL1  UNL     1      28.435   7.242  47.896  1.00  0.00    -0.084 Cl
HETATM   13  C10 UNL     1      26.769   5.469  48.637  1.00  0.00     0.074 A 
ENDBRANCH   3   6
BRANCH   1  14
HETATM   14  C3  UNL     1      19.859   2.985  51.315  1.00  0.00     0.192 A 
HETATM   15  S1  UNL     1      19.161   1.628  50.205  1.00  0.00    -0.058 SA
HETATM   16  C2  UNL     1      17.439   2.025  50.705  1.00  0.00     0.111 A 
HETATM   17  C1  UNL     1      17.645   3.070  51.588  1.00  0.00     0.171 A 
HETATM   18  N3  UNL     1      18.831   3.581  51.923  1.00  0.00    -0.198 NA
BRANCH  17  19
HETATM   19  O1  UNL     1      16.647   3.781  52.292  1.00  0.00    -0.344 OA
HETATM   20  H1  UNL     1      15.706   3.834  51.886  1.00  0.00     0.219 HD
ENDBRANCH  17  19
ENDBRANCH   1  14
BRANCH   5  21
HETATM   21  C13 UNL     1      22.147   1.329  52.699  1.00  0.00    -0.033 A 
HETATM   22  C14 UNL     1      20.998   1.253  53.459  1.00  0.00     0.009 A 
HETATM   23  C15 UNL     1      20.757   0.308  54.447  1.00  0.00     0.001 A 
HETATM   24  C16 UNL     1      21.720  -0.629  54.700  1.00  0.00     0.000 A 
HETATM   25  C17 UNL     1      22.900  -0.627  53.986  1.00  0.00     0.001 A 
HETATM   26  C18 UNL     1      23.074   0.341  53.019  1.00  0.00     0.009 A 
ENDBRANCH   5  21
TORSDOF 4
ENDMDL
MODEL 9
REMARK VINA RESULT:      -7.5      5.386      7.349
REMARK  4 active torsions:
REMARK  status: ('A' for Active; 'I' for Inactive)
REMARK    1  A    between atoms: O1_1  and  C1_2 
REMARK    2  A    between atoms: C3_5  and  N1_6 
REMARK    3  A    between atoms: C4_8  and  C5_9 
REMARK    4  A    between atoms: C12_18  and  C13_19 
ROOT
HETATM    1  N1  UNL     1      21.811   2.234  50.917  1.00  0.00    -0.236 N 
HETATM    2  N2  UNL     1      22.989   2.812  51.375  1.00  0.00    -0.174 NA
HETATM    3  C4  UNL     1      23.510   2.085  52.315  1.00  0.00     0.058 C 
HETATM    4  C11 UNL     1      22.677   0.884  52.571  1.00  0.00     0.093 C 
HETATM    5  C12 UNL     1      21.775   0.875  51.330  1.00  0.00     0.151 C 
ENDROOT
BRANCH   3   6
HETATM    6  C5  UNL     1      24.775   2.477  52.980  1.00  0.00     0.047 C 
HETATM    7  C6  UNL     1      25.830   1.716  53.050  1.00  0.00     0.006 A 
HETATM    8  C7  UNL     1      27.017   2.206  53.727  1.00  0.00     0.020 A 
HETATM    9  S2  UNL     1      25.942   0.074  52.374  1.00  0.00    -0.100 SA
HETATM   10  C8  UNL     1      28.157   1.630  53.920  1.00  0.00     0.026 A 
HETATM   11  C9  UNL     1      28.395   0.287  53.424  1.00  0.00     0.040 A 
HETATM   12 CL1  UNL     1      29.951  -0.494  53.689  1.00  0.00    -0.084 Cl
HETATM   13  C10 UNL     1      27.584  -0.510  52.758  1.00  0.00     0.074 A 
ENDBRANCH   3   6
BRANCH   1  14
HETATM   14  C3  UNL     1      20.903   3.051  50.161  1.00  0.00     0.192 A 
HETATM   15  S1  UNL     1      20.840   2.885  48.283  1.00  0.00    -0.058 SA
HETATM   16  C2  UNL     1      19.537   4.173  48.156  1.00  0.00     0.111 A 
HETATM   17  C1  UNL     1      19.360   4.514  49.484  1.00  0.00     0.171 A 
HETATM   18  N3  UNL     1      20.016   3.983  50.516  1.00  0.00    -0.198 NA
BRANCH  17  19
HETATM   19  O1  UNL     1      18.459   5.479  49.988  1.00  0.00    -0.344 OA
HETATM   20  H1  UNL     1      17.791   5.912  49.339  1.00  0.00     0.219 HD
ENDBRANCH  17  19
ENDBRANCH   1  14
BRANCH   5  21
HETATM   21  C13 UNL     1      20.457   0.351  51.713  1.00  0.00    -0.033 A 
HETATM   22  C14 UNL     1      20.189  -0.241  52.931  1.00  0.00     0.009 A 
HETATM   23  C15 UNL     1      18.955  -0.743  53.318  1.00  0.00     0.001 A 
HETATM   24  C16 UNL     1      17.911  -0.654  52.440  1.00  0.00     0.000 A 
HETATM   25  C17 UNL     1      18.090  -0.077  51.200  1.00  0.00     0.001 A 
HETATM   26  C18 UNL     1      19.343   0.402  50.880  1.00  0.00     0.009 A 
ENDBRANCH   5  21
TORSDOF 4
ENDMDL
