MODEL 1
REMARK VINA RESULT:      -6.9      0.000      0.000
REMARK  8 active torsions:
REMARK  status: ('A' for Active; 'I' for Inactive)
REMARK    1  A    between atoms: N1_2  and  C3_4 
REMARK    2  A    between atoms: C3_4  and  C4_5 
REMARK    3  A    between atoms: C4_5  and  C5_6 
REMARK    4  A    between atoms: C5_6  and  C6_7 
REMARK       I    between atoms: C6_7  and  N2_9 
REMARK    5  A    between atoms: N2_9  and  C7_10 
REMARK    6  A    between atoms: C7_10  and  C8_11 
REMARK    7  A    between atoms: C7_10  and  C11_14 
REMARK    8  A    between atoms: C16_20  and  N4_21 
ROOT
HETATM    1  C11 UNL     1      23.608   0.993  52.607  1.00  0.00     0.013 C 
HETATM    2  C12 UNL     1      22.842   0.141  53.274  1.00  0.00    -0.013 A 
HETATM    3  C13 UNL     1      23.415  -0.585  54.436  1.00  0.00     0.189 A 
HETATM    4  N3  UNL     1      22.449  -1.454  55.058  1.00  0.00    -0.297 NA
HETATM    5  C14 UNL     1      21.253  -1.558  54.625  1.00  0.00     0.113 A 
HETATM    6  C15 UNL     1      20.658  -0.872  53.498  1.00  0.00     0.048 A 
HETATM    7  C16 UNL     1      21.462  -0.036  52.841  1.00  0.00     0.040 A 
ENDROOT
BRANCH   1   8
HETATM    8  C7  UNL     1      25.015   1.189  53.055  1.00  0.00     0.131 C 
BRANCH   8   9
HETATM    9  N2  UNL     1      25.521   2.477  52.547  1.00  0.00    -0.350 N 
HETATM   10  C6  UNL     1      25.374   2.775  51.171  1.00  0.00     0.218 C 
HETATM   11  O1  UNL     1      24.908   2.258  50.125  1.00  0.00    -0.274 OA
HETATM   12  H13 UNL     1      25.981   3.179  53.143  1.00  0.00     0.163 HD
BRANCH  10  13
HETATM   13  C5  UNL     1      25.858   4.047  50.581  1.00  0.00     0.104 C 
BRANCH  13  14
HETATM   14  C4  UNL     1      25.110   4.406  49.320  1.00  0.00     0.039 C 
BRANCH  14  15
HETATM   15  C3  UNL     1      24.992   5.901  49.234  1.00  0.00     0.271 C 
BRANCH  15  16
HETATM   16  N1  UNL     1      26.237   6.585  49.452  1.00  0.00     0.080 N 
HETATM   17  C1  UNL     1      27.056   6.661  48.268  1.00  0.00     0.309 C 
HETATM   18  C2  UNL     1      26.094   7.849  50.122  1.00  0.00     0.309 C 
ENDBRANCH  15  16
ENDBRANCH  14  15
ENDBRANCH  13  14
ENDBRANCH  10  13
ENDBRANCH   8   9
BRANCH   8  19
HETATM   19  C8  UNL     1      25.907   0.150  52.494  1.00  0.00    -0.002 C 
HETATM   20  C9  UNL     1      26.957  -0.160  53.279  1.00  0.00    -0.033 C 
HETATM   21  C10 UNL     1      28.010  -1.180  52.944  1.00  0.00     0.036 C 
ENDBRANCH   8  19
ENDBRANCH   1   8
BRANCH   7  22
HETATM   22  N4  UNL     1      20.873   0.650  51.723  1.00  0.00    -0.373 N 
HETATM   23  C17 UNL     1      21.185   0.419  50.319  1.00  0.00     0.150 C 
HETATM   24  C18 UNL     1      21.562   1.681  49.646  1.00  0.00    -0.006 C 
HETATM   25  C19 UNL     1      21.637   2.959  50.031  1.00  0.00     0.016 C 
HETATM   26  C20 UNL     1      21.325   3.451  51.362  1.00  0.00     0.008 C 
HETATM   27 BR1  UNL     1      22.123   5.146  51.751  1.00  0.00    -0.051 Br
HETATM   28  C21 UNL     1      20.593   2.954  52.369  1.00  0.00     0.012 C 
HETATM   29  C22 UNL     1      19.903   1.628  52.213  1.00  0.00     0.152 C 
ENDBRANCH   7  22
TORSDOF 8
ENDMDL
MODEL 2
REMARK VINA RESULT:      -6.8      1.630      2.088
REMARK  8 active torsions:
REMARK  status: ('A' for Active; 'I' for Inactive)
REMARK    1  A    between atoms: N1_2  and  C3_4 
REMARK    2  A    between atoms: C3_4  and  C4_5 
REMARK    3  A    between atoms: C4_5  and  C5_6 
REMARK    4  A    between atoms: C5_6  and  C6_7 
REMARK       I    between atoms: C6_7  and  N2_9 
REMARK    5  A    between atoms: N2_9  and  C7_10 
REMARK    6  A    between atoms: C7_10  and  C8_11 
REMARK    7  A    between atoms: C7_10  and  C11_14 
REMARK    8  A    between atoms: C16_20  and  N4_21 
ROOT
HETATM    1  C11 UNL     1      23.232   1.926  51.338  1.00  0.00     0.013 C 
HETATM    2  C12 UNL     1      22.258   1.259  51.942  1.00  0.00    -0.013 A 
HETATM    3  C13 UNL     1      22.457   0.807  53.343  1.00  0.00     0.189 A 
HETATM    4  N3  UNL     1      21.300   0.117  53.855  1.00  0.00    -0.297 NA
HETATM    5  C14 UNL     1      20.252  -0.064  53.151  1.00  0.00     0.113 A 
HETATM    6  C15 UNL     1      20.021   0.357  51.785  1.00  0.00     0.048 A 
HETATM    7  C16 UNL     1      21.026   1.010  51.204  1.00  0.00     0.040 A 
ENDROOT
BRANCH   1   8
HETATM    8  C7  UNL     1      24.487   2.197  52.094  1.00  0.00     0.131 C 
BRANCH   8   9
HETATM    9  N2  UNL     1      24.982   3.545  51.763  1.00  0.00    -0.350 N 
HETATM   10  C6  UNL     1      25.275   3.855  50.413  1.00  0.00     0.218 C 
HETATM   11  O1  UNL     1      25.253   3.311  49.281  1.00  0.00    -0.274 OA
HETATM   12  H13 UNL     1      25.130   4.282  52.467  1.00  0.00     0.163 HD
BRANCH  10  13
HETATM   13  C5  UNL     1      25.779   5.187  49.999  1.00  0.00     0.104 C 
BRANCH  13  14
HETATM   14  C4  UNL     1      26.787   5.086  48.880  1.00  0.00     0.039 C 
BRANCH  14  15
HETATM   15  C3  UNL     1      27.041   6.461  48.330  1.00  0.00     0.271 C 
BRANCH  15  16
HETATM   16  N1  UNL     1      28.438   6.768  48.182  1.00  0.00     0.080 N 
HETATM   17  C1  UNL     1      29.280   5.599  48.206  1.00  0.00     0.309 C 
HETATM   18  C2  UNL     1      28.723   7.649  47.082  1.00  0.00     0.309 C 
ENDBRANCH  15  16
ENDBRANCH  14  15
ENDBRANCH  13  14
ENDBRANCH  10  13
ENDBRANCH   8   9
BRANCH   8  19
HETATM   19  C8  UNL     1      25.563   1.259  51.702  1.00  0.00    -0.002 C 
HETATM   20  C9  UNL     1      26.035   0.505  52.714  1.00  0.00    -0.033 C 
HETATM   21  C10 UNL     1      27.124  -0.523  52.584  1.00  0.00     0.036 C 
ENDBRANCH   8  19
ENDBRANCH   1   8
BRANCH   7  22
HETATM   22  N4  UNL     1      20.799   1.433  49.849  1.00  0.00    -0.373 N 
HETATM   23  C17 UNL     1      21.504   0.946  48.672  1.00  0.00     0.150 C 
HETATM   24  C18 UNL     1      22.078   2.067  47.896  1.00  0.00    -0.006 C 
HETATM   25  C19 UNL     1      22.053   3.398  48.019  1.00  0.00     0.016 C 
HETATM   26  C20 UNL     1      21.372   4.127  49.075  1.00  0.00     0.008 C 
HETATM   27 BR1  UNL     1      22.042   5.901  49.327  1.00  0.00    -0.051 Br
HETATM   28  C21 UNL     1      20.371   3.804  49.907  1.00  0.00     0.012 C 
HETATM   29  C22 UNL     1      19.741   2.442  49.830  1.00  0.00     0.152 C 
ENDBRANCH   7  22
TORSDOF 8
ENDMDL
MODEL 3
REMARK VINA RESULT:      -6.7      3.001      6.210
REMARK  8 active torsions:
REMARK  status: ('A' for Active; 'I' for Inactive)
REMARK    1  A    between atoms: N1_2  and  C3_4 
REMARK    2  A    between atoms: C3_4  and  C4_5 
REMARK    3  A    between atoms: C4_5  and  C5_6 
REMARK    4  A    between atoms: C5_6  and  C6_7 
REMARK       I    between atoms: C6_7  and  N2_9 
REMARK    5  A    between atoms: N2_9  and  C7_10 
REMARK    6  A    between atoms: C7_10  and  C8_11 
REMARK    7  A    between atoms: C7_10  and  C11_14 
REMARK    8  A    between atoms: C16_20  and  N4_21 
ROOT
HETATM    1  C11 UNL     1      24.340   4.403  49.825  1.00  0.00     0.013 C 
HETATM    2  C12 UNL     1      23.140   4.332  50.383  1.00  0.00    -0.013 A 
HETATM    3  C13 UNL     1      22.836   3.201  51.297  1.00  0.00     0.189 A 
HETATM    4  N3  UNL     1      21.500   3.285  51.831  1.00  0.00    -0.297 NA
HETATM    5  C14 UNL     1      20.706   4.236  51.526  1.00  0.00     0.113 A 
HETATM    6  C15 UNL     1      20.964   5.353  50.642  1.00  0.00     0.048 A 
HETATM    7  C16 UNL     1      22.174   5.382  50.085  1.00  0.00     0.040 A 
ENDROOT
BRANCH   1   8
HETATM    8  C7  UNL     1      25.337   3.341  50.139  1.00  0.00     0.131 C 
BRANCH   8   9
HETATM    9  N2  UNL     1      25.658   3.373  51.577  1.00  0.00    -0.350 N 
HETATM   10  C6  UNL     1      25.708   2.154  52.295  1.00  0.00     0.218 C 
HETATM   11  O1  UNL     1      25.554   0.922  52.100  1.00  0.00    -0.274 OA
HETATM   12  H13 UNL     1      25.849   4.242  52.095  1.00  0.00     0.163 HD
BRANCH  10  13
HETATM   13  C5  UNL     1      26.021   2.101  53.744  1.00  0.00     0.104 C 
BRANCH  13  14
HETATM   14  C4  UNL     1      26.548   0.749  54.159  1.00  0.00     0.039 C 
BRANCH  14  15
HETATM   15  C3  UNL     1      28.050   0.794  54.165  1.00  0.00     0.271 C 
BRANCH  15  16
HETATM   16  N1  UNL     1      28.660  -0.494  53.974  1.00  0.00     0.080 N 
HETATM   17  C1  UNL     1      27.893  -1.362  53.117  1.00  0.00     0.309 C 
HETATM   18  C2  UNL     1      30.051  -0.427  53.615  1.00  0.00     0.309 C 
ENDBRANCH  15  16
ENDBRANCH  14  15
ENDBRANCH  13  14
ENDBRANCH  10  13
ENDBRANCH   8   9
BRANCH   8  19
HETATM   19  C8  UNL     1      26.614   3.575  49.430  1.00  0.00    -0.002 C 
HETATM   20  C9  UNL     1      26.821   4.857  49.070  1.00  0.00    -0.033 C 
HETATM   21  C10 UNL     1      28.035   5.361  48.341  1.00  0.00     0.036 C 
ENDBRANCH   8  19
ENDBRANCH   1   8
BRANCH   7  22
HETATM   22  N4  UNL     1      22.434   6.492  49.209  1.00  0.00    -0.373 N 
HETATM   23  C17 UNL     1      22.665   6.411  47.773  1.00  0.00     0.150 C 
HETATM   24  C18 UNL     1      23.932   7.078  47.402  1.00  0.00    -0.006 C 
HETATM   25  C19 UNL     1      24.863   7.758  48.079  1.00  0.00     0.016 C 
HETATM   26  C20 UNL     1      24.833   8.021  49.508  1.00  0.00     0.008 C 
HETATM   27 BR1  UNL     1      26.552   8.430  50.241  1.00  0.00    -0.051 Br
HETATM   28  C21 UNL     1      23.842   8.033  50.411  1.00  0.00     0.012 C 
HETATM   29  C22 UNL     1      22.433   7.730  49.985  1.00  0.00     0.152 C 
ENDBRANCH   7  22
TORSDOF 8
ENDMDL
MODEL 4
REMARK VINA RESULT:      -6.7      2.324      6.507
REMARK  8 active torsions:
REMARK  status: ('A' for Active; 'I' for Inactive)
REMARK    1  A    between atoms: N1_2  and  C3_4 
REMARK    2  A    between atoms: C3_4  and  C4_5 
REMARK    3  A    between atoms: C4_5  and  C5_6 
REMARK    4  A    between atoms: C5_6  and  C6_7 
REMARK       I    between atoms: C6_7  and  N2_9 
REMARK    5  A    between atoms: N2_9  and  C7_10 
REMARK    6  A    between atoms: C7_10  and  C8_11 
REMARK    7  A    between atoms: C7_10  and  C11_14 
REMARK    8  A    between atoms: C16_20  and  N4_21 
ROOT
HETATM    1  C11 UNL     1      24.279   2.620  51.519  1.00  0.00     0.013 C 
HETATM    2  C12 UNL     1      23.545   2.856  50.442  1.00  0.00    -0.013 A 
HETATM    3  C13 UNL     1      22.736   1.751  49.865  1.00  0.00     0.189 A 
HETATM    4  N3  UNL     1      21.984   2.179  48.713  1.00  0.00    -0.297 NA
HETATM    5  C14 UNL     1      22.039   3.376  48.274  1.00  0.00     0.113 A 
HETATM    6  C15 UNL     1      22.813   4.478  48.804  1.00  0.00     0.048 A 
HETATM    7  C16 UNL     1      23.553   4.200  49.877  1.00  0.00     0.040 A 
ENDROOT
BRANCH   1   8
HETATM    8  C7  UNL     1      24.262   1.253  52.109  1.00  0.00     0.131 C 
BRANCH   8   9
HETATM    9  N2  UNL     1      23.202   1.167  53.130  1.00  0.00    -0.350 N 
HETATM   10  C6  UNL     1      22.723  -0.108  53.514  1.00  0.00     0.218 C 
HETATM   11  O1  UNL     1      22.917  -1.322  53.252  1.00  0.00    -0.274 OA
HETATM   12  H13 UNL     1      22.785   1.992  53.583  1.00  0.00     0.163 HD
BRANCH  10  13
HETATM   13  C5  UNL     1      21.657  -0.280  54.531  1.00  0.00     0.104 C 
BRANCH  13  14
HETATM   14  C4  UNL     1      20.380   0.421  54.135  1.00  0.00     0.039 C 
BRANCH  14  15
HETATM   15  C3  UNL     1      19.545  -0.519  53.313  1.00  0.00     0.271 C 
BRANCH  15  16
HETATM   16  N1  UNL     1      19.208   0.004  52.016  1.00  0.00     0.080 N 
HETATM   17  C1  UNL     1      17.851  -0.285  51.626  1.00  0.00     0.309 C 
HETATM   18  C2  UNL     1      19.567   1.384  51.838  1.00  0.00     0.309 C 
ENDBRANCH  15  16
ENDBRANCH  14  15
ENDBRANCH  13  14
ENDBRANCH  10  13
ENDBRANCH   8   9
BRANCH   8  19
HETATM   19  C8  UNL     1      25.530   0.954  52.811  1.00  0.00    -0.002 C 
HETATM   20  C9  UNL     1      26.220  -0.080  52.293  1.00  0.00    -0.033 C 
HETATM   21  C10 UNL     1      27.535  -0.587  52.816  1.00  0.00     0.036 C 
ENDBRANCH   8  19
ENDBRANCH   1   8
BRANCH   7  22
HETATM   22  N4  UNL     1      24.321   5.293  50.409  1.00  0.00    -0.373 N 
HETATM   23  C17 UNL     1      23.830   6.321  51.317  1.00  0.00     0.150 C 
HETATM   24  C18 UNL     1      24.095   7.672  50.780  1.00  0.00    -0.006 C 
HETATM   25  C19 UNL     1      24.708   8.141  49.688  1.00  0.00     0.016 C 
HETATM   26  C20 UNL     1      25.326   7.321  48.660  1.00  0.00     0.008 C 
HETATM   27 BR1  UNL     1      25.530   8.227  46.987  1.00  0.00    -0.051 Br
HETATM   28  C21 UNL     1      25.779   6.060  48.650  1.00  0.00     0.012 C 
HETATM   29  C22 UNL     1      25.687   5.219  49.893  1.00  0.00     0.152 C 
ENDBRANCH   7  22
TORSDOF 8
ENDMDL
MODEL 5
REMARK VINA RESULT:      -6.6      2.489      6.680
REMARK  8 active torsions:
REMARK  status: ('A' for Active; 'I' for Inactive)
REMARK    1  A    between atoms: N1_2  and  C3_4 
REMARK    2  A    between atoms: C3_4  and  C4_5 
REMARK    3  A    between atoms: C4_5  and  C5_6 
REMARK    4  A    between atoms: C5_6  and  C6_7 
REMARK       I    between atoms: C6_7  and  N2_9 
REMARK    5  A    between atoms: N2_9  and  C7_10 
REMARK    6  A    between atoms: C7_10  and  C8_11 
REMARK    7  A    between atoms: C7_10  and  C11_14 
REMARK    8  A    between atoms: C16_20  and  N4_21 
ROOT
HETATM    1  C11 UNL     1      24.430   4.372  50.229  1.00  0.00     0.013 C 
HETATM    2  C12 UNL     1      25.532   4.798  49.628  1.00  0.00    -0.013 A 
HETATM    3  C13 UNL     1      26.672   3.859  49.464  1.00  0.00     0.189 A 
HETATM    4  N3  UNL     1      27.779   4.473  48.775  1.00  0.00    -0.297 NA
HETATM    5  C14 UNL     1      27.741   5.683  48.373  1.00  0.00     0.113 A 
HETATM    6  C15 UNL     1      26.653   6.628  48.515  1.00  0.00     0.048 A 
HETATM    7  C16 UNL     1      25.569   6.170  49.139  1.00  0.00     0.040 A 
ENDROOT
BRANCH   1   8
HETATM    8  C7  UNL     1      24.382   2.965  50.717  1.00  0.00     0.131 C 
BRANCH   8   9
HETATM    9  N2  UNL     1      23.026   2.420  50.520  1.00  0.00    -0.350 N 
HETATM   10  C6  UNL     1      22.574   2.171  49.202  1.00  0.00     0.218 C 
HETATM   11  O1  UNL     1      22.980   2.267  48.017  1.00  0.00    -0.274 OA
HETATM   12  H13 UNL     1      22.383   2.208  51.295  1.00  0.00     0.163 HD
BRANCH  10  13
HETATM   13  C5  UNL     1      21.224   1.626  48.918  1.00  0.00     0.104 C 
BRANCH  13  14
HETATM   14  C4  UNL     1      20.612   0.971  50.133  1.00  0.00     0.039 C 
BRANCH  14  15
HETATM   15  C3  UNL     1      19.356   1.708  50.502  1.00  0.00     0.271 C 
BRANCH  15  16
HETATM   16  N1  UNL     1      19.462   2.434  51.739  1.00  0.00     0.080 N 
HETATM   17  C1  UNL     1      20.288   1.769  52.715  1.00  0.00     0.309 C 
HETATM   18  C2  UNL     1      19.794   3.822  51.568  1.00  0.00     0.309 C 
ENDBRANCH  15  16
ENDBRANCH  14  15
ENDBRANCH  13  14
ENDBRANCH  10  13
ENDBRANCH   8   9
BRANCH   8  19
HETATM   19  C8  UNL     1      24.645   2.890  52.171  1.00  0.00    -0.002 C 
HETATM   20  C9  UNL     1      25.618   2.023  52.513  1.00  0.00    -0.033 C 
HETATM   21  C10 UNL     1      26.079   1.759  53.920  1.00  0.00     0.036 C 
ENDBRANCH   8  19
ENDBRANCH   1   8
BRANCH   7  22
HETATM   22  N4  UNL     1      24.485   7.105  49.279  1.00  0.00    -0.373 N 
HETATM   23  C17 UNL     1      23.981   7.648  50.532  1.00  0.00     0.150 C 
HETATM   24  C18 UNL     1      22.523   7.432  50.655  1.00  0.00    -0.006 C 
HETATM   25  C19 UNL     1      21.588   6.897  49.863  1.00  0.00     0.016 C 
HETATM   26  C20 UNL     1      21.830   6.338  48.544  1.00  0.00     0.008 C 
HETATM   27 BR1  UNL     1      20.468   5.120  47.975  1.00  0.00    -0.051 Br
HETATM   28  C21 UNL     1      22.814   6.504  47.650  1.00  0.00     0.012 C 
HETATM   29  C22 UNL     1      23.957   7.432  47.955  1.00  0.00     0.152 C 
ENDBRANCH   7  22
TORSDOF 8
ENDMDL
MODEL 6
REMARK VINA RESULT:      -6.6      2.580      5.002
REMARK  8 active torsions:
REMARK  status: ('A' for Active; 'I' for Inactive)
REMARK    1  A    between atoms: N1_2  and  C3_4 
REMARK    2  A    between atoms: C3_4  and  C4_5 
REMARK    3  A    between atoms: C4_5  and  C5_6 
REMARK    4  A    between atoms: C5_6  and  C6_7 
REMARK       I    between atoms: C6_7  and  N2_9 
REMARK    5  A    between atoms: N2_9  and  C7_10 
REMARK    6  A    between atoms: C7_10  and  C8_11 
REMARK    7  A    between atoms: C7_10  and  C11_14 
REMARK    8  A    between atoms: C16_20  and  N4_21 
ROOT
HETATM    1  C11 UNL     1      23.732   1.857  52.641  1.00  0.00     0.013 C 
HETATM    2  C12 UNL     1      23.378   0.819  53.386  1.00  0.00    -0.013 A 
HETATM    3  C13 UNL     1      21.934   0.548  53.604  1.00  0.00     0.189 A 
HETATM    4  N3  UNL     1      21.722  -0.624  54.416  1.00  0.00    -0.297 NA
HETATM    5  C14 UNL     1      22.692  -1.315  54.874  1.00  0.00     0.113 A 
HETATM    6  C15 UNL     1      24.108  -1.084  54.686  1.00  0.00     0.048 A 
HETATM    7  C16 UNL     1      24.427  -0.022  53.947  1.00  0.00     0.040 A 
ENDROOT
BRANCH   1   8
HETATM    8  C7  UNL     1      22.662   2.710  52.052  1.00  0.00     0.131 C 
BRANCH   8   9
HETATM    9  N2  UNL     1      22.680   2.582  50.584  1.00  0.00    -0.350 N 
HETATM   10  C6  UNL     1      21.786   1.675  49.965  1.00  0.00     0.218 C 
HETATM   11  O1  UNL     1      20.887   0.855  50.278  1.00  0.00    -0.274 OA
HETATM   12  H13 UNL     1      23.313   3.120  49.976  1.00  0.00     0.163 HD
BRANCH  10  13
HETATM   13  C5  UNL     1      21.743   1.486  48.495  1.00  0.00     0.104 C 
BRANCH  13  14
HETATM   14  C4  UNL     1      22.657   2.447  47.774  1.00  0.00     0.039 C 
BRANCH  14  15
HETATM   15  C3  UNL     1      21.879   3.136  46.689  1.00  0.00     0.271 C 
BRANCH  15  16
HETATM   16  N1  UNL     1      21.865   4.568  46.818  1.00  0.00     0.080 N 
HETATM   17  C1  UNL     1      22.777   5.054  47.822  1.00  0.00     0.309 C 
HETATM   18  C2  UNL     1      21.981   5.262  45.564  1.00  0.00     0.309 C 
ENDBRANCH  15  16
ENDBRANCH  14  15
ENDBRANCH  13  14
ENDBRANCH  10  13
ENDBRANCH   8   9
BRANCH   8  19
HETATM   19  C8  UNL     1      22.897   4.142  52.340  1.00  0.00    -0.002 C 
HETATM   20  C9  UNL     1      23.560   4.801  51.370  1.00  0.00    -0.033 C 
HETATM   21  C10 UNL     1      23.925   6.259  51.414  1.00  0.00     0.036 C 
ENDBRANCH   8  19
ENDBRANCH   1   8
BRANCH   7  22
HETATM   22  N4  UNL     1      25.834   0.208  53.756  1.00  0.00    -0.373 N 
HETATM   23  C17 UNL     1      26.705   0.966  54.644  1.00  0.00     0.150 C 
HETATM   24  C18 UNL     1      27.422   2.027  53.904  1.00  0.00    -0.006 C 
HETATM   25  C19 UNL     1      27.472   2.401  52.622  1.00  0.00     0.016 C 
HETATM   26  C20 UNL     1      26.739   1.770  51.537  1.00  0.00     0.008 C 
HETATM   27 BR1  UNL     1      26.529   2.898  50.006  1.00  0.00    -0.051 Br
HETATM   28  C21 UNL     1      26.182   0.559  51.397  1.00  0.00     0.012 C 
HETATM   29  C22 UNL     1      26.265  -0.439  52.518  1.00  0.00     0.152 C 
ENDBRANCH   7  22
TORSDOF 8
ENDMDL
MODEL 7
REMARK VINA RESULT:      -6.6      1.994      6.904
REMARK  8 active torsions:
REMARK  status: ('A' for Active; 'I' for Inactive)
REMARK    1  A    between atoms: N1_2  and  C3_4 
REMARK    2  A    between atoms: C3_4  and  C4_5 
REMARK    3  A    between atoms: C4_5  and  C5_6 
REMARK    4  A    between atoms: C5_6  and  C6_7 
REMARK       I    between atoms: C6_7  and  N2_9 
REMARK    5  A    between atoms: N2_9  and  C7_10 
REMARK    6  A    between atoms: C7_10  and  C8_11 
REMARK    7  A    between atoms: C7_10  and  C11_14 
REMARK    8  A    between atoms: C16_20  and  N4_21 
ROOT
HETATM    1  C11 UNL     1      24.844   4.245  50.126  1.00  0.00     0.013 C 
HETATM    2  C12 UNL     1      25.870   4.826  49.521  1.00  0.00    -0.013 A 
HETATM    3  C13 UNL     1      27.087   4.022  49.235  1.00  0.00     0.189 A 
HETATM    4  N3  UNL     1      28.097   4.796  48.559  1.00  0.00    -0.297 NA
HETATM    5  C14 UNL     1      27.923   6.025  48.262  1.00  0.00     0.113 A 
HETATM    6  C15 UNL     1      26.757   6.842  48.524  1.00  0.00     0.048 A 
HETATM    7  C16 UNL     1      25.752   6.230  49.149  1.00  0.00     0.040 A 
ENDROOT
BRANCH   1   8
HETATM    8  C7  UNL     1      24.954   2.805  50.495  1.00  0.00     0.131 C 
BRANCH   8   9
HETATM    9  N2  UNL     1      23.607   2.218  50.604  1.00  0.00    -0.350 N 
HETATM   10  C6  UNL     1      22.683   2.791  51.510  1.00  0.00     0.218 C 
HETATM   11  O1  UNL     1      22.615   3.730  52.342  1.00  0.00    -0.274 OA
HETATM   12  H13 UNL     1      23.297   1.406  50.052  1.00  0.00     0.163 HD
BRANCH  10  13
HETATM   13  C5  UNL     1      21.309   2.258  51.681  1.00  0.00     0.104 C 
BRANCH  13  14
HETATM   14  C4  UNL     1      21.206   1.329  52.866  1.00  0.00     0.039 C 
BRANCH  14  15
HETATM   15  C3  UNL     1      21.440  -0.080  52.400  1.00  0.00     0.271 C 
BRANCH  15  16
HETATM   16  N1  UNL     1      22.260  -0.849  53.296  1.00  0.00     0.080 N 
HETATM   17  C1  UNL     1      23.588  -0.310  53.451  1.00  0.00     0.309 C 
HETATM   18  C2  UNL     1      21.622  -1.151  54.549  1.00  0.00     0.309 C 
ENDBRANCH  15  16
ENDBRANCH  14  15
ENDBRANCH  13  14
ENDBRANCH  10  13
ENDBRANCH   8   9
BRANCH   8  19
HETATM   19  C8  UNL     1      25.583   2.637  51.824  1.00  0.00    -0.002 C 
HETATM   20  C9  UNL     1      26.452   1.611  51.899  1.00  0.00    -0.033 C 
HETATM   21  C10 UNL     1      27.223   1.226  53.131  1.00  0.00     0.036 C 
ENDBRANCH   8  19
ENDBRANCH   1   8
BRANCH   7  22
HETATM   22  N4  UNL     1      24.591   7.037  49.408  1.00  0.00    -0.373 N 
HETATM   23  C17 UNL     1      24.151   7.509  50.714  1.00  0.00     0.150 C 
HETATM   24  C18 UNL     1      22.744   7.132  50.967  1.00  0.00    -0.006 C 
HETATM   25  C19 UNL     1      21.802   6.503  50.257  1.00  0.00     0.016 C 
HETATM   26  C20 UNL     1      21.977   5.987  48.910  1.00  0.00     0.008 C 
HETATM   27 BR1  UNL     1      20.709   4.631  48.446  1.00  0.00    -0.051 Br
HETATM   28  C21 UNL     1      22.848   6.271  47.931  1.00  0.00     0.012 C 
HETATM   29  C22 UNL     1      23.906   7.316  48.146  1.00  0.00     0.152 C 
ENDBRANCH   7  22
TORSDOF 8
ENDMDL
MODEL 8
REMARK VINA RESULT:      -6.5      3.138      5.786
REMARK  8 active torsions:
REMARK  status: ('A' for Active; 'I' for Inactive)
REMARK    1  A    between atoms: N1_2  and  C3_4 
REMARK    2  A    between atoms: C3_4  and  C4_5 
REMARK    3  A    between atoms: C4_5  and  C5_6 
REMARK    4  A    between atoms: C5_6  and  C6_7 
REMARK       I    between atoms: C6_7  and  N2_9 
REMARK    5  A    between atoms: N2_9  and  C7_10 
REMARK    6  A    between atoms: C7_10  and  C8_11 
REMARK    7  A    between atoms: C7_10  and  C11_14 
REMARK    8  A    between atoms: C16_20  and  N4_21 
ROOT
HETATM    1  C11 UNL     1      24.788   3.757  50.742  1.00  0.00     0.013 C 
HETATM    2  C12 UNL     1      23.792   2.951  50.400  1.00  0.00    -0.013 A 
HETATM    3  C13 UNL     1      23.212   3.062  49.037  1.00  0.00     0.189 A 
HETATM    4  N3  UNL     1      22.157   2.104  48.822  1.00  0.00    -0.297 NA
HETATM    5  C14 UNL     1      21.796   1.279  49.726  1.00  0.00     0.113 A 
HETATM    6  C15 UNL     1      22.334   1.141  51.062  1.00  0.00     0.048 A 
HETATM    7  C16 UNL     1      23.321   1.978  51.377  1.00  0.00     0.040 A 
ENDROOT
BRANCH   1   8
HETATM    8  C7  UNL     1      25.284   4.743  49.742  1.00  0.00     0.131 C 
BRANCH   8   9
HETATM    9  N2  UNL     1      26.715   4.506  49.481  1.00  0.00    -0.350 N 
HETATM   10  C6  UNL     1      27.413   5.399  48.634  1.00  0.00     0.218 C 
HETATM   11  O1  UNL     1      27.203   6.437  47.956  1.00  0.00    -0.274 OA
HETATM   12  H13 UNL     1      27.241   3.718  49.884  1.00  0.00     0.163 HD
BRANCH  10  13
HETATM   13  C5  UNL     1      28.853   5.229  48.319  1.00  0.00     0.104 C 
BRANCH  13  14
HETATM   14  C4  UNL     1      29.495   6.526  47.891  1.00  0.00     0.039 C 
BRANCH  14  15
HETATM   15  C3  UNL     1      30.913   6.253  47.478  1.00  0.00     0.271 C 
BRANCH  15  16
HETATM   16  N1  UNL     1      31.627   5.419  48.406  1.00  0.00     0.080 N 
HETATM   17  C1  UNL     1      32.449   4.428  47.759  1.00  0.00     0.309 C 
HETATM   18  C2  UNL     1      32.324   6.155  49.426  1.00  0.00     0.309 C 
ENDBRANCH  15  16
ENDBRANCH  14  15
ENDBRANCH  13  14
ENDBRANCH  10  13
ENDBRANCH   8   9
BRANCH   8  19
HETATM   19  C8  UNL     1      25.185   6.127  50.256  1.00  0.00    -0.002 C 
HETATM   20  C9  UNL     1      24.006   6.728  50.006  1.00  0.00    -0.033 C 
HETATM   21  C10 UNL     1      23.650   8.129  50.420  1.00  0.00     0.036 C 
ENDBRANCH   8  19
ENDBRANCH   1   8
BRANCH   7  22
HETATM   22  N4  UNL     1      23.860   1.841  52.703  1.00  0.00    -0.373 N 
HETATM   23  C17 UNL     1      24.667   2.830  53.404  1.00  0.00     0.150 C 
HETATM   24  C18 UNL     1      25.936   2.238  53.880  1.00  0.00    -0.006 C 
HETATM   25  C19 UNL     1      26.467   1.012  53.841  1.00  0.00     0.016 C 
HETATM   26  C20 UNL     1      25.836  -0.154  53.247  1.00  0.00     0.008 C 
HETATM   27 BR1  UNL     1      27.075  -1.540  52.795  1.00  0.00    -0.051 Br
HETATM   28  C21 UNL     1      24.562  -0.450  52.953  1.00  0.00     0.012 C 
HETATM   29  C22 UNL     1      23.473   0.541  53.250  1.00  0.00     0.152 C 
ENDBRANCH   7  22
TORSDOF 8
ENDMDL
MODEL 9
REMARK VINA RESULT:      -6.4      2.021      2.440
REMARK  8 active torsions:
REMARK  status: ('A' for Active; 'I' for Inactive)
REMARK    1  A    between atoms: N1_2  and  C3_4 
REMARK    2  A    between atoms: C3_4  and  C4_5 
REMARK    3  A    between atoms: C4_5  and  C5_6 
REMARK    4  A    between atoms: C5_6  and  C6_7 
REMARK       I    between atoms: C6_7  and  N2_9 
REMARK    5  A    between atoms: N2_9  and  C7_10 
REMARK    6  A    between atoms: C7_10  and  C8_11 
REMARK    7  A    between atoms: C7_10  and  C11_14 
REMARK    8  A    between atoms: C16_20  and  N4_21 
ROOT
HETATM    1  C11 UNL     1      23.042   1.982  51.267  1.00  0.00     0.013 C 
HETATM    2  C12 UNL     1      22.037   1.324  51.827  1.00  0.00    -0.013 A 
HETATM    3  C13 UNL     1      22.119   0.975  53.269  1.00  0.00     0.189 A 
HETATM    4  N3  UNL     1      20.939   0.282  53.723  1.00  0.00    -0.297 NA
HETATM    5  C14 UNL     1      19.965   0.019  52.942  1.00  0.00     0.113 A 
HETATM    6  C15 UNL     1      19.848   0.340  51.535  1.00  0.00     0.048 A 
HETATM    7  C16 UNL     1      20.884   0.985  51.002  1.00  0.00     0.040 A 
ENDROOT
BRANCH   1   8
HETATM    8  C7  UNL     1      24.216   2.344  52.110  1.00  0.00     0.131 C 
BRANCH   8   9
HETATM    9  N2  UNL     1      24.554   3.764  51.903  1.00  0.00    -0.350 N 
HETATM   10  C6  UNL     1      23.547   4.741  52.086  1.00  0.00     0.218 C 
HETATM   11  O1  UNL     1      22.332   4.816  52.399  1.00  0.00    -0.274 OA
HETATM   12  H13 UNL     1      25.492   4.088  51.628  1.00  0.00     0.163 HD
BRANCH  10  13
HETATM   13  C5  UNL     1      23.805   6.189  51.894  1.00  0.00     0.104 C 
BRANCH  13  14
HETATM   14  C4  UNL     1      24.673   6.454  50.688  1.00  0.00     0.039 C 
BRANCH  14  15
HETATM   15  C3  UNL     1      24.609   7.917  50.356  1.00  0.00     0.271 C 
BRANCH  15  16
HETATM   16  N1  UNL     1      25.644   8.343  49.452  1.00  0.00     0.080 N 
HETATM   17  C1  UNL     1      25.176   9.271  48.454  1.00  0.00     0.309 C 
HETATM   18  C2  UNL     1      26.845   8.779  50.112  1.00  0.00     0.309 C 
ENDBRANCH  15  16
ENDBRANCH  14  15
ENDBRANCH  13  14
ENDBRANCH  10  13
ENDBRANCH   8   9
BRANCH   8  19
HETATM   19  C8  UNL     1      25.418   1.576  51.718  1.00  0.00    -0.002 C 
HETATM   20  C9  UNL     1      25.660   0.497  52.487  1.00  0.00    -0.033 C 
HETATM   21  C10 UNL     1      26.814  -0.450  52.302  1.00  0.00     0.036 C 
ENDBRANCH   8  19
ENDBRANCH   1   8
BRANCH   7  22
HETATM   22  N4  UNL     1      20.770   1.309  49.606  1.00  0.00    -0.373 N 
HETATM   23  C17 UNL     1      21.690   0.897  48.555  1.00  0.00     0.150 C 
HETATM   24  C18 UNL     1      22.173   2.065  47.786  1.00  0.00    -0.006 C 
HETATM   25  C19 UNL     1      21.919   3.377  47.822  1.00  0.00     0.016 C 
HETATM   26  C20 UNL     1      20.999   4.026  48.742  1.00  0.00     0.008 C 
HETATM   27 BR1  UNL     1      21.338   5.896  48.962  1.00  0.00    -0.051 Br
HETATM   28  C21 UNL     1      19.964   3.575  49.464  1.00  0.00     0.012 C 
HETATM   29  C22 UNL     1      19.575   2.125  49.396  1.00  0.00     0.152 C 
ENDBRANCH   7  22
TORSDOF 8
ENDMDL
