MODEL 1
REMARK VINA RESULT:      -8.0      0.000      0.000
REMARK  3 active torsions:
REMARK  status: ('A' for Active; 'I' for Inactive)
REMARK    1  A    between atoms: C3_3  and  N1_4 
REMARK    2  A    between atoms: N1_4  and  C4_5 
REMARK    3  A    between atoms: C13_19  and  C14_20 
ROOT
HETATM    1  C1  UNL     1      23.407   3.974  52.920  1.00  0.00     0.072 C 
HETATM    2  C2  UNL     1      24.007   3.680  51.612  1.00  0.00     0.047 C 
HETATM    3  C3  UNL     1      23.045   3.426  50.760  1.00  0.00     0.147 C 
HETATM    4  N2  UNL     1      21.650   3.300  51.169  1.00  0.00    -0.230 NA
HETATM    5  C8  UNL     1      21.410   1.990  51.481  1.00  0.00     0.813 C 
HETATM    6  N3  UNL     1      21.766   0.616  51.637  1.00  0.00     0.076 NA
HETATM    7  C9  UNL     1      22.662   0.216  52.530  1.00  0.00     0.405 C 
HETATM    8  O1  UNL     1      23.544   0.435  53.506  1.00  0.00    -0.317 OA
HETATM    9  C10 UNL     1      24.854   0.832  53.497  1.00  0.00     0.059 A 
HETATM   10  C11 UNL     1      25.576  -0.123  54.140  1.00  0.00     0.034 A 
HETATM   11  C12 UNL     1      26.991   0.217  54.187  1.00  0.00     0.013 A 
HETATM   12  C13 UNL     1      27.061   1.375  53.565  1.00  0.00    -0.007 A 
HETATM   13  C15 UNL     1      25.733   1.915  53.046  1.00  0.00     0.096 A 
HETATM   14  C16 UNL     1      25.824   2.211  51.601  1.00  0.00     0.136 C 
HETATM   15  N4  UNL     1      25.403   3.611  51.391  1.00  0.00    -0.389 N 
HETATM   16  H14 UNL     1      25.457   4.630  51.178  1.00  0.00     0.159 HD
ENDROOT
BRANCH   3  17
HETATM   17  N1  UNL     1      23.635   3.171  49.528  1.00  0.00    -0.338 N 
HETATM   18  H4  UNL     1      24.369   2.463  49.355  1.00  0.00     0.167 HD
BRANCH  17  19
HETATM   19  C4  UNL     1      23.111   4.014  48.550  1.00  0.00     0.061 A 
HETATM   20  C5  UNL     1      23.514   5.281  48.338  1.00  0.00     0.099 A 
HETATM   21 CL1  UNL     1      24.683   6.430  48.995  1.00  0.00    -0.079 Cl
HETATM   22  C6  UNL     1      22.581   5.511  47.226  1.00  0.00     0.142 A 
HETATM   23  F1  UNL     1      22.176   6.437  46.339  1.00  0.00    -0.204 F 
HETATM   24  C7  UNL     1      22.182   4.248  47.439  1.00  0.00     0.075 A 
ENDBRANCH  17  19
ENDBRANCH   3  17
BRANCH  12  25
HETATM   25  C14 UNL     1      28.250   2.126  53.351  1.00  0.00     0.151 A 
HETATM   26  O2  UNL     1      28.944   2.509  54.362  1.00  0.00    -0.188 OA
HETATM   27  O3  UNL     1      29.401   2.851  53.208  1.00  0.00     0.000 OA
HETATM   28  H10 UNL     1      29.912   2.845  52.290  1.00  0.00     0.000 HD
ENDBRANCH  12  25
TORSDOF 3
ENDMDL
MODEL 2
REMARK VINA RESULT:      -8.0      4.236      6.410
REMARK  3 active torsions:
REMARK  status: ('A' for Active; 'I' for Inactive)
REMARK    1  A    between atoms: C3_3  and  N1_4 
REMARK    2  A    between atoms: N1_4  and  C4_5 
REMARK    3  A    between atoms: C13_19  and  C14_20 
ROOT
HETATM    1  C1  UNL     1      23.544   3.754  52.704  1.00  0.00     0.072 C 
HETATM    2  C2  UNL     1      24.338   2.534  52.507  1.00  0.00     0.047 C 
HETATM    3  C3  UNL     1      25.259   2.777  51.607  1.00  0.00     0.147 C 
HETATM    4  N2  UNL     1      25.301   4.022  50.848  1.00  0.00    -0.230 NA
HETATM    5  C8  UNL     1      24.557   3.859  49.712  1.00  0.00     0.813 C 
HETATM    6  N3  UNL     1      23.729   3.128  48.807  1.00  0.00     0.076 NA
HETATM    7  C9  UNL     1      22.518   2.705  49.145  1.00  0.00     0.405 C 
HETATM    8  O1  UNL     1      21.503   2.572  49.999  1.00  0.00    -0.317 OA
HETATM    9  C10 UNL     1      21.262   1.692  51.020  1.00  0.00     0.059 A 
HETATM   10  C11 UNL     1      20.083   1.070  50.756  1.00  0.00     0.034 A 
HETATM   11  C12 UNL     1      19.737   0.114  51.798  1.00  0.00     0.013 A 
HETATM   12  C13 UNL     1      20.734   0.201  52.654  1.00  0.00    -0.007 A 
HETATM   13  C15 UNL     1      21.825   1.198  52.281  1.00  0.00     0.096 A 
HETATM   14  C16 UNL     1      23.146   0.538  52.267  1.00  0.00     0.136 C 
HETATM   15  N4  UNL     1      24.053   1.305  53.147  1.00  0.00    -0.389 N 
HETATM   16  H14 UNL     1      24.649   1.550  53.966  1.00  0.00     0.159 HD
ENDROOT
BRANCH   3  17
HETATM   17  N1  UNL     1      26.008   1.617  51.453  1.00  0.00    -0.338 N 
HETATM   18  H4  UNL     1      25.809   0.867  50.767  1.00  0.00     0.167 HD
BRANCH  17  19
HETATM   19  C4  UNL     1      27.063   1.590  52.361  1.00  0.00     0.061 A 
HETATM   20  C5  UNL     1      27.568   0.471  52.913  1.00  0.00     0.099 A 
HETATM   21 CL1  UNL     1      27.294  -1.273  52.866  1.00  0.00    -0.079 Cl
HETATM   22  C6  UNL     1      28.585   1.182  53.700  1.00  0.00     0.142 A 
HETATM   23  F1  UNL     1      29.583   0.997  54.582  1.00  0.00    -0.204 F 
HETATM   24  C7  UNL     1      28.081   2.296  53.148  1.00  0.00     0.075 A 
ENDBRANCH  17  19
ENDBRANCH   3  17
BRANCH  12  25
HETATM   25  C14 UNL     1      20.855  -0.547  53.858  1.00  0.00     0.151 A 
HETATM   26  O2  UNL     1      21.067   0.069  54.964  1.00  0.00    -0.188 OA
HETATM   27  O3  UNL     1      20.981  -1.213  55.045  1.00  0.00     0.000 OA
HETATM   28  H10 UNL     1      20.603  -2.188  55.142  1.00  0.00     0.000 HD
ENDBRANCH  12  25
TORSDOF 3
ENDMDL
MODEL 3
REMARK VINA RESULT:      -8.0      2.553      4.425
REMARK  3 active torsions:
REMARK  status: ('A' for Active; 'I' for Inactive)
REMARK    1  A    between atoms: C3_3  and  N1_4 
REMARK    2  A    between atoms: N1_4  and  C4_5 
REMARK    3  A    between atoms: C13_19  and  C14_20 
ROOT
HETATM    1  C1  UNL     1      23.377   2.131  49.809  1.00  0.00     0.072 C 
HETATM    2  C2  UNL     1      23.265   3.134  50.876  1.00  0.00     0.047 C 
HETATM    3  C3  UNL     1      24.094   4.114  50.614  1.00  0.00     0.147 C 
HETATM    4  N2  UNL     1      25.059   4.052  49.522  1.00  0.00    -0.230 NA
HETATM    5  C8  UNL     1      26.217   3.504  50.002  1.00  0.00     0.813 C 
HETATM    6  N3  UNL     1      27.054   2.936  51.010  1.00  0.00     0.076 NA
HETATM    7  C9  UNL     1      26.772   1.777  51.591  1.00  0.00     0.405 C 
HETATM    8  O1  UNL     1      26.017   0.693  51.770  1.00  0.00    -0.317 OA
HETATM    9  C10 UNL     1      24.883   0.466  52.503  1.00  0.00     0.059 A 
HETATM   10  C11 UNL     1      25.149  -0.549  53.367  1.00  0.00     0.034 A 
HETATM   11  C12 UNL     1      23.992  -0.868  54.190  1.00  0.00     0.013 A 
HETATM   12  C13 UNL     1      23.068  -0.023  53.783  1.00  0.00    -0.007 A 
HETATM   13  C15 UNL     1      23.502   0.929  52.674  1.00  0.00     0.096 A 
HETATM   14  C16 UNL     1      23.258   2.331  53.070  1.00  0.00     0.136 C 
HETATM   15  N4  UNL     1      22.445   2.972  52.017  1.00  0.00    -0.389 N 
HETATM   16  H14 UNL     1      21.627   3.404  51.537  1.00  0.00     0.159 HD
ENDROOT
BRANCH   3  17
HETATM   17  N1  UNL     1      23.956   5.058  51.625  1.00  0.00    -0.338 N 
HETATM   18  H4  UNL     1      24.079   4.870  52.635  1.00  0.00     0.167 HD
BRANCH  17  19
HETATM   19  C4  UNL     1      23.615   6.299  51.093  1.00  0.00     0.061 A 
HETATM   20  C5  UNL     1      22.395   6.616  50.617  1.00  0.00     0.099 A 
HETATM   21 CL1  UNL     1      20.815   5.858  50.405  1.00  0.00    -0.079 Cl
HETATM   22  C6  UNL     1      22.768   7.992  50.260  1.00  0.00     0.142 A 
HETATM   23  F1  UNL     1      22.292   9.127  49.719  1.00  0.00    -0.204 F 
HETATM   24  C7  UNL     1      23.982   7.674  50.735  1.00  0.00     0.075 A 
ENDBRANCH  17  19
ENDBRANCH   3  17
BRANCH  12  25
HETATM   25  C14 UNL     1      21.742   0.058  54.291  1.00  0.00     0.151 A 
HETATM   26  O2  UNL     1      21.298  -0.879  55.048  1.00  0.00    -0.188 OA
HETATM   27  O3  UNL     1      20.476   0.082  54.808  1.00  0.00     0.000 OA
HETATM   28  H10 UNL     1      19.951   0.990  54.866  1.00  0.00     0.000 HD
ENDBRANCH  12  25
TORSDOF 3
ENDMDL
MODEL 4
REMARK VINA RESULT:      -7.9      2.716      3.366
REMARK  3 active torsions:
REMARK  status: ('A' for Active; 'I' for Inactive)
REMARK    1  A    between atoms: C3_3  and  N1_4 
REMARK    2  A    between atoms: N1_4  and  C4_5 
REMARK    3  A    between atoms: C13_19  and  C14_20 
ROOT
HETATM    1  C1  UNL     1      23.638   4.303  52.979  1.00  0.00     0.072 C 
HETATM    2  C2  UNL     1      24.220   3.670  51.788  1.00  0.00     0.047 C 
HETATM    3  C3  UNL     1      23.738   4.261  50.724  1.00  0.00     0.147 C 
HETATM    4  N2  UNL     1      22.670   5.252  50.795  1.00  0.00    -0.230 NA
HETATM    5  C8  UNL     1      21.471   4.601  50.697  1.00  0.00     0.813 C 
HETATM    6  N3  UNL     1      20.636   3.451  50.554  1.00  0.00     0.076 NA
HETATM    7  C9  UNL     1      20.591   2.494  51.472  1.00  0.00     0.405 C 
HETATM    8  O1  UNL     1      20.958   1.941  52.628  1.00  0.00    -0.317 OA
HETATM    9  C10 UNL     1      22.039   1.182  52.989  1.00  0.00     0.059 A 
HETATM   10  C11 UNL     1      21.569   0.009  53.489  1.00  0.00     0.034 A 
HETATM   11  C12 UNL     1      22.653  -0.867  53.909  1.00  0.00     0.013 A 
HETATM   12  C13 UNL     1      23.742  -0.178  53.640  1.00  0.00    -0.007 A 
HETATM   13  C15 UNL     1      23.505   1.197  53.025  1.00  0.00     0.096 A 
HETATM   14  C16 UNL     1      24.253   1.333  51.758  1.00  0.00     0.136 C 
HETATM   15  N4  UNL     1      25.085   2.551  51.843  1.00  0.00    -0.389 N 
HETATM   16  H14 UNL     1      25.927   3.159  51.921  1.00  0.00     0.159 HD
ENDROOT
BRANCH   3  17
HETATM   17  N1  UNL     1      24.317   3.659  49.613  1.00  0.00    -0.338 N 
HETATM   18  H4  UNL     1      23.924   2.848  49.104  1.00  0.00     0.167 HD
BRANCH  17  19
HETATM   19  C4  UNL     1      25.514   4.289  49.282  1.00  0.00     0.061 A 
HETATM   20  C5  UNL     1      25.607   5.536  48.781  1.00  0.00     0.099 A 
HETATM   21 CL1  UNL     1      24.540   6.866  48.323  1.00  0.00    -0.079 Cl
HETATM   22  C6  UNL     1      27.074   5.514  48.699  1.00  0.00     0.142 A 
HETATM   23  F1  UNL     1      28.139   6.248  48.331  1.00  0.00    -0.204 F 
HETATM   24  C7  UNL     1      26.979   4.273  49.199  1.00  0.00     0.075 A 
ENDBRANCH  17  19
ENDBRANCH   3  17
BRANCH  12  25
HETATM   25  C14 UNL     1      25.074  -0.615  53.876  1.00  0.00     0.151 A 
HETATM   26  O2  UNL     1      25.380  -1.117  55.018  1.00  0.00    -0.188 OA
HETATM   27  O3  UNL     1      26.338  -1.052  54.161  1.00  0.00     0.000 OA
HETATM   28  H10 UNL     1      27.002  -1.281  53.379  1.00  0.00     0.000 HD
ENDBRANCH  12  25
TORSDOF 3
ENDMDL
MODEL 5
REMARK VINA RESULT:      -7.9      2.060      2.552
REMARK  3 active torsions:
REMARK  status: ('A' for Active; 'I' for Inactive)
REMARK    1  A    between atoms: C3_3  and  N1_4 
REMARK    2  A    between atoms: N1_4  and  C4_5 
REMARK    3  A    between atoms: C13_19  and  C14_20 
ROOT
HETATM    1  C1  UNL     1      22.971   4.237  52.585  1.00  0.00     0.072 C 
HETATM    2  C2  UNL     1      24.073   4.019  51.638  1.00  0.00     0.047 C 
HETATM    3  C3  UNL     1      23.653   4.316  50.434  1.00  0.00     0.147 C 
HETATM    4  N2  UNL     1      22.257   4.629  50.147  1.00  0.00    -0.230 NA
HETATM    5  C8  UNL     1      21.609   3.465  49.839  1.00  0.00     0.813 C 
HETATM    6  N3  UNL     1      21.522   2.056  49.626  1.00  0.00     0.076 NA
HETATM    7  C9  UNL     1      21.723   1.181  50.602  1.00  0.00     0.405 C 
HETATM    8  O1  UNL     1      22.006   0.856  51.864  1.00  0.00    -0.317 OA
HETATM    9  C10 UNL     1      23.186   0.737  52.547  1.00  0.00     0.059 A 
HETATM   10  C11 UNL     1      23.248  -0.527  53.043  1.00  0.00     0.034 A 
HETATM   11  C12 UNL     1      24.474  -0.747  53.796  1.00  0.00     0.013 A 
HETATM   12  C13 UNL     1      25.106   0.406  53.720  1.00  0.00    -0.007 A 
HETATM   13  C15 UNL     1      24.387   1.490  52.925  1.00  0.00     0.096 A 
HETATM   14  C16 UNL     1      25.265   2.022  51.864  1.00  0.00     0.136 C 
HETATM   15  N4  UNL     1      25.331   3.490  52.013  1.00  0.00    -0.389 N 
HETATM   16  H14 UNL     1      25.709   4.438  52.222  1.00  0.00     0.159 HD
ENDROOT
BRANCH   3  17
HETATM   17  N1  UNL     1      24.716   4.122  49.561  1.00  0.00    -0.338 N 
HETATM   18  H4  UNL     1      25.158   3.209  49.356  1.00  0.00     0.167 HD
BRANCH  17  19
HETATM   19  C4  UNL     1      25.120   5.333  49.003  1.00  0.00     0.061 A 
HETATM   20  C5  UNL     1      26.381   5.617  48.626  1.00  0.00     0.099 A 
HETATM   21 CL1  UNL     1      27.965   4.838  48.597  1.00  0.00    -0.079 Cl
HETATM   22  C6  UNL     1      26.056   6.972  48.158  1.00  0.00     0.142 A 
HETATM   23  F1  UNL     1      26.594   8.079  47.618  1.00  0.00    -0.204 F 
HETATM   24  C7  UNL     1      24.800   6.686  48.534  1.00  0.00     0.075 A 
ENDBRANCH  17  19
ENDBRANCH   3  17
BRANCH  12  25
HETATM   25  C14 UNL     1      26.368   0.695  54.309  1.00  0.00     0.151 A 
HETATM   26  O2  UNL     1      27.082  -0.265  54.775  1.00  0.00    -0.188 OA
HETATM   27  O3  UNL     1      27.589   0.913  54.885  1.00  0.00     0.000 OA
HETATM   28  H10 UNL     1      28.111   1.803  54.685  1.00  0.00     0.000 HD
ENDBRANCH  12  25
TORSDOF 3
ENDMDL
MODEL 6
REMARK VINA RESULT:      -7.5      4.110      6.226
REMARK  3 active torsions:
REMARK  status: ('A' for Active; 'I' for Inactive)
REMARK    1  A    between atoms: C3_3  and  N1_4 
REMARK    2  A    between atoms: N1_4  and  C4_5 
REMARK    3  A    between atoms: C13_19  and  C14_20 
ROOT
HETATM    1  C1  UNL     1      23.035   2.481  49.518  1.00  0.00     0.072 C 
HETATM    2  C2  UNL     1      23.794   2.516  50.774  1.00  0.00     0.047 C 
HETATM    3  C3  UNL     1      23.281   1.635  51.596  1.00  0.00     0.147 C 
HETATM    4  N2  UNL     1      22.050   0.912  51.298  1.00  0.00    -0.230 NA
HETATM    5  C8  UNL     1      20.996   1.638  51.781  1.00  0.00     0.813 C 
HETATM    6  N3  UNL     1      20.393   2.750  52.443  1.00  0.00     0.076 NA
HETATM    7  C9  UNL     1      20.463   3.983  51.958  1.00  0.00     0.405 C 
HETATM    8  O1  UNL     1      20.851   4.881  51.052  1.00  0.00    -0.317 OA
HETATM    9  C10 UNL     1      22.026   5.557  50.864  1.00  0.00     0.059 A 
HETATM   10  C11 UNL     1      21.744   6.887  50.897  1.00  0.00     0.034 A 
HETATM   11  C12 UNL     1      22.939   7.693  50.697  1.00  0.00     0.013 A 
HETATM   12  C13 UNL     1      23.901   6.806  50.553  1.00  0.00    -0.007 A 
HETATM   13  C15 UNL     1      23.460   5.349  50.640  1.00  0.00     0.096 A 
HETATM   14  C16 UNL     1      24.249   4.630  51.661  1.00  0.00     0.136 C 
HETATM   15  N4  UNL     1      24.841   3.434  51.028  1.00  0.00    -0.389 N 
HETATM   16  H14 UNL     1      25.554   2.789  50.625  1.00  0.00     0.159 HD
ENDROOT
BRANCH   3  17
HETATM   17  N1  UNL     1      24.027   1.673  52.768  1.00  0.00    -0.338 N 
HETATM   18  H4  UNL     1      23.872   2.333  53.550  1.00  0.00     0.167 HD
BRANCH  17  19
HETATM   19  C4  UNL     1      25.028   0.705  52.743  1.00  0.00     0.061 A 
HETATM   20  C5  UNL     1      25.082  -0.359  53.567  1.00  0.00     0.099 A 
HETATM   21 CL1  UNL     1      24.153  -1.058  54.895  1.00  0.00    -0.079 Cl
HETATM   22  C6  UNL     1      26.321  -0.891  52.981  1.00  0.00     0.142 A 
HETATM   23  F1  UNL     1      27.211  -1.893  53.082  1.00  0.00    -0.204 F 
HETATM   24  C7  UNL     1      26.265   0.170  52.162  1.00  0.00     0.075 A 
ENDBRANCH  17  19
ENDBRANCH   3  17
BRANCH  12  25
HETATM   25  C14 UNL     1      25.274   7.106  50.328  1.00  0.00     0.151 A 
HETATM   26  O2  UNL     1      26.001   6.275  49.673  1.00  0.00    -0.188 OA
HETATM   27  O3  UNL     1      26.598   7.340  50.083  1.00  0.00     0.000 OA
HETATM   28  H10 UNL     1      26.976   8.319  50.140  1.00  0.00     0.000 HD
ENDBRANCH  12  25
TORSDOF 3
ENDMDL
MODEL 7
REMARK VINA RESULT:      -7.5      4.592      7.422
REMARK  3 active torsions:
REMARK  status: ('A' for Active; 'I' for Inactive)
REMARK    1  A    between atoms: C3_3  and  N1_4 
REMARK    2  A    between atoms: N1_4  and  C4_5 
REMARK    3  A    between atoms: C13_19  and  C14_20 
ROOT
HETATM    1  C1  UNL     1      21.688   3.055  52.763  1.00  0.00     0.072 C 
HETATM    2  C2  UNL     1      22.327   1.734  52.812  1.00  0.00     0.047 C 
HETATM    3  C3  UNL     1      23.498   1.815  52.231  1.00  0.00     0.147 C 
HETATM    4  N2  UNL     1      23.937   3.012  51.521  1.00  0.00    -0.230 NA
HETATM    5  C8  UNL     1      23.549   2.903  50.213  1.00  0.00     0.813 C 
HETATM    6  N3  UNL     1      22.934   2.252  49.101  1.00  0.00     0.076 NA
HETATM    7  C9  UNL     1      21.631   2.009  49.059  1.00  0.00     0.405 C 
HETATM    8  O1  UNL     1      20.400   2.047  49.569  1.00  0.00    -0.317 OA
HETATM    9  C10 UNL     1      19.747   1.249  50.469  1.00  0.00     0.059 A 
HETATM   10  C11 UNL     1      18.624   0.780  49.863  1.00  0.00     0.034 A 
HETATM   11  C12 UNL     1      17.855  -0.079  50.752  1.00  0.00     0.013 A 
HETATM   12  C13 UNL     1      18.554  -0.091  51.867  1.00  0.00    -0.007 A 
HETATM   13  C15 UNL     1      19.835   0.736  51.841  1.00  0.00     0.096 A 
HETATM   14  C16 UNL     1      20.995  -0.094  52.223  1.00  0.00     0.136 C 
HETATM   15  N4  UNL     1      21.696   0.581  53.336  1.00  0.00    -0.389 N 
HETATM   16  H14 UNL     1      22.049   0.777  54.296  1.00  0.00     0.159 HD
ENDROOT
BRANCH   3  17
HETATM   17  N1  UNL     1      24.090   0.560  52.307  1.00  0.00    -0.338 N 
HETATM   18  H4  UNL     1      23.739  -0.292  51.836  1.00  0.00     0.167 HD
BRANCH  17  19
HETATM   19  C4  UNL     1      25.221   0.601  53.119  1.00  0.00     0.061 A 
HETATM   20  C5  UNL     1      26.192  -0.332  53.122  1.00  0.00     0.099 A 
HETATM   21 CL1  UNL     1      26.579  -1.848  52.305  1.00  0.00    -0.079 Cl
HETATM   22  C6  UNL     1      26.993   0.345  54.152  1.00  0.00     0.142 A 
HETATM   23  F1  UNL     1      28.125   0.242  54.870  1.00  0.00    -0.204 F 
HETATM   24  C7  UNL     1      26.025   1.273  54.146  1.00  0.00     0.075 A 
ENDBRANCH  17  19
ENDBRANCH   3  17
BRANCH  12  25
HETATM   25  C14 UNL     1      18.207  -0.799  53.051  1.00  0.00     0.151 A 
HETATM   26  O2  UNL     1      16.981  -0.829  53.431  1.00  0.00    -0.188 OA
HETATM   27  O3  UNL     1      17.814  -1.463  54.180  1.00  0.00     0.000 OA
HETATM   28  H10 UNL     1      18.427  -2.213  54.587  1.00  0.00     0.000 HD
ENDBRANCH  12  25
TORSDOF 3
ENDMDL
MODEL 8
REMARK VINA RESULT:      -7.3      7.485      9.963
REMARK  3 active torsions:
REMARK  status: ('A' for Active; 'I' for Inactive)
REMARK    1  A    between atoms: C3_3  and  N1_4 
REMARK    2  A    between atoms: N1_4  and  C4_5 
REMARK    3  A    between atoms: C13_19  and  C14_20 
ROOT
HETATM    1  C1  UNL     1      30.593   8.224  48.947  1.00  0.00     0.072 C 
HETATM    2  C2  UNL     1      30.563   6.800  48.591  1.00  0.00     0.047 C 
HETATM    3  C3  UNL     1      31.508   6.569  47.715  1.00  0.00     0.147 C 
HETATM    4  N2  UNL     1      32.295   7.639  47.112  1.00  0.00    -0.230 NA
HETATM    5  C8  UNL     1      31.657   8.054  45.975  1.00  0.00     0.813 C 
HETATM    6  N3  UNL     1      30.614   8.030  45.001  1.00  0.00     0.076 NA
HETATM    7  C9  UNL     1      29.360   8.341  45.301  1.00  0.00     0.405 C 
HETATM    8  O1  UNL     1      28.402   8.720  46.148  1.00  0.00    -0.317 OA
HETATM    9  C10 UNL     1      27.646   8.032  47.057  1.00  0.00     0.059 A 
HETATM   10  C11 UNL     1      26.340   8.229  46.737  1.00  0.00     0.034 A 
HETATM   11  C12 UNL     1      25.452   7.536  47.660  1.00  0.00     0.013 A 
HETATM   12  C13 UNL     1      26.270   6.945  48.505  1.00  0.00    -0.007 A 
HETATM   13  C15 UNL     1      27.754   7.173  48.241  1.00  0.00     0.096 A 
HETATM   14  C16 UNL     1      28.464   5.882  48.128  1.00  0.00     0.136 C 
HETATM   15  N4  UNL     1      29.593   5.893  49.082  1.00  0.00    -0.389 N 
HETATM   16  H14 UNL     1      30.174   5.664  49.916  1.00  0.00     0.159 HD
ENDROOT
BRANCH   3  17
HETATM   17  N1  UNL     1      31.473   5.213  47.410  1.00  0.00    -0.338 N 
HETATM   18  H4  UNL     1      30.612   4.642  47.338  1.00  0.00     0.167 HD
BRANCH  17  19
HETATM   19  C4  UNL     1      32.761   4.718  47.225  1.00  0.00     0.061 A 
HETATM   20  C5  UNL     1      33.051   3.443  46.904  1.00  0.00     0.099 A 
HETATM   21 CL1  UNL     1      32.202   1.928  46.588  1.00  0.00    -0.079 Cl
HETATM   22  C6  UNL     1      34.504   3.662  46.874  1.00  0.00     0.142 A 
HETATM   23  F1  UNL     1      35.679   3.041  46.671  1.00  0.00    -0.204 F 
HETATM   24  C7  UNL     1      34.213   4.932  47.193  1.00  0.00     0.075 A 
ENDBRANCH  17  19
ENDBRANCH   3  17
BRANCH  12  25
HETATM   25  C14 UNL     1      25.875   6.137  49.608  1.00  0.00     0.151 A 
HETATM   26  O2  UNL     1      25.244   6.673  50.588  1.00  0.00    -0.188 OA
HETATM   27  O3  UNL     1      25.471   5.411  50.694  1.00  0.00     0.000 OA
HETATM   28  H10 UNL     1      25.381   4.366  50.621  1.00  0.00     0.000 HD
ENDBRANCH  12  25
TORSDOF 3
ENDMDL
MODEL 9
REMARK VINA RESULT:      -7.2      2.928      5.322
REMARK  3 active torsions:
REMARK  status: ('A' for Active; 'I' for Inactive)
REMARK    1  A    between atoms: C3_3  and  N1_4 
REMARK    2  A    between atoms: N1_4  and  C4_5 
REMARK    3  A    between atoms: C13_19  and  C14_20 
ROOT
HETATM    1  C1  UNL     1      22.081   1.357  50.025  1.00  0.00     0.072 C 
HETATM    2  C2  UNL     1      21.421   2.336  50.897  1.00  0.00     0.047 C 
HETATM    3  C3  UNL     1      22.116   3.446  50.880  1.00  0.00     0.147 C 
HETATM    4  N2  UNL     1      23.414   3.545  50.221  1.00  0.00    -0.230 NA
HETATM    5  C8  UNL     1      24.384   3.219  51.128  1.00  0.00     0.813 C 
HETATM    6  N3  UNL     1      24.867   2.822  52.412  1.00  0.00     0.076 NA
HETATM    7  C9  UNL     1      24.582   1.638  52.938  1.00  0.00     0.405 C 
HETATM    8  O1  UNL     1      24.001   0.438  52.914  1.00  0.00    -0.317 OA
HETATM    9  C10 UNL     1      22.730   0.021  53.201  1.00  0.00     0.059 A 
HETATM   10  C11 UNL     1      22.818  -0.920  54.178  1.00  0.00     0.034 A 
HETATM   11  C12 UNL     1      21.506  -1.433  54.547  1.00  0.00     0.013 A 
HETATM   12  C13 UNL     1      20.675  -0.772  53.769  1.00  0.00    -0.007 A 
HETATM   13  C15 UNL     1      21.328   0.230  52.823  1.00  0.00     0.096 A 
HETATM   14  C16 UNL     1      20.731   1.570  52.995  1.00  0.00     0.136 C 
HETATM   15  N4  UNL     1      20.273   2.043  51.672  1.00  0.00    -0.389 N 
HETATM   16  H14 UNL     1      19.633   2.315  50.896  1.00  0.00     0.159 HD
ENDROOT
BRANCH   3  17
HETATM   17  N1  UNL     1      21.462   4.361  51.696  1.00  0.00    -0.338 N 
HETATM   18  H4  UNL     1      21.034   4.142  52.612  1.00  0.00     0.167 HD
BRANCH  17  19
HETATM   19  C4  UNL     1      21.449   5.622  51.104  1.00  0.00     0.061 A 
HETATM   20  C5  UNL     1      20.549   6.026  50.186  1.00  0.00     0.099 A 
HETATM   21 CL1  UNL     1      19.143   5.383  49.335  1.00  0.00    -0.079 Cl
HETATM   22  C6  UNL     1      21.127   7.370  50.047  1.00  0.00     0.142 A 
HETATM   23  F1  UNL     1      20.988   8.535  49.390  1.00  0.00    -0.204 F 
HETATM   24  C7  UNL     1      22.021   6.966  50.962  1.00  0.00     0.075 A 
ENDBRANCH  17  19
ENDBRANCH   3  17
BRANCH  12  25
HETATM   25  C14 UNL     1      19.261  -0.924  53.753  1.00  0.00     0.151 A 
HETATM   26  O2  UNL     1      18.621  -0.755  52.654  1.00  0.00    -0.188 OA
HETATM   27  O3  UNL     1      17.902  -1.057  53.678  1.00  0.00     0.000 OA
HETATM   28  H10 UNL     1      17.387  -1.597  54.417  1.00  0.00     0.000 HD
ENDBRANCH  12  25
TORSDOF 3
ENDMDL
