MODEL 1
REMARK VINA RESULT:      -8.2      0.000      0.000
REMARK  4 active torsions:
REMARK  status: ('A' for Active; 'I' for Inactive)
REMARK    1  A    between atoms: N1_1  and  C1_2 
REMARK    2  A    between atoms: C1_2  and  C2_3 
REMARK    3  A    between atoms: C2_3  and  C5_7 
REMARK    4  A    between atoms: C10_12  and  C11_13 
ROOT
HETATM    1  C5  UNL     1      24.180  -0.251  53.893  1.00  0.00    -0.013 A 
HETATM    2  C6  UNL     1      23.533  -1.105  54.800  1.00  0.00     0.013 A 
HETATM    3  C7  UNL     1      22.169  -1.174  54.962  1.00  0.00     0.001 A 
HETATM    4  C8  UNL     1      21.374  -0.362  54.196  1.00  0.00     0.001 A 
HETATM    5  C9  UNL     1      21.984   0.484  53.301  1.00  0.00     0.015 A 
HETATM    6  C10 UNL     1      23.354   0.537  53.156  1.00  0.00     0.011 A 
ENDROOT
BRANCH   6   7
HETATM    7  C11 UNL     1      24.095   1.435  52.265  1.00  0.00     0.110 A 
HETATM    8  N3  UNL     1      24.984   1.625  51.615  1.00  0.00    -0.240 NA
HETATM    9  C12 UNL     1      25.392   2.637  50.898  1.00  0.00     0.075 A 
HETATM   10  C13 UNL     1      26.516   2.799  50.113  1.00  0.00     0.036 A 
HETATM   11  C17 UNL     1      24.574   3.702  50.933  1.00  0.00     0.038 A 
HETATM   12  C14 UNL     1      26.741   3.957  49.446  1.00  0.00     0.044 A 
HETATM   13  C15 UNL     1      25.902   5.067  49.474  1.00  0.00     0.117 A 
HETATM   14  F1  UNL     1      26.072   6.242  48.830  1.00  0.00    -0.206 F 
HETATM   15  C16 UNL     1      24.751   4.937  50.260  1.00  0.00     0.063 A 
HETATM   16  S1  UNL     1      23.288   3.127  52.009  1.00  0.00    -0.067 SA
ENDBRANCH   6   7
BRANCH   1  17
HETATM   17  C2  UNL     1      25.621  -0.359  53.904  1.00  0.00     0.011 C 
HETATM   18  C3  UNL     1      26.409  -1.144  53.158  1.00  0.00     0.083 A 
HETATM   19  C4  UNL     1      27.782  -1.528  52.863  1.00  0.00     0.149 A 
HETATM   20  N2  UNL     1      26.723  -2.159  52.177  1.00  0.00    -0.257 NA
BRANCH  17  21
HETATM   21  C1  UNL     1      26.297   0.560  54.892  1.00  0.00     0.308 C 
BRANCH  21  22
HETATM   22  N1  UNL     1      26.854   1.707  54.202  1.00  0.00     0.082 N 
HETATM   23  H1  UNL     1      27.657   2.103  54.756  1.00  0.00     0.313 HD
HETATM   24  H2  UNL     1      26.148   2.485  54.067  1.00  0.00     0.313 HD
ENDBRANCH  21  22
ENDBRANCH  17  21
ENDBRANCH   1  17
TORSDOF 4
ENDMDL
MODEL 2
REMARK VINA RESULT:      -8.1      1.201      2.019
REMARK  4 active torsions:
REMARK  status: ('A' for Active; 'I' for Inactive)
REMARK    1  A    between atoms: N1_1  and  C1_2 
REMARK    2  A    between atoms: C1_2  and  C2_3 
REMARK    3  A    between atoms: C2_3  and  C5_7 
REMARK    4  A    between atoms: C10_12  and  C11_13 
ROOT
HETATM    1  C5  UNL     1      24.841   0.423  53.046  1.00  0.00    -0.013 A 
HETATM    2  C6  UNL     1      24.261  -0.514  53.917  1.00  0.00     0.013 A 
HETATM    3  C7  UNL     1      22.910  -0.618  54.155  1.00  0.00     0.001 A 
HETATM    4  C8  UNL     1      22.059   0.241  53.509  1.00  0.00     0.001 A 
HETATM    5  C9  UNL     1      22.604   1.168  52.652  1.00  0.00     0.015 A 
HETATM    6  C10 UNL     1      23.962   1.255  52.429  1.00  0.00     0.011 A 
ENDROOT
BRANCH   6   7
HETATM    7  C11 UNL     1      24.636   2.234  51.573  1.00  0.00     0.110 A 
HETATM    8  N3  UNL     1      25.456   2.480  50.853  1.00  0.00    -0.240 NA
HETATM    9  C12 UNL     1      25.823   3.560  50.219  1.00  0.00     0.075 A 
HETATM   10  C13 UNL     1      26.860   3.787  49.337  1.00  0.00     0.036 A 
HETATM   11  C17 UNL     1      25.057   4.634  50.472  1.00  0.00     0.038 A 
HETATM   12  C14 UNL     1      27.057   5.012  48.791  1.00  0.00     0.044 A 
HETATM   13  C15 UNL     1      26.271   6.131  49.044  1.00  0.00     0.117 A 
HETATM   14  F1  UNL     1      26.416   7.371  48.529  1.00  0.00    -0.206 F 
HETATM   15  C16 UNL     1      25.208   5.936  49.934  1.00  0.00     0.063 A 
HETATM   16  S1  UNL     1      23.873   3.966  51.611  1.00  0.00    -0.067 SA
ENDBRANCH   6   7
BRANCH   1  17
HETATM   17  C2  UNL     1      26.280   0.337  52.961  1.00  0.00     0.011 C 
HETATM   18  C3  UNL     1      27.201   1.164  53.472  1.00  0.00     0.083 A 
HETATM   19  C4  UNL     1      28.626   1.423  53.621  1.00  0.00     0.149 A 
HETATM   20  N2  UNL     1      27.695   2.330  54.171  1.00  0.00    -0.257 NA
BRANCH  17  21
HETATM   21  C1  UNL     1      26.779  -0.867  52.199  1.00  0.00     0.308 C 
BRANCH  21  22
HETATM   22  N1  UNL     1      27.364  -1.827  53.115  1.00  0.00     0.082 N 
HETATM   23  H1  UNL     1      28.301  -2.142  52.754  1.00  0.00     0.313 HD
HETATM   24  H2  UNL     1      26.764  -2.692  53.238  1.00  0.00     0.313 HD
ENDBRANCH  21  22
ENDBRANCH  17  21
ENDBRANCH   1  17
TORSDOF 4
ENDMDL
MODEL 3
REMARK VINA RESULT:      -7.7      2.872      4.897
REMARK  4 active torsions:
REMARK  status: ('A' for Active; 'I' for Inactive)
REMARK    1  A    between atoms: N1_1  and  C1_2 
REMARK    2  A    between atoms: C1_2  and  C2_3 
REMARK    3  A    between atoms: C2_3  and  C5_7 
REMARK    4  A    between atoms: C10_12  and  C11_13 
ROOT
HETATM    1  C5  UNL     1      22.334   2.142  52.373  1.00  0.00    -0.013 A 
HETATM    2  C6  UNL     1      20.946   2.091  52.170  1.00  0.00     0.013 A 
HETATM    3  C7  UNL     1      20.129   1.088  52.639  1.00  0.00     0.001 A 
HETATM    4  C8  UNL     1      20.692   0.063  53.353  1.00  0.00     0.001 A 
HETATM    5  C9  UNL     1      22.050   0.090  53.565  1.00  0.00     0.015 A 
HETATM    6  C10 UNL     1      22.849   1.105  53.084  1.00  0.00     0.011 A 
ENDROOT
BRANCH   6   7
HETATM    7  C11 UNL     1      24.305   1.197  53.219  1.00  0.00     0.110 A 
HETATM    8  N3  UNL     1      25.223   1.826  53.334  1.00  0.00    -0.240 NA
HETATM    9  C12 UNL     1      26.500   1.571  53.421  1.00  0.00     0.075 A 
HETATM   10  C13 UNL     1      27.586   2.412  53.562  1.00  0.00     0.036 A 
HETATM   11  C17 UNL     1      26.806   0.265  53.363  1.00  0.00     0.038 A 
HETATM   12  C14 UNL     1      28.847   1.920  53.632  1.00  0.00     0.044 A 
HETATM   13  C15 UNL     1      29.177   0.570  53.573  1.00  0.00     0.117 A 
HETATM   14  F1  UNL     1      30.409   0.021  53.640  1.00  0.00    -0.206 F 
HETATM   15  C16 UNL     1      28.099  -0.312  53.431  1.00  0.00     0.063 A 
HETATM   16  S1  UNL     1      25.202  -0.469  53.186  1.00  0.00    -0.067 SA
ENDBRANCH   6   7
BRANCH   1  17
HETATM   17  C2  UNL     1      22.975   3.295  51.784  1.00  0.00     0.011 C 
HETATM   18  C3  UNL     1      23.627   3.388  50.619  1.00  0.00     0.083 A 
HETATM   19  C4  UNL     1      24.349   4.276  49.718  1.00  0.00     0.149 A 
HETATM   20  N2  UNL     1      24.198   2.915  49.377  1.00  0.00    -0.257 NA
BRANCH  17  21
HETATM   21  C1  UNL     1      22.862   4.550  52.615  1.00  0.00     0.308 C 
BRANCH  21  22
HETATM   22  N1  UNL     1      24.085   4.762  53.364  1.00  0.00     0.082 N 
HETATM   23  H1  UNL     1      23.944   5.525  54.074  1.00  0.00     0.313 HD
HETATM   24  H2  UNL     1      24.897   5.050  52.747  1.00  0.00     0.313 HD
ENDBRANCH  21  22
ENDBRANCH  17  21
ENDBRANCH   1  17
TORSDOF 4
ENDMDL
MODEL 4
REMARK VINA RESULT:      -7.6      3.094      7.215
REMARK  4 active torsions:
REMARK  status: ('A' for Active; 'I' for Inactive)
REMARK    1  A    between atoms: N1_1  and  C1_2 
REMARK    2  A    between atoms: C1_2  and  C2_3 
REMARK    3  A    between atoms: C2_3  and  C5_7 
REMARK    4  A    between atoms: C10_12  and  C11_13 
ROOT
HETATM    1  C5  UNL     1      25.264   5.406  49.591  1.00  0.00    -0.013 A 
HETATM    2  C6  UNL     1      26.001   6.420  48.958  1.00  0.00     0.013 A 
HETATM    3  C7  UNL     1      27.260   6.248  48.428  1.00  0.00     0.001 A 
HETATM    4  C8  UNL     1      27.847   5.013  48.516  1.00  0.00     0.001 A 
HETATM    5  C9  UNL     1      27.146   4.004  49.133  1.00  0.00     0.015 A 
HETATM    6  C10 UNL     1      25.886   4.200  49.658  1.00  0.00     0.011 A 
ENDROOT
BRANCH   6   7
HETATM    7  C11 UNL     1      25.082   3.203  50.370  1.00  0.00     0.110 A 
HETATM    8  N3  UNL     1      24.101   2.688  50.521  1.00  0.00    -0.240 NA
HETATM    9  C12 UNL     1      23.672   1.757  51.330  1.00  0.00     0.075 A 
HETATM   10  C13 UNL     1      22.430   1.169  51.459  1.00  0.00     0.036 A 
HETATM   11  C17 UNL     1      24.602   1.296  52.181  1.00  0.00     0.038 A 
HETATM   12  C14 UNL     1      22.207   0.204  52.385  1.00  0.00     0.044 A 
HETATM   13  C15 UNL     1      23.162  -0.283  53.271  1.00  0.00     0.117 A 
HETATM   14  F1  UNL     1      23.000  -1.241  54.209  1.00  0.00    -0.206 F 
HETATM   15  C16 UNL     1      24.434   0.292  53.168  1.00  0.00     0.063 A 
HETATM   16  S1  UNL     1      26.015   2.265  51.723  1.00  0.00    -0.067 SA
ENDBRANCH   6   7
BRANCH   1  17
HETATM   17  C2  UNL     1      23.967   5.828  50.065  1.00  0.00     0.011 C 
HETATM   18  C3  UNL     1      22.774   5.704  49.469  1.00  0.00     0.083 A 
HETATM   19  C4  UNL     1      21.345   5.957  49.585  1.00  0.00     0.149 A 
HETATM   20  N2  UNL     1      21.849   5.350  48.415  1.00  0.00    -0.257 NA
BRANCH  17  21
HETATM   21  C1  UNL     1      23.994   6.481  51.426  1.00  0.00     0.308 C 
BRANCH  21  22
HETATM   22  N1  UNL     1      23.706   5.500  52.453  1.00  0.00     0.082 N 
HETATM   23  H1  UNL     1      24.584   5.270  52.987  1.00  0.00     0.313 HD
HETATM   24  H2  UNL     1      23.330   4.592  52.057  1.00  0.00     0.313 HD
ENDBRANCH  21  22
ENDBRANCH  17  21
ENDBRANCH   1  17
TORSDOF 4
ENDMDL
MODEL 5
REMARK VINA RESULT:      -7.4      3.571      7.485
REMARK  4 active torsions:
REMARK  status: ('A' for Active; 'I' for Inactive)
REMARK    1  A    between atoms: N1_1  and  C1_2 
REMARK    2  A    between atoms: C1_2  and  C2_3 
REMARK    3  A    between atoms: C2_3  and  C5_7 
REMARK    4  A    between atoms: C10_12  and  C11_13 
ROOT
HETATM    1  C5  UNL     1      25.599   6.056  49.369  1.00  0.00    -0.013 A 
HETATM    2  C6  UNL     1      26.499   6.939  48.751  1.00  0.00     0.013 A 
HETATM    3  C7  UNL     1      27.737   6.576  48.273  1.00  0.00     0.001 A 
HETATM    4  C8  UNL     1      28.135   5.271  48.400  1.00  0.00     0.001 A 
HETATM    5  C9  UNL     1      27.272   4.387  49.003  1.00  0.00     0.015 A 
HETATM    6  C10 UNL     1      26.036   4.774  49.477  1.00  0.00     0.011 A 
ENDROOT
BRANCH   6   7
HETATM    7  C11 UNL     1      25.071   3.917  50.171  1.00  0.00     0.110 A 
HETATM    8  N3  UNL     1      24.676   3.492  51.128  1.00  0.00    -0.240 NA
HETATM    9  C12 UNL     1      23.714   2.664  51.431  1.00  0.00     0.075 A 
HETATM   10  C13 UNL     1      23.284   2.179  52.650  1.00  0.00     0.036 A 
HETATM   11  C17 UNL     1      23.027   2.206  50.371  1.00  0.00     0.038 A 
HETATM   12  C14 UNL     1      22.246   1.311  52.729  1.00  0.00     0.044 A 
HETATM   13  C15 UNL     1      21.526   0.830  51.640  1.00  0.00     0.117 A 
HETATM   14  F1  UNL     1      20.485  -0.030  51.658  1.00  0.00    -0.206 F 
HETATM   15  C16 UNL     1      21.936   1.301  50.387  1.00  0.00     0.063 A 
HETATM   16  S1  UNL     1      23.851   3.026  49.033  1.00  0.00    -0.067 SA
ENDBRANCH   6   7
BRANCH   1  17
HETATM   17  C2  UNL     1      24.361   6.671  49.788  1.00  0.00     0.011 C 
HETATM   18  C3  UNL     1      23.158   6.616  49.203  1.00  0.00     0.083 A 
HETATM   19  C4  UNL     1      21.767   7.039  49.284  1.00  0.00     0.149 A 
HETATM   20  N2  UNL     1      22.191   6.253  48.190  1.00  0.00    -0.257 NA
BRANCH  17  21
HETATM   21  C1  UNL     1      24.472   7.463  51.068  1.00  0.00     0.308 C 
BRANCH  21  22
HETATM   22  N1  UNL     1      24.322   6.584  52.210  1.00  0.00     0.082 N 
HETATM   23  H1  UNL     1      23.384   6.108  52.176  1.00  0.00     0.313 HD
HETATM   24  H2  UNL     1      24.381   7.100  53.134  1.00  0.00     0.313 HD
ENDBRANCH  21  22
ENDBRANCH  17  21
ENDBRANCH   1  17
TORSDOF 4
ENDMDL
MODEL 6
REMARK VINA RESULT:      -7.3      2.309      4.062
REMARK  4 active torsions:
REMARK  status: ('A' for Active; 'I' for Inactive)
REMARK    1  A    between atoms: N1_1  and  C1_2 
REMARK    2  A    between atoms: C1_2  and  C2_3 
REMARK    3  A    between atoms: C2_3  and  C5_7 
REMARK    4  A    between atoms: C10_12  and  C11_13 
ROOT
HETATM    1  C5  UNL     1      22.692   1.061  52.211  1.00  0.00    -0.013 A 
HETATM    2  C6  UNL     1      22.194  -0.012  52.967  1.00  0.00     0.013 A 
HETATM    3  C7  UNL     1      22.953  -0.774  53.825  1.00  0.00     0.001 A 
HETATM    4  C8  UNL     1      24.284  -0.481  53.963  1.00  0.00     0.001 A 
HETATM    5  C9  UNL     1      24.796   0.565  53.232  1.00  0.00     0.015 A 
HETATM    6  C10 UNL     1      24.017   1.315  52.377  1.00  0.00     0.011 A 
ENDROOT
BRANCH   6   7
HETATM    7  C11 UNL     1      24.480   2.414  51.526  1.00  0.00     0.110 A 
HETATM    8  N3  UNL     1      24.273   3.387  51.014  1.00  0.00    -0.240 NA
HETATM    9  C12 UNL     1      24.967   4.179  50.242  1.00  0.00     0.075 A 
HETATM   10  C13 UNL     1      24.639   5.378  49.641  1.00  0.00     0.036 A 
HETATM   11  C17 UNL     1      26.215   3.750  49.992  1.00  0.00     0.038 A 
HETATM   12  C14 UNL     1      25.533   6.038  48.866  1.00  0.00     0.044 A 
HETATM   13  C15 UNL     1      26.827   5.605  48.600  1.00  0.00     0.117 A 
HETATM   14  F1  UNL     1      27.760   6.220  47.841  1.00  0.00    -0.206 F 
HETATM   15  C16 UNL     1      27.195   4.392  49.194  1.00  0.00     0.063 A 
HETATM   16  S1  UNL     1      26.258   2.230  50.905  1.00  0.00    -0.067 SA
ENDBRANCH   6   7
BRANCH   1  17
HETATM   17  C2  UNL     1      21.702   1.709  51.382  1.00  0.00     0.011 C 
HETATM   18  C3  UNL     1      21.426   1.503  50.089  1.00  0.00     0.083 A 
HETATM   19  C4  UNL     1      20.581   1.890  48.968  1.00  0.00     0.149 A 
HETATM   20  N2  UNL     1      21.585   0.917  48.775  1.00  0.00    -0.257 NA
BRANCH  17  21
HETATM   21  C1  UNL     1      20.876   2.742  52.109  1.00  0.00     0.308 C 
BRANCH  21  22
HETATM   22  N1  UNL     1      21.354   4.074  51.792  1.00  0.00     0.082 N 
HETATM   23  H1  UNL     1      20.678   4.552  51.143  1.00  0.00     0.313 HD
HETATM   24  H2  UNL     1      22.299   4.065  51.314  1.00  0.00     0.313 HD
ENDBRANCH  21  22
ENDBRANCH  17  21
ENDBRANCH   1  17
TORSDOF 4
ENDMDL
MODEL 7
REMARK VINA RESULT:      -7.1      3.686      6.497
REMARK  4 active torsions:
REMARK  status: ('A' for Active; 'I' for Inactive)
REMARK    1  A    between atoms: N1_1  and  C1_2 
REMARK    2  A    between atoms: C1_2  and  C2_3 
REMARK    3  A    between atoms: C2_3  and  C5_7 
REMARK    4  A    between atoms: C10_12  and  C11_13 
ROOT
HETATM    1  C5  UNL     1      24.825   2.215  51.920  1.00  0.00    -0.013 A 
HETATM    2  C6  UNL     1      26.180   2.584  51.964  1.00  0.00     0.013 A 
HETATM    3  C7  UNL     1      27.202   1.737  52.325  1.00  0.00     0.001 A 
HETATM    4  C8  UNL     1      26.897   0.446  52.668  1.00  0.00     0.001 A 
HETATM    5  C9  UNL     1      25.578   0.061  52.633  1.00  0.00     0.015 A 
HETATM    6  C10 UNL     1      24.569   0.928  52.269  1.00  0.00     0.011 A 
ENDROOT
BRANCH   6   7
HETATM    7  C11 UNL     1      23.135   0.624  52.247  1.00  0.00     0.110 A 
HETATM    8  N3  UNL     1      22.142   0.712  51.741  1.00  0.00    -0.240 NA
HETATM    9  C12 UNL     1      20.936   0.294  52.017  1.00  0.00     0.075 A 
HETATM   10  C13 UNL     1      19.745   0.445  51.335  1.00  0.00     0.036 A 
HETATM   11  C17 UNL     1      20.843  -0.401  53.162  1.00  0.00     0.038 A 
HETATM   12  C14 UNL     1      18.593  -0.083  51.817  1.00  0.00     0.044 A 
HETATM   13  C15 UNL     1      18.483  -0.805  53.001  1.00  0.00     0.117 A 
HETATM   14  F1  UNL     1      17.368  -1.354  53.528  1.00  0.00    -0.206 F 
HETATM   15  C16 UNL     1      19.673  -0.977  53.718  1.00  0.00     0.063 A 
HETATM   16  S1  UNL     1      22.523  -0.379  53.729  1.00  0.00    -0.067 SA
ENDBRANCH   6   7
BRANCH   1  17
HETATM   17  C2  UNL     1      23.938   3.279  51.511  1.00  0.00     0.011 C 
HETATM   18  C3  UNL     1      23.532   3.604  50.277  1.00  0.00     0.083 A 
HETATM   19  C4  UNL     1      22.710   4.510  49.486  1.00  0.00     0.149 A 
HETATM   20  N2  UNL     1      23.469   3.515  48.834  1.00  0.00    -0.257 NA
BRANCH  17  21
HETATM   21  C1  UNL     1      23.403   4.105  52.655  1.00  0.00     0.308 C 
BRANCH  21  22
HETATM   22  N1  UNL     1      23.957   5.443  52.603  1.00  0.00     0.082 N 
HETATM   23  H1  UNL     1      23.181   6.152  52.539  1.00  0.00     0.313 HD
HETATM   24  H2  UNL     1      24.590   5.591  51.766  1.00  0.00     0.313 HD
ENDBRANCH  21  22
ENDBRANCH  17  21
ENDBRANCH   1  17
TORSDOF 4
ENDMDL
MODEL 8
REMARK VINA RESULT:      -6.8      3.163      5.564
REMARK  4 active torsions:
REMARK  status: ('A' for Active; 'I' for Inactive)
REMARK    1  A    between atoms: N1_1  and  C1_2 
REMARK    2  A    between atoms: C1_2  and  C2_3 
REMARK    3  A    between atoms: C2_3  and  C5_7 
REMARK    4  A    between atoms: C10_12  and  C11_13 
ROOT
HETATM    1  C5  UNL     1      21.901   2.359  50.671  1.00  0.00    -0.013 A 
HETATM    2  C6  UNL     1      20.630   2.512  50.095  1.00  0.00     0.013 A 
HETATM    3  C7  UNL     1      19.641   1.556  50.134  1.00  0.00     0.001 A 
HETATM    4  C8  UNL     1      19.897   0.370  50.772  1.00  0.00     0.001 A 
HETATM    5  C9  UNL     1      21.135   0.196  51.343  1.00  0.00     0.015 A 
HETATM    6  C10 UNL     1      22.112   1.168  51.291  1.00  0.00     0.011 A 
ENDROOT
BRANCH   6   7
HETATM    7  C11 UNL     1      23.471   1.057  51.828  1.00  0.00     0.110 A 
HETATM    8  N3  UNL     1      24.568   1.238  51.712  1.00  0.00    -0.240 NA
HETATM    9  C12 UNL     1      25.619   0.981  52.443  1.00  0.00     0.075 A 
HETATM   10  C13 UNL     1      26.959   1.237  52.229  1.00  0.00     0.036 A 
HETATM   11  C17 UNL     1      25.345   0.359  53.602  1.00  0.00     0.038 A 
HETATM   12  C14 UNL     1      27.893   0.874  53.141  1.00  0.00     0.044 A 
HETATM   13  C15 UNL     1      27.623   0.230  54.344  1.00  0.00     0.117 A 
HETATM   14  F1  UNL     1      28.508  -0.152  55.290  1.00  0.00    -0.206 F 
HETATM   15  C16 UNL     1      26.273  -0.045  54.594  1.00  0.00     0.063 A 
HETATM   16  S1  UNL     1      23.580   0.208  53.515  1.00  0.00    -0.067 SA
ENDBRANCH   6   7
BRANCH   1  17
HETATM   17  C2  UNL     1      22.768   3.502  50.500  1.00  0.00     0.011 C 
HETATM   18  C3  UNL     1      23.012   4.505  51.353  1.00  0.00     0.083 A 
HETATM   19  C4  UNL     1      23.754   5.739  51.569  1.00  0.00     0.149 A 
HETATM   20  N2  UNL     1      22.870   5.277  52.568  1.00  0.00    -0.257 NA
BRANCH  17  21
HETATM   21  C1  UNL     1      23.492   3.529  49.176  1.00  0.00     0.308 C 
BRANCH  21  22
HETATM   22  N1  UNL     1      24.906   3.284  49.377  1.00  0.00     0.082 N 
HETATM   23  H1  UNL     1      25.325   4.055  49.959  1.00  0.00     0.313 HD
HETATM   24  H2  UNL     1      25.448   3.245  48.467  1.00  0.00     0.313 HD
ENDBRANCH  21  22
ENDBRANCH  17  21
ENDBRANCH   1  17
TORSDOF 4
ENDMDL
MODEL 9
REMARK VINA RESULT:      -6.8      3.358      6.588
REMARK  4 active torsions:
REMARK  status: ('A' for Active; 'I' for Inactive)
REMARK    1  A    between atoms: N1_1  and  C1_2 
REMARK    2  A    between atoms: C1_2  and  C2_3 
REMARK    3  A    between atoms: C2_3  and  C5_7 
REMARK    4  A    between atoms: C10_12  and  C11_13 
ROOT
HETATM    1  C5  UNL     1      23.461   4.913  48.899  1.00  0.00    -0.013 A 
HETATM    2  C6  UNL     1      22.784   5.392  47.766  1.00  0.00     0.013 A 
HETATM    3  C7  UNL     1      22.137   4.592  46.853  1.00  0.00     0.001 A 
HETATM    4  C8  UNL     1      22.145   3.235  47.045  1.00  0.00     0.001 A 
HETATM    5  C9  UNL     1      22.802   2.741  48.147  1.00  0.00     0.015 A 
HETATM    6  C10 UNL     1      23.445   3.563  49.049  1.00  0.00     0.011 A 
ENDROOT
BRANCH   6   7
HETATM    7  C11 UNL     1      24.207   3.128  50.223  1.00  0.00     0.110 A 
HETATM    8  N3  UNL     1      24.223   2.802  51.292  1.00  0.00    -0.240 NA
HETATM    9  C12 UNL     1      25.165   2.465  52.131  1.00  0.00     0.075 A 
HETATM   10  C13 UNL     1      25.106   2.071  53.453  1.00  0.00     0.036 A 
HETATM   11  C17 UNL     1      26.404   2.512  51.615  1.00  0.00     0.038 A 
HETATM   12  C14 UNL     1      26.232   1.764  54.141  1.00  0.00     0.044 A 
HETATM   13  C15 UNL     1      27.520   1.808  53.619  1.00  0.00     0.117 A 
HETATM   14  F1  UNL     1      28.675   1.512  54.253  1.00  0.00    -0.206 F 
HETATM   15  C16 UNL     1      27.618   2.204  52.280  1.00  0.00     0.063 A 
HETATM   16  S1  UNL     1      26.079   3.045  49.956  1.00  0.00    -0.067 SA
ENDBRANCH   6   7
BRANCH   1  17
HETATM   17  C2  UNL     1      24.062   5.947  49.709  1.00  0.00     0.011 C 
HETATM   18  C3  UNL     1      25.222   6.589  49.524  1.00  0.00     0.083 A 
HETATM   19  C4  UNL     1      26.120   7.612  50.041  1.00  0.00     0.149 A 
HETATM   20  N2  UNL     1      26.480   6.896  48.879  1.00  0.00    -0.257 NA
BRANCH  17  21
HETATM   21  C1  UNL     1      23.237   6.343  50.909  1.00  0.00     0.308 C 
BRANCH  21  22
HETATM   22  N1  UNL     1      23.917   5.956  52.129  1.00  0.00     0.082 N 
HETATM   23  H1  UNL     1      23.217   5.813  52.901  1.00  0.00     0.313 HD
HETATM   24  H2  UNL     1      24.608   6.688  52.461  1.00  0.00     0.313 HD
ENDBRANCH  21  22
ENDBRANCH  17  21
ENDBRANCH   1  17
TORSDOF 4
ENDMDL
