MODEL 1
REMARK VINA RESULT:      -7.4      0.000      0.000
REMARK  7 active torsions:
REMARK  status: ('A' for Active; 'I' for Inactive)
REMARK    1  A    between atoms: C7_7  and  N1_8 
REMARK       I    between atoms: N1_8  and  C8_9 
REMARK    2  A    between atoms: C8_9  and  C9_11 
REMARK    3  A    between atoms: C9_11  and  C10_12 
REMARK    4  A    between atoms: C10_12  and  C11_13 
REMARK    5  A    between atoms: C11_13  and  N2_14 
REMARK    6  A    between atoms: C15_18  and  N3_19 
REMARK    7  A    between atoms: C16_20  and  N4_21 
ROOT
HETATM    1  C1  UNL     1      22.545   5.700  47.584  1.00  0.00     0.046 C 
HETATM    2  C2  UNL     1      23.409   5.260  48.734  1.00  0.00    -0.056 C 
HETATM    3  C3  UNL     1      24.186   5.529  49.774  1.00  0.00    -0.040 C 
HETATM    4  C4  UNL     1      25.698   5.369  49.514  1.00  0.00     0.038 C 
HETATM    5  C5  UNL     1      25.849   3.871  49.251  1.00  0.00     0.017 C 
HETATM    6  C6  UNL     1      24.550   3.207  49.677  1.00  0.00     0.063 C 
HETATM    7  C7  UNL     1      24.268   3.319  51.140  1.00  0.00     0.017 C 
HETATM    8  C14 UNL     1      23.959   4.451  51.838  1.00  0.00     0.038 C 
HETATM    9  C15 UNL     1      23.845   5.860  51.232  1.00  0.00     0.272 C 
HETATM   10  C16 UNL     1      23.460   3.752  48.819  1.00  0.00     0.123 C 
ENDROOT
BRANCH   7  11
HETATM   11  N1  UNL     1      24.315   2.121  51.939  1.00  0.00    -0.331 N 
HETATM   12  C8  UNL     1      25.480   1.324  52.014  1.00  0.00     0.222 C 
HETATM   13  O1  UNL     1      26.633   1.389  51.507  1.00  0.00    -0.273 OA
HETATM   14  H9  UNL     1      23.495   1.788  52.495  1.00  0.00     0.168 HD
BRANCH  12  15
HETATM   15  C9  UNL     1      25.567   0.091  52.821  1.00  0.00     0.105 C 
BRANCH  15  16
HETATM   16  C10 UNL     1      27.033  -0.230  53.052  1.00  0.00     0.039 C 
BRANCH  16  17
HETATM   17  C11 UNL     1      27.407  -0.125  54.507  1.00  0.00     0.271 C 
BRANCH  17  18
HETATM   18  N2  UNL     1      28.799   0.283  54.700  1.00  0.00     0.080 N 
HETATM   19  C12 UNL     1      29.579  -0.640  53.859  1.00  0.00     0.309 C 
HETATM   20  C13 UNL     1      29.014   1.592  54.112  1.00  0.00     0.309 C 
ENDBRANCH  17  18
ENDBRANCH  16  17
ENDBRANCH  15  16
ENDBRANCH  12  15
ENDBRANCH   7  11
BRANCH  10  21
HETATM   21  N4  UNL     1      22.206   3.175  49.250  1.00  0.00    -0.377 N 
HETATM   22  C17 UNL     1      22.175   1.772  48.969  1.00  0.00     0.088 A 
HETATM   23  C18 UNL     1      21.140   0.997  49.261  1.00  0.00     0.035 A 
HETATM   24  C19 UNL     1      19.932   1.555  49.907  1.00  0.00     0.010 A 
HETATM   25 BR1  UNL     1      18.390   0.539  50.369  1.00  0.00    -0.051 Br
HETATM   26  C20 UNL     1      20.017   2.853  50.143  1.00  0.00     0.012 A 
HETATM   27  C21 UNL     1      21.096   3.814  49.873  1.00  0.00     0.151 A 
ENDBRANCH  10  21
BRANCH   9  28
HETATM   28  N3  UNL     1      22.688   6.539  51.548  1.00  0.00     0.090 N 
HETATM   29  H24 UNL     1      22.776   7.558  51.279  1.00  0.00     0.314 HD
HETATM   30  H25 UNL     1      21.791   6.147  51.170  1.00  0.00     0.314 HD
ENDBRANCH   9  28
TORSDOF 7
ENDMDL
MODEL 2
REMARK VINA RESULT:      -7.2      1.711      2.716
REMARK  7 active torsions:
REMARK  status: ('A' for Active; 'I' for Inactive)
REMARK    1  A    between atoms: C7_7  and  N1_8 
REMARK       I    between atoms: N1_8  and  C8_9 
REMARK    2  A    between atoms: C8_9  and  C9_11 
REMARK    3  A    between atoms: C9_11  and  C10_12 
REMARK    4  A    between atoms: C10_12  and  C11_13 
REMARK    5  A    between atoms: C11_13  and  N2_14 
REMARK    6  A    between atoms: C15_18  and  N3_19 
REMARK    7  A    between atoms: C16_20  and  N4_21 
ROOT
HETATM    1  C1  UNL     1      22.642   5.554  47.401  1.00  0.00     0.046 C 
HETATM    2  C2  UNL     1      23.433   5.282  48.650  1.00  0.00    -0.056 C 
HETATM    3  C3  UNL     1      24.121   5.697  49.705  1.00  0.00    -0.040 C 
HETATM    4  C4  UNL     1      25.652   5.571  49.570  1.00  0.00     0.038 C 
HETATM    5  C5  UNL     1      25.873   4.062  49.491  1.00  0.00     0.017 C 
HETATM    6  C6  UNL     1      24.568   3.395  49.899  1.00  0.00     0.063 C 
HETATM    7  C7  UNL     1      24.175   3.658  51.317  1.00  0.00     0.017 C 
HETATM    8  C14 UNL     1      23.778   4.847  51.857  1.00  0.00     0.038 C 
HETATM    9  C15 UNL     1      23.662   6.174  51.088  1.00  0.00     0.272 C 
HETATM   10  C16 UNL     1      23.527   3.796  48.911  1.00  0.00     0.123 C 
ENDROOT
BRANCH   7  11
HETATM   11  N1  UNL     1      24.203   2.559  52.248  1.00  0.00    -0.331 N 
HETATM   12  C8  UNL     1      25.420   1.999  52.699  1.00  0.00     0.222 C 
HETATM   13  O1  UNL     1      26.639   2.232  52.477  1.00  0.00    -0.273 OA
HETATM   14  H9  UNL     1      23.330   2.129  52.631  1.00  0.00     0.168 HD
BRANCH  12  15
HETATM   15  C9  UNL     1      25.489   0.874  53.653  1.00  0.00     0.105 C 
BRANCH  15  16
HETATM   16  C10 UNL     1      24.627  -0.258  53.124  1.00  0.00     0.039 C 
BRANCH  16  17
HETATM   17  C11 UNL     1      23.509  -0.601  54.073  1.00  0.00     0.271 C 
BRANCH  17  18
HETATM   18  N2  UNL     1      22.364  -1.210  53.394  1.00  0.00     0.080 N 
HETATM   19  C12 UNL     1      21.491  -1.679  54.481  1.00  0.00     0.309 C 
HETATM   20  C13 UNL     1      21.594  -0.187  52.714  1.00  0.00     0.309 C 
ENDBRANCH  17  18
ENDBRANCH  16  17
ENDBRANCH  15  16
ENDBRANCH  12  15
ENDBRANCH   7  11
BRANCH  10  21
HETATM   21  N4  UNL     1      22.265   3.218  49.316  1.00  0.00    -0.377 N 
HETATM   22  C17 UNL     1      22.239   1.815  49.035  1.00  0.00     0.088 A 
HETATM   23  C18 UNL     1      21.199   1.041  49.306  1.00  0.00     0.035 A 
HETATM   24  C19 UNL     1      19.978   1.599  49.928  1.00  0.00     0.010 A 
HETATM   25 BR1  UNL     1      18.426   0.583  50.358  1.00  0.00    -0.051 Br
HETATM   26  C20 UNL     1      20.058   2.897  50.165  1.00  0.00     0.012 A 
HETATM   27  C21 UNL     1      21.142   3.858  49.917  1.00  0.00     0.151 A 
ENDBRANCH  10  21
BRANCH   9  28
HETATM   28  N3  UNL     1      22.463   6.835  51.244  1.00  0.00     0.090 N 
HETATM   29  H24 UNL     1      22.550   7.834  50.908  1.00  0.00     0.314 HD
HETATM   30  H25 UNL     1      21.617   6.388  50.813  1.00  0.00     0.314 HD
ENDBRANCH   9  28
TORSDOF 7
ENDMDL
MODEL 3
REMARK VINA RESULT:      -7.0      2.622      4.689
REMARK  7 active torsions:
REMARK  status: ('A' for Active; 'I' for Inactive)
REMARK    1  A    between atoms: C7_7  and  N1_8 
REMARK       I    between atoms: N1_8  and  C8_9 
REMARK    2  A    between atoms: C8_9  and  C9_11 
REMARK    3  A    between atoms: C9_11  and  C10_12 
REMARK    4  A    between atoms: C10_12  and  C11_13 
REMARK    5  A    between atoms: C11_13  and  N2_14 
REMARK    6  A    between atoms: C15_18  and  N3_19 
REMARK    7  A    between atoms: C16_20  and  N4_21 
ROOT
HETATM    1  C1  UNL     1      18.423   3.844  51.469  1.00  0.00     0.046 C 
HETATM    2  C2  UNL     1      19.398   2.700  51.446  1.00  0.00    -0.056 C 
HETATM    3  C3  UNL     1      19.761   1.488  51.047  1.00  0.00    -0.040 C 
HETATM    4  C4  UNL     1      19.590   0.379  52.105  1.00  0.00     0.038 C 
HETATM    5  C5  UNL     1      20.584   0.779  53.194  1.00  0.00     0.017 C 
HETATM    6  C6  UNL     1      21.483   1.856  52.607  1.00  0.00     0.063 C 
HETATM    7  C7  UNL     1      22.325   1.383  51.467  1.00  0.00     0.017 C 
HETATM    8  C14 UNL     1      21.898   1.012  50.224  1.00  0.00     0.038 C 
HETATM    9  C15 UNL     1      20.434   1.009  49.755  1.00  0.00     0.272 C 
HETATM   10  C16 UNL     1      20.625   3.027  52.266  1.00  0.00     0.123 C 
ENDROOT
BRANCH   7  11
HETATM   11  N1  UNL     1      23.750   1.296  51.659  1.00  0.00    -0.331 N 
HETATM   12  C8  UNL     1      24.323   0.360  52.549  1.00  0.00     0.222 C 
HETATM   13  O1  UNL     1      23.865  -0.531  53.315  1.00  0.00    -0.273 OA
HETATM   14  H9  UNL     1      24.420   1.918  51.153  1.00  0.00     0.168 HD
BRANCH  12  15
HETATM   15  C9  UNL     1      25.777   0.240  52.772  1.00  0.00     0.105 C 
BRANCH  15  16
HETATM   16  C10 UNL     1      26.007  -0.238  54.195  1.00  0.00     0.039 C 
BRANCH  16  17
HETATM   17  C11 UNL     1      27.330   0.237  54.738  1.00  0.00     0.271 C 
BRANCH  17  18
HETATM   18  N2  UNL     1      28.337   0.410  53.690  1.00  0.00     0.080 N 
HETATM   19  C12 UNL     1      29.010   1.676  54.024  1.00  0.00     0.309 C 
HETATM   20  C13 UNL     1      29.365  -0.604  53.823  1.00  0.00     0.309 C 
ENDBRANCH  17  18
ENDBRANCH  16  17
ENDBRANCH  15  16
ENDBRANCH  12  15
ENDBRANCH   7  11
BRANCH  10  21
HETATM   21  N4  UNL     1      21.455   4.039  51.653  1.00  0.00    -0.377 N 
HETATM   22  C17 UNL     1      22.491   4.453  52.549  1.00  0.00     0.088 A 
HETATM   23  C18 UNL     1      23.393   5.372  52.239  1.00  0.00     0.035 A 
HETATM   24  C19 UNL     1      23.376   6.038  50.918  1.00  0.00     0.010 A 
HETATM   25 BR1  UNL     1      24.618   7.371  50.366  1.00  0.00    -0.051 Br
HETATM   26  C20 UNL     1      22.400   5.617  50.132  1.00  0.00     0.012 A 
HETATM   27  C21 UNL     1      21.349   4.614  50.353  1.00  0.00     0.151 A 
ENDBRANCH  10  21
BRANCH   9  28
HETATM   28  N3  UNL     1      20.203   1.653  48.559  1.00  0.00     0.090 N 
HETATM   29  H24 UNL     1      19.344   2.266  48.634  1.00  0.00     0.314 HD
HETATM   30  H25 UNL     1      21.000   2.204  48.157  1.00  0.00     0.314 HD
ENDBRANCH   9  28
TORSDOF 7
ENDMDL
MODEL 4
REMARK VINA RESULT:      -6.7      3.415      6.401
REMARK  7 active torsions:
REMARK  status: ('A' for Active; 'I' for Inactive)
REMARK    1  A    between atoms: C7_7  and  N1_8 
REMARK       I    between atoms: N1_8  and  C8_9 
REMARK    2  A    between atoms: C8_9  and  C9_11 
REMARK    3  A    between atoms: C9_11  and  C10_12 
REMARK    4  A    between atoms: C10_12  and  C11_13 
REMARK    5  A    between atoms: C11_13  and  N2_14 
REMARK    6  A    between atoms: C15_18  and  N3_19 
REMARK    7  A    between atoms: C16_20  and  N4_21 
ROOT
HETATM    1  C1  UNL     1      26.262   3.402  50.182  1.00  0.00     0.046 C 
HETATM    2  C2  UNL     1      25.013   3.233  51.002  1.00  0.00    -0.056 C 
HETATM    3  C3  UNL     1      24.325   3.405  52.122  1.00  0.00    -0.040 C 
HETATM    4  C4  UNL     1      24.220   2.154  53.018  1.00  0.00     0.038 C 
HETATM    5  C5  UNL     1      23.404   1.183  52.167  1.00  0.00     0.017 C 
HETATM    6  C6  UNL     1      22.812   1.982  51.016  1.00  0.00     0.063 C 
HETATM    7  C7  UNL     1      21.842   3.032  51.449  1.00  0.00     0.017 C 
HETATM    8  C14 UNL     1      22.116   4.173  52.147  1.00  0.00     0.038 C 
HETATM    9  C15 UNL     1      23.511   4.599  52.635  1.00  0.00     0.272 C 
HETATM   10  C16 UNL     1      23.945   2.517  50.208  1.00  0.00     0.123 C 
ENDROOT
BRANCH   7  11
HETATM   11  N1  UNL     1      20.452   2.860  51.109  1.00  0.00    -0.331 N 
HETATM   12  C8  UNL     1      19.649   1.885  51.741  1.00  0.00     0.222 C 
HETATM   13  O1  UNL     1      19.846   1.016  52.633  1.00  0.00    -0.273 OA
HETATM   14  H9  UNL     1      19.979   3.446  50.384  1.00  0.00     0.168 HD
BRANCH  12  15
HETATM   15  C9  UNL     1      18.223   1.679  51.420  1.00  0.00     0.105 C 
BRANCH  15  16
HETATM   16  C10 UNL     1      18.097   0.427  50.570  1.00  0.00     0.039 C 
BRANCH  16  17
HETATM   17  C11 UNL     1      16.970  -0.457  51.037  1.00  0.00     0.271 C 
BRANCH  17  18
HETATM   18  N2  UNL     1      16.749  -0.367  52.481  1.00  0.00     0.080 N 
HETATM   19  C12 UNL     1      15.290  -0.475  52.644  1.00  0.00     0.309 C 
HETATM   20  C13 UNL     1      17.285  -1.545  53.135  1.00  0.00     0.309 C 
ENDBRANCH  17  18
ENDBRANCH  16  17
ENDBRANCH  15  16
ENDBRANCH  12  15
ENDBRANCH   7  11
BRANCH  10  21
HETATM   21  N4  UNL     1      23.402   3.329  49.142  1.00  0.00    -0.377 N 
HETATM   22  C17 UNL     1      22.660   2.522  48.221  1.00  0.00     0.088 A 
HETATM   23  C18 UNL     1      22.057   3.015  47.149  1.00  0.00     0.035 A 
HETATM   24  C19 UNL     1      22.121   4.460  46.838  1.00  0.00     0.010 A 
HETATM   25 BR1  UNL     1      21.296   5.275  45.328  1.00  0.00    -0.051 Br
HETATM   26  C20 UNL     1      22.817   5.155  47.721  1.00  0.00     0.012 A 
HETATM   27  C21 UNL     1      23.525   4.734  48.939  1.00  0.00     0.151 A 
ENDBRANCH  10  21
BRANCH   9  28
HETATM   28  N3  UNL     1      23.872   5.889  52.313  1.00  0.00     0.090 N 
HETATM   29  H24 UNL     1      23.499   6.146  51.358  1.00  0.00     0.314 HD
HETATM   30  H25 UNL     1      23.622   6.637  53.006  1.00  0.00     0.314 HD
ENDBRANCH   9  28
TORSDOF 7
ENDMDL
MODEL 5
REMARK VINA RESULT:      -6.5      3.482      5.986
REMARK  7 active torsions:
REMARK  status: ('A' for Active; 'I' for Inactive)
REMARK    1  A    between atoms: C7_7  and  N1_8 
REMARK       I    between atoms: N1_8  and  C8_9 
REMARK    2  A    between atoms: C8_9  and  C9_11 
REMARK    3  A    between atoms: C9_11  and  C10_12 
REMARK    4  A    between atoms: C10_12  and  C11_13 
REMARK    5  A    between atoms: C11_13  and  N2_14 
REMARK    6  A    between atoms: C15_18  and  N3_19 
REMARK    7  A    between atoms: C16_20  and  N4_21 
ROOT
HETATM    1  C1  UNL     1      20.122   2.753  52.370  1.00  0.00     0.046 C 
HETATM    2  C2  UNL     1      21.431   2.613  51.644  1.00  0.00    -0.056 C 
HETATM    3  C3  UNL     1      22.288   1.912  50.913  1.00  0.00    -0.040 C 
HETATM    4  C4  UNL     1      23.482   1.329  51.696  1.00  0.00     0.038 C 
HETATM    5  C5  UNL     1      24.240   2.574  52.153  1.00  0.00     0.017 C 
HETATM    6  C6  UNL     1      23.676   3.754  51.377  1.00  0.00     0.063 C 
HETATM    7  C7  UNL     1      23.911   3.674  49.904  1.00  0.00     0.017 C 
HETATM    8  C14 UNL     1      23.358   2.786  49.026  1.00  0.00     0.038 C 
HETATM    9  C15 UNL     1      22.366   1.671  49.401  1.00  0.00     0.272 C 
HETATM   10  C16 UNL     1      22.237   3.889  51.742  1.00  0.00     0.123 C 
ENDROOT
BRANCH   7  11
HETATM   11  N1  UNL     1      24.813   4.622  49.303  1.00  0.00    -0.331 N 
HETATM   12  C8  UNL     1      26.212   4.418  49.302  1.00  0.00     0.222 C 
HETATM   13  O1  UNL     1      26.977   3.516  49.741  1.00  0.00    -0.273 OA
HETATM   14  H9  UNL     1      24.477   5.499  48.844  1.00  0.00     0.168 HD
BRANCH  12  15
HETATM   15  C9  UNL     1      27.168   5.366  48.697  1.00  0.00     0.105 C 
BRANCH  15  16
HETATM   16  C10 UNL     1      26.510   6.732  48.626  1.00  0.00     0.039 C 
BRANCH  16  17
HETATM   17  C11 UNL     1      27.425   7.763  48.018  1.00  0.00     0.271 C 
BRANCH  17  18
HETATM   18  N2  UNL     1      28.293   8.399  49.011  1.00  0.00     0.080 N 
HETATM   19  C12 UNL     1      29.065   9.395  48.251  1.00  0.00     0.309 C 
HETATM   20  C13 UNL     1      27.492   9.177  49.936  1.00  0.00     0.309 C 
ENDBRANCH  17  18
ENDBRANCH  16  17
ENDBRANCH  15  16
ENDBRANCH  12  15
ENDBRANCH   7  11
BRANCH  10  21
HETATM   21  N4  UNL     1      21.668   4.970  50.969  1.00  0.00    -0.377 N 
HETATM   22  C17 UNL     1      22.303   6.210  51.294  1.00  0.00     0.088 A 
HETATM   23  C18 UNL     1      21.973   7.363  50.731  1.00  0.00     0.035 A 
HETATM   24  C19 UNL     1      20.903   7.432  49.712  1.00  0.00     0.010 A 
HETATM   25 BR1  UNL     1      20.344   9.030  48.840  1.00  0.00    -0.051 Br
HETATM   26  C20 UNL     1      20.353   6.258  49.451  1.00  0.00     0.012 A 
HETATM   27  C21 UNL     1      20.626   4.922  49.998  1.00  0.00     0.151 A 
ENDBRANCH  10  21
BRANCH   9  28
HETATM   28  N3  UNL     1      21.223   1.626  48.634  1.00  0.00     0.090 N 
HETATM   29  H24 UNL     1      21.442   1.245  47.672  1.00  0.00     0.314 HD
HETATM   30  H25 UNL     1      20.401   1.115  49.039  1.00  0.00     0.314 HD
ENDBRANCH   9  28
TORSDOF 7
ENDMDL
MODEL 6
REMARK VINA RESULT:      -6.4      3.116      3.754
REMARK  7 active torsions:
REMARK  status: ('A' for Active; 'I' for Inactive)
REMARK    1  A    between atoms: C7_7  and  N1_8 
REMARK       I    between atoms: N1_8  and  C8_9 
REMARK    2  A    between atoms: C8_9  and  C9_11 
REMARK    3  A    between atoms: C9_11  and  C10_12 
REMARK    4  A    between atoms: C10_12  and  C11_13 
REMARK    5  A    between atoms: C11_13  and  N2_14 
REMARK    6  A    between atoms: C15_18  and  N3_19 
REMARK    7  A    between atoms: C16_20  and  N4_21 
ROOT
HETATM    1  C1  UNL     1      23.545   6.753  47.338  1.00  0.00     0.046 C 
HETATM    2  C2  UNL     1      23.857   5.953  48.573  1.00  0.00    -0.056 C 
HETATM    3  C3  UNL     1      24.462   5.809  49.744  1.00  0.00    -0.040 C 
HETATM    4  C4  UNL     1      25.717   4.914  49.719  1.00  0.00     0.038 C 
HETATM    5  C5  UNL     1      25.157   3.538  49.363  1.00  0.00     0.017 C 
HETATM    6  C6  UNL     1      23.646   3.614  49.518  1.00  0.00     0.063 C 
HETATM    7  C7  UNL     1      23.196   3.867  50.920  1.00  0.00     0.017 C 
HETATM    8  C14 UNL     1      23.364   5.010  51.648  1.00  0.00     0.038 C 
HETATM    9  C15 UNL     1      24.070   6.282  51.149  1.00  0.00     0.272 C 
HETATM   10  C16 UNL     1      23.142   4.622  48.542  1.00  0.00     0.123 C 
ENDROOT
BRANCH   7  11
HETATM   11  N1  UNL     1      22.502   2.814  51.616  1.00  0.00    -0.331 N 
HETATM   12  C8  UNL     1      21.165   2.966  52.049  1.00  0.00     0.222 C 
HETATM   13  O1  UNL     1      20.311   3.891  51.983  1.00  0.00    -0.273 OA
HETATM   14  H9  UNL     1      22.952   1.895  51.830  1.00  0.00     0.168 HD
BRANCH  12  15
HETATM   15  C9  UNL     1      20.421   1.911  52.764  1.00  0.00     0.105 C 
BRANCH  15  16
HETATM   16  C10 UNL     1      20.879   0.561  52.242  1.00  0.00     0.039 C 
BRANCH  16  17
HETATM   17  C11 UNL     1      21.092  -0.429  53.358  1.00  0.00     0.271 C 
BRANCH  17  18
HETATM   18  N2  UNL     1      22.333  -0.186  54.094  1.00  0.00     0.080 N 
HETATM   19  C12 UNL     1      22.447  -1.323  55.021  1.00  0.00     0.309 C 
HETATM   20  C13 UNL     1      23.468  -0.318  53.201  1.00  0.00     0.309 C 
ENDBRANCH  17  18
ENDBRANCH  16  17
ENDBRANCH  15  16
ENDBRANCH  12  15
ENDBRANCH   7  11
BRANCH  10  21
HETATM   21  N4  UNL     1      21.712   4.751  48.715  1.00  0.00    -0.377 N 
HETATM   22  C17 UNL     1      21.050   3.533  48.361  1.00  0.00     0.088 A 
HETATM   23  C18 UNL     1      19.735   3.377  48.427  1.00  0.00     0.035 A 
HETATM   24  C19 UNL     1      18.861   4.482  48.878  1.00  0.00     0.010 A 
HETATM   25 BR1  UNL     1      16.965   4.372  49.009  1.00  0.00    -0.051 Br
HETATM   26  C20 UNL     1      19.526   5.581  49.193  1.00  0.00     0.012 A 
HETATM   27  C21 UNL     1      20.965   5.877  49.166  1.00  0.00     0.151 A 
ENDBRANCH  10  21
BRANCH   9  28
HETATM   28  N3  UNL     1      23.362   7.450  51.328  1.00  0.00     0.090 N 
HETATM   29  H24 UNL     1      24.023   8.252  51.522  1.00  0.00     0.314 HD
HETATM   30  H25 UNL     1      22.692   7.718  50.567  1.00  0.00     0.314 HD
ENDBRANCH   9  28
TORSDOF 7
ENDMDL
MODEL 7
REMARK VINA RESULT:      -6.4      7.531     10.092
REMARK  7 active torsions:
REMARK  status: ('A' for Active; 'I' for Inactive)
REMARK    1  A    between atoms: C7_7  and  N1_8 
REMARK       I    between atoms: N1_8  and  C8_9 
REMARK    2  A    between atoms: C8_9  and  C9_11 
REMARK    3  A    between atoms: C9_11  and  C10_12 
REMARK    4  A    between atoms: C10_12  and  C11_13 
REMARK    5  A    between atoms: C11_13  and  N2_14 
REMARK    6  A    between atoms: C15_18  and  N3_19 
REMARK    7  A    between atoms: C16_20  and  N4_21 
ROOT
HETATM    1  C1  UNL     1      33.782  10.342  47.155  1.00  0.00     0.046 C 
HETATM    2  C2  UNL     1      32.382   9.817  47.306  1.00  0.00    -0.056 C 
HETATM    3  C3  UNL     1      31.081   9.882  47.053  1.00  0.00    -0.040 C 
HETATM    4  C4  UNL     1      30.225  10.446  48.205  1.00  0.00     0.038 C 
HETATM    5  C5  UNL     1      30.388   9.400  49.306  1.00  0.00     0.017 C 
HETATM    6  C6  UNL     1      31.023   8.173  48.669  1.00  0.00     0.063 C 
HETATM    7  C7  UNL     1      30.165   7.520  47.635  1.00  0.00     0.017 C 
HETATM    8  C14 UNL     1      29.820   8.020  46.412  1.00  0.00     0.038 C 
HETATM    9  C15 UNL     1      30.257   9.386  45.859  1.00  0.00     0.272 C 
HETATM   10  C16 UNL     1      32.366   8.572  48.162  1.00  0.00     0.123 C 
ENDROOT
BRANCH   7  11
HETATM   11  N1  UNL     1      29.625   6.215  47.920  1.00  0.00    -0.331 N 
HETATM   12  C8  UNL     1      28.280   6.040  48.318  1.00  0.00     0.222 C 
HETATM   13  O1  UNL     1      27.305   6.815  48.515  1.00  0.00    -0.273 OA
HETATM   14  H9  UNL     1      30.199   5.345  47.847  1.00  0.00     0.168 HD
BRANCH  12  15
HETATM   15  C9  UNL     1      27.690   4.720  48.618  1.00  0.00     0.105 C 
BRANCH  15  16
HETATM   16  C10 UNL     1      26.377   4.936  49.349  1.00  0.00     0.039 C 
BRANCH  16  17
HETATM   17  C11 UNL     1      26.015   3.753  50.210  1.00  0.00     0.271 C 
BRANCH  17  18
HETATM   18  N2  UNL     1      24.695   3.892  50.826  1.00  0.00     0.080 N 
HETATM   19  C12 UNL     1      24.264   5.257  50.485  1.00  0.00     0.309 C 
HETATM   20  C13 UNL     1      23.746   3.024  50.155  1.00  0.00     0.309 C 
ENDBRANCH  17  18
ENDBRANCH  16  17
ENDBRANCH  15  16
ENDBRANCH  12  15
ENDBRANCH   7  11
BRANCH  10  21
HETATM   21  N4  UNL     1      32.962   7.432  47.500  1.00  0.00    -0.377 N 
HETATM   22  C17 UNL     1      33.279   6.408  48.449  1.00  0.00     0.088 A 
HETATM   23  C18 UNL     1      33.836   5.254  48.111  1.00  0.00     0.035 A 
HETATM   24  C19 UNL     1      34.169   4.956  46.701  1.00  0.00     0.010 A 
HETATM   25 BR1  UNL     1      34.970   3.336  46.101  1.00  0.00    -0.051 Br
HETATM   26  C20 UNL     1      33.853   5.935  45.870  1.00  0.00     0.012 A 
HETATM   27  C21 UNL     1      33.237   7.246  46.115  1.00  0.00     0.151 A 
ENDBRANCH  10  21
BRANCH   9  28
HETATM   28  N3  UNL     1      30.800   9.356  44.592  1.00  0.00     0.090 N 
HETATM   29  H24 UNL     1      30.740   8.379  44.192  1.00  0.00     0.314 HD
HETATM   30  H25 UNL     1      30.422  10.047  43.900  1.00  0.00     0.314 HD
ENDBRANCH   9  28
TORSDOF 7
ENDMDL
MODEL 8
REMARK VINA RESULT:      -6.2      8.389     11.148
REMARK  7 active torsions:
REMARK  status: ('A' for Active; 'I' for Inactive)
REMARK    1  A    between atoms: C7_7  and  N1_8 
REMARK       I    between atoms: N1_8  and  C8_9 
REMARK    2  A    between atoms: C8_9  and  C9_11 
REMARK    3  A    between atoms: C9_11  and  C10_12 
REMARK    4  A    between atoms: C10_12  and  C11_13 
REMARK    5  A    between atoms: C11_13  and  N2_14 
REMARK    6  A    between atoms: C15_18  and  N3_19 
REMARK    7  A    between atoms: C16_20  and  N4_21 
ROOT
HETATM    1  C1  UNL     1      27.961   5.590  48.583  1.00  0.00     0.046 C 
HETATM    2  C2  UNL     1      28.000   7.012  48.097  1.00  0.00    -0.056 C 
HETATM    3  C3  UNL     1      27.558   8.263  48.123  1.00  0.00    -0.040 C 
HETATM    4  C4  UNL     1      26.627   8.646  46.955  1.00  0.00     0.038 C 
HETATM    5  C5  UNL     1      27.540   8.547  45.734  1.00  0.00     0.017 C 
HETATM    6  C6  UNL     1      28.968   8.445  46.248  1.00  0.00     0.063 C 
HETATM    7  C7  UNL     1      29.432   9.660  46.983  1.00  0.00     0.017 C 
HETATM    8  C14 UNL     1      28.990  10.111  48.195  1.00  0.00     0.038 C 
HETATM    9  C15 UNL     1      27.902   9.437  49.047  1.00  0.00     0.272 C 
HETATM   10  C16 UNL     1      29.072   7.191  47.047  1.00  0.00     0.123 C 
ENDROOT
BRANCH   7  11
HETATM   11  N1  UNL     1      30.459  10.471  46.384  1.00  0.00    -0.331 N 
HETATM   12  C8  UNL     1      31.715  10.659  47.005  1.00  0.00     0.222 C 
HETATM   13  O1  UNL     1      32.242  10.257  48.078  1.00  0.00    -0.273 OA
HETATM   14  H9  UNL     1      30.324  10.956  45.467  1.00  0.00     0.168 HD
BRANCH  12  15
HETATM   15  C9  UNL     1      32.792  11.482  46.423  1.00  0.00     0.105 C 
BRANCH  15  16
HETATM   16  C10 UNL     1      32.908  11.148  44.946  1.00  0.00     0.039 C 
BRANCH  16  17
HETATM   17  C11 UNL     1      33.826   9.977  44.708  1.00  0.00     0.271 C 
BRANCH  17  18
HETATM   18  N2  UNL     1      33.513   9.261  43.471  1.00  0.00     0.080 N 
HETATM   19  C12 UNL     1      34.238   7.985  43.583  1.00  0.00     0.309 C 
HETATM   20  C13 UNL     1      32.110   8.891  43.459  1.00  0.00     0.309 C 
ENDBRANCH  17  18
ENDBRANCH  16  17
ENDBRANCH  15  16
ENDBRANCH  12  15
ENDBRANCH   7  11
BRANCH  10  21
HETATM   21  N4  UNL     1      30.408   7.106  47.593  1.00  0.00    -0.377 N 
HETATM   22  C17 UNL     1      31.373   6.973  46.545  1.00  0.00     0.088 A 
HETATM   23  C18 UNL     1      32.676   6.875  46.768  1.00  0.00     0.035 A 
HETATM   24  C19 UNL     1      33.215   6.896  48.145  1.00  0.00     0.010 A 
HETATM   25 BR1  UNL     1      35.063   6.759  48.582  1.00  0.00    -0.051 Br
HETATM   26  C20 UNL     1      32.280   7.021  49.071  1.00  0.00     0.012 A 
HETATM   27  C21 UNL     1      30.819   7.141  48.957  1.00  0.00     0.151 A 
ENDBRANCH  10  21
BRANCH   9  28
HETATM   28  N3  UNL     1      28.244   9.221  50.364  1.00  0.00     0.090 N 
HETATM   29  H24 UNL     1      28.192   8.189  50.591  1.00  0.00     0.314 HD
HETATM   30  H25 UNL     1      29.165   9.610  50.684  1.00  0.00     0.314 HD
ENDBRANCH   9  28
TORSDOF 7
ENDMDL
MODEL 9
REMARK VINA RESULT:      -6.1      8.529     11.378
REMARK  7 active torsions:
REMARK  status: ('A' for Active; 'I' for Inactive)
REMARK    1  A    between atoms: C7_7  and  N1_8 
REMARK       I    between atoms: N1_8  and  C8_9 
REMARK    2  A    between atoms: C8_9  and  C9_11 
REMARK    3  A    between atoms: C9_11  and  C10_12 
REMARK    4  A    between atoms: C10_12  and  C11_13 
REMARK    5  A    between atoms: C11_13  and  N2_14 
REMARK    6  A    between atoms: C15_18  and  N3_19 
REMARK    7  A    between atoms: C16_20  and  N4_21 
ROOT
HETATM    1  C1  UNL     1      34.930   4.736  44.643  1.00  0.00     0.046 C 
HETATM    2  C2  UNL     1      34.175   4.734  45.943  1.00  0.00    -0.056 C 
HETATM    3  C3  UNL     1      34.085   4.452  47.236  1.00  0.00    -0.040 C 
HETATM    4  C4  UNL     1      33.240   3.206  47.571  1.00  0.00     0.038 C 
HETATM    5  C5  UNL     1      31.834   3.609  47.130  1.00  0.00     0.017 C 
HETATM    6  C6  UNL     1      31.854   5.109  46.883  1.00  0.00     0.063 C 
HETATM    7  C7  UNL     1      32.124   5.918  48.109  1.00  0.00     0.017 C 
HETATM    8  C14 UNL     1      33.291   5.984  48.816  1.00  0.00     0.038 C 
HETATM    9  C15 UNL     1      34.577   5.213  48.473  1.00  0.00     0.272 C 
HETATM   10  C16 UNL     1      32.815   5.372  45.774  1.00  0.00     0.123 C 
ENDROOT
BRANCH   7  11
HETATM   11  N1  UNL     1      31.062   6.736  48.636  1.00  0.00    -0.331 N 
HETATM   12  C8  UNL     1      31.181   8.142  48.724  1.00  0.00     0.222 C 
HETATM   13  O1  UNL     1      32.080   8.976  48.428  1.00  0.00    -0.273 OA
HETATM   14  H9  UNL     1      30.160   6.330  48.975  1.00  0.00     0.168 HD
BRANCH  12  15
HETATM   15  C9  UNL     1      30.116   9.013  49.257  1.00  0.00     0.105 C 
BRANCH  15  16
HETATM   16  C10 UNL     1      28.973   9.042  48.258  1.00  0.00     0.039 C 
BRANCH  16  17
HETATM   17  C11 UNL     1      27.750   8.338  48.786  1.00  0.00     0.271 C 
BRANCH  17  18
HETATM   18  N2  UNL     1      27.227   7.344  47.848  1.00  0.00     0.080 N 
HETATM   19  C12 UNL     1      27.483   6.048  48.495  1.00  0.00     0.309 C 
HETATM   20  C13 UNL     1      25.781   7.447  47.780  1.00  0.00     0.309 C 
ENDBRANCH  17  18
ENDBRANCH  16  17
ENDBRANCH  15  16
ENDBRANCH  12  15
ENDBRANCH   7  11
BRANCH  10  21
HETATM   21  N4  UNL     1      32.891   6.801  45.564  1.00  0.00    -0.377 N 
HETATM   22  C17 UNL     1      31.634   7.311  45.107  1.00  0.00     0.088 A 
HETATM   23  C18 UNL     1      31.427   8.591  44.836  1.00  0.00     0.035 A 
HETATM   24  C19 UNL     1      32.510   9.586  44.994  1.00  0.00     0.010 A 
HETATM   25 BR1  UNL     1      32.327  11.446  44.633  1.00  0.00    -0.051 Br
HETATM   26  C20 UNL     1      33.647   9.060  45.418  1.00  0.00     0.012 A 
HETATM   27  C21 UNL     1      34.002   7.674  45.753  1.00  0.00     0.151 A 
ENDBRANCH  10  21
BRANCH   9  28
HETATM   28  N3  UNL     1      35.720   5.980  48.420  1.00  0.00     0.090 N 
HETATM   29  H24 UNL     1      35.563   6.829  47.809  1.00  0.00     0.314 HD
HETATM   30  H25 UNL     1      36.135   6.275  49.338  1.00  0.00     0.314 HD
ENDBRANCH   9  28
TORSDOF 7
ENDMDL
