MODEL 1
REMARK VINA RESULT:      -9.1      0.000      0.000
REMARK  4 active torsions:
REMARK  status: ('A' for Active; 'I' for Inactive)
REMARK    1  A    between atoms: C6_7  and  C7_8 
REMARK    2  A    between atoms: C10_12  and  S1_13 
REMARK    3  A    between atoms: S1_13  and  C11_14 
REMARK    4  A    between atoms: C12_15  and  C13_16 
ROOT
HETATM    1  C7  UNL     1      26.163   0.360  54.068  1.00  0.00     0.322 A 
HETATM    2  C8  UNL     1      25.430  -0.953  54.038  1.00  0.00     0.352 A 
HETATM    3  C9  UNL     1      24.108  -0.491  53.426  1.00  0.00     0.328 A 
HETATM    4  N1  UNL     1      23.251   0.430  52.907  1.00  0.00    -0.222 NA
HETATM    5  C10 UNL     1      23.937   1.601  52.943  1.00  0.00     0.173 A 
HETATM    6  N2  UNL     1      25.134   1.261  53.479  1.00  0.00    -0.047 NA
HETATM    7  N3  UNL     1      25.267   0.019  53.779  1.00  0.00     0.064 N 
ENDROOT
BRANCH   5   8
HETATM    8  S1  UNL     1      24.161   3.359  52.691  1.00  0.00    -0.069 SA
BRANCH   8   9
HETATM    9  C11 UNL     1      23.747   3.911  51.080  1.00  0.00     0.054 C 
HETATM   10  C12 UNL     1      23.935   4.417  49.899  1.00  0.00     0.018 C 
BRANCH  10  11
HETATM   11  C13 UNL     1      25.215   4.872  49.412  1.00  0.00    -0.036 A 
HETATM   12  C14 UNL     1      26.300   4.003  49.411  1.00  0.00     0.013 A 
HETATM   13  C15 UNL     1      27.542   4.380  48.959  1.00  0.00     0.024 A 
HETATM   14  C16 UNL     1      27.722   5.673  48.486  1.00  0.00     0.034 A 
HETATM   15 CL1  UNL     1      29.301   6.166  47.906  1.00  0.00    -0.084 Cl
HETATM   16  C17 UNL     1      26.667   6.554  48.475  1.00  0.00     0.024 A 
HETATM   17  C18 UNL     1      25.415   6.151  48.939  1.00  0.00     0.013 A 
ENDBRANCH  10  11
ENDBRANCH   8   9
ENDBRANCH   5   8
BRANCH   1  18
HETATM   18  C6  UNL     1      27.344   0.246  53.130  1.00  0.00     0.124 A 
HETATM   19  C2  UNL     1      28.522   1.017  53.517  1.00  0.00    -0.070 A 
HETATM   20  C1  UNL     1      28.641   2.482  53.705  1.00  0.00     0.044 C 
HETATM   21  C3  UNL     1      29.520   0.130  53.680  1.00  0.00     0.006 A 
HETATM   22  C4  UNL     1      29.101  -1.253  53.422  1.00  0.00     0.039 A 
HETATM   23  C5  UNL     1      27.809  -1.140  53.100  1.00  0.00     0.105 A 
HETATM   24  F1  UNL     1      27.243  -2.362  52.822  1.00  0.00    -0.210 F 
ENDBRANCH   1  18
TORSDOF 4
ENDMDL
MODEL 2
REMARK VINA RESULT:      -8.9      3.513      6.902
REMARK  4 active torsions:
REMARK  status: ('A' for Active; 'I' for Inactive)
REMARK    1  A    between atoms: C6_7  and  C7_8 
REMARK    2  A    between atoms: C10_12  and  S1_13 
REMARK    3  A    between atoms: S1_13  and  C11_14 
REMARK    4  A    between atoms: C12_15  and  C13_16 
ROOT
HETATM    1  C7  UNL     1      24.049   5.181  49.809  1.00  0.00     0.322 A 
HETATM    2  C8  UNL     1      23.301   6.308  50.468  1.00  0.00     0.352 A 
HETATM    3  C9  UNL     1      22.521   5.515  51.516  1.00  0.00     0.328 A 
HETATM    4  N1  UNL     1      22.139   4.381  52.164  1.00  0.00    -0.222 NA
HETATM    5  C10 UNL     1      22.828   3.383  51.553  1.00  0.00     0.173 A 
HETATM    6  N2  UNL     1      23.552   4.024  50.602  1.00  0.00    -0.047 NA
HETATM    7  N3  UNL     1      23.390   5.296  50.554  1.00  0.00     0.064 N 
ENDROOT
BRANCH   5   8
HETATM    8  S1  UNL     1      23.325   1.686  51.278  1.00  0.00    -0.069 SA
BRANCH   8   9
HETATM    9  C11 UNL     1      23.518   0.748  52.746  1.00  0.00     0.054 C 
HETATM   10  C12 UNL     1      24.137   0.087  53.675  1.00  0.00     0.018 C 
BRANCH  10  11
HETATM   11  C13 UNL     1      25.565  -0.123  53.700  1.00  0.00    -0.036 A 
HETATM   12  C14 UNL     1      26.165  -0.882  52.702  1.00  0.00     0.013 A 
HETATM   13  C15 UNL     1      27.520  -1.116  52.674  1.00  0.00     0.024 A 
HETATM   14  C16 UNL     1      28.317  -0.577  53.674  1.00  0.00     0.034 A 
HETATM   15 CL1  UNL     1      30.046  -0.867  53.648  1.00  0.00    -0.084 Cl
HETATM   16  C17 UNL     1      27.751   0.179  54.673  1.00  0.00     0.024 A 
HETATM   17  C18 UNL     1      26.373   0.403  54.683  1.00  0.00     0.013 A 
ENDBRANCH  10  11
ENDBRANCH   8   9
ENDBRANCH   5   8
BRANCH   1  18
HETATM   18  C6  UNL     1      25.523   5.394  50.075  1.00  0.00     0.124 A 
HETATM   19  C2  UNL     1      26.408   4.382  49.505  1.00  0.00    -0.070 A 
HETATM   20  C1  UNL     1      26.432   2.925  49.771  1.00  0.00     0.044 C 
HETATM   21  C3  UNL     1      27.233   5.031  48.662  1.00  0.00     0.006 A 
HETATM   22  C4  UNL     1      26.970   6.474  48.607  1.00  0.00     0.039 A 
HETATM   23  C5  UNL     1      25.953   6.647  49.456  1.00  0.00     0.105 A 
HETATM   24  F1  UNL     1      25.567   7.965  49.532  1.00  0.00    -0.210 F 
ENDBRANCH   1  18
TORSDOF 4
ENDMDL
MODEL 3
REMARK VINA RESULT:      -8.8      2.224      4.029
REMARK  4 active torsions:
REMARK  status: ('A' for Active; 'I' for Inactive)
REMARK    1  A    between atoms: C6_7  and  C7_8 
REMARK    2  A    between atoms: C10_12  and  S1_13 
REMARK    3  A    between atoms: S1_13  and  C11_14 
REMARK    4  A    between atoms: C12_15  and  C13_16 
ROOT
HETATM    1  C7  UNL     1      24.307  -0.345  53.620  1.00  0.00     0.322 A 
HETATM    2  C8  UNL     1      25.218  -0.774  54.738  1.00  0.00     0.352 A 
HETATM    3  C9  UNL     1      26.204   0.394  54.723  1.00  0.00     0.328 A 
HETATM    4  N1  UNL     1      26.700   1.576  54.267  1.00  0.00    -0.222 NA
HETATM    5  C10 UNL     1      25.861   1.941  53.264  1.00  0.00     0.173 A 
HETATM    6  N2  UNL     1      24.949   0.939  53.223  1.00  0.00    -0.047 NA
HETATM    7  N3  UNL     1      25.126   0.000  54.081  1.00  0.00     0.064 N 
ENDROOT
BRANCH   5   8
HETATM    8  S1  UNL     1      25.271   2.996  51.945  1.00  0.00    -0.069 SA
BRANCH   8   9
HETATM    9  C11 UNL     1      26.186   2.863  50.455  1.00  0.00     0.054 C 
HETATM   10  C12 UNL     1      26.793   3.262  49.380  1.00  0.00     0.018 C 
BRANCH  10  11
HETATM   11  C13 UNL     1      26.888   4.644  48.974  1.00  0.00    -0.036 A 
HETATM   12  C14 UNL     1      28.097   5.138  48.498  1.00  0.00     0.013 A 
HETATM   13  C15 UNL     1      28.247   6.445  48.096  1.00  0.00     0.024 A 
HETATM   14  C16 UNL     1      27.157   7.300  48.168  1.00  0.00     0.034 A 
HETATM   15 CL1  UNL     1      27.336   8.969  47.658  1.00  0.00    -0.084 Cl
HETATM   16  C17 UNL     1      25.949   6.839  48.634  1.00  0.00     0.024 A 
HETATM   17  C18 UNL     1      25.818   5.509  49.036  1.00  0.00     0.013 A 
ENDBRANCH  10  11
ENDBRANCH   8   9
ENDBRANCH   5   8
BRANCH   1  18
HETATM   18  C6  UNL     1      22.944  -0.075  54.218  1.00  0.00     0.124 A 
HETATM   19  C2  UNL     1      21.921   0.351  53.267  1.00  0.00    -0.070 A 
HETATM   20  C1  UNL     1      21.921   1.546  52.390  1.00  0.00     0.044 C 
HETATM   21  C3  UNL     1      20.939  -0.566  53.328  1.00  0.00     0.006 A 
HETATM   22  C4  UNL     1      21.221  -1.638  54.291  1.00  0.00     0.039 A 
HETATM   23  C5  UNL     1      22.414  -1.310  54.795  1.00  0.00     0.105 A 
HETATM   24  F1  UNL     1      22.842  -2.221  55.732  1.00  0.00    -0.210 F 
ENDBRANCH   1  18
TORSDOF 4
ENDMDL
MODEL 4
REMARK VINA RESULT:      -8.5      1.776      2.345
REMARK  4 active torsions:
REMARK  status: ('A' for Active; 'I' for Inactive)
REMARK    1  A    between atoms: C6_7  and  C7_8 
REMARK    2  A    between atoms: C10_12  and  S1_13 
REMARK    3  A    between atoms: S1_13  and  C11_14 
REMARK    4  A    between atoms: C12_15  and  C13_16 
ROOT
HETATM    1  C7  UNL     1      23.665   0.950  53.133  1.00  0.00     0.322 A 
HETATM    2  C8  UNL     1      22.556   0.008  53.517  1.00  0.00     0.352 A 
HETATM    3  C9  UNL     1      21.708   0.085  52.248  1.00  0.00     0.328 A 
HETATM    4  N1  UNL     1      21.411   0.524  50.995  1.00  0.00    -0.222 NA
HETATM    5  C10 UNL     1      22.426   1.367  50.672  1.00  0.00     0.173 A 
HETATM    6  N2  UNL     1      23.226   1.345  51.766  1.00  0.00    -0.047 NA
HETATM    7  N3  UNL     1      22.825   0.589  52.724  1.00  0.00     0.064 N 
ENDROOT
BRANCH   5   8
HETATM    8  S1  UNL     1      23.314   2.510  49.620  1.00  0.00    -0.069 SA
BRANCH   8   9
HETATM    9  C11 UNL     1      23.764   4.009  50.409  1.00  0.00     0.054 C 
HETATM   10  C12 UNL     1      24.451   5.087  50.636  1.00  0.00     0.018 C 
BRANCH  10  11
HETATM   11  C13 UNL     1      25.609   5.480  49.870  1.00  0.00    -0.036 A 
HETATM   12  C14 UNL     1      26.466   4.507  49.370  1.00  0.00     0.013 A 
HETATM   13  C15 UNL     1      27.584   4.822  48.634  1.00  0.00     0.024 A 
HETATM   14  C16 UNL     1      27.869   6.157  48.381  1.00  0.00     0.034 A 
HETATM   15 CL1  UNL     1      29.291   6.571  47.443  1.00  0.00    -0.084 Cl
HETATM   16  C17 UNL     1      27.039   7.141  48.862  1.00  0.00     0.024 A 
HETATM   17  C18 UNL     1      25.910   6.799  49.607  1.00  0.00     0.013 A 
ENDBRANCH  10  11
ENDBRANCH   8   9
ENDBRANCH   5   8
BRANCH   1  18
HETATM   18  C6  UNL     1      24.941   0.143  53.051  1.00  0.00     0.124 A 
HETATM   19  C2  UNL     1      26.137   0.906  52.704  1.00  0.00    -0.070 A 
HETATM   20  C1  UNL     1      26.400   1.699  51.480  1.00  0.00     0.044 C 
HETATM   21  C3  UNL     1      26.993   0.757  53.731  1.00  0.00     0.006 A 
HETATM   22  C4  UNL     1      26.454  -0.087  54.804  1.00  0.00     0.039 A 
HETATM   23  C5  UNL     1      25.240  -0.430  54.362  1.00  0.00     0.105 A 
HETATM   24  F1  UNL     1      24.579  -1.236  55.258  1.00  0.00    -0.210 F 
ENDBRANCH   1  18
TORSDOF 4
ENDMDL
MODEL 5
REMARK VINA RESULT:      -8.5      2.011      3.928
REMARK  4 active torsions:
REMARK  status: ('A' for Active; 'I' for Inactive)
REMARK    1  A    between atoms: C6_7  and  C7_8 
REMARK    2  A    between atoms: C10_12  and  S1_13 
REMARK    3  A    between atoms: S1_13  and  C11_14 
REMARK    4  A    between atoms: C12_15  and  C13_16 
ROOT
HETATM    1  C7  UNL     1      25.518   0.224  52.604  1.00  0.00     0.322 A 
HETATM    2  C8  UNL     1      26.534   0.284  53.713  1.00  0.00     0.352 A 
HETATM    3  C9  UNL     1      27.389   1.447  53.210  1.00  0.00     0.328 A 
HETATM    4  N1  UNL     1      27.729   2.432  52.336  1.00  0.00    -0.222 NA
HETATM    5  C10 UNL     1      26.798   2.358  51.350  1.00  0.00     0.173 A 
HETATM    6  N2  UNL     1      25.996   1.336  51.737  1.00  0.00    -0.047 NA
HETATM    7  N3  UNL     1      26.322   0.771  52.843  1.00  0.00     0.064 N 
ENDROOT
BRANCH   5   8
HETATM    8  S1  UNL     1      26.023   2.840  49.811  1.00  0.00    -0.069 SA
BRANCH   8   9
HETATM    9  C11 UNL     1      25.781   4.567  49.639  1.00  0.00     0.054 C 
HETATM   10  C12 UNL     1      26.044   5.786  49.279  1.00  0.00     0.018 C 
BRANCH  10  11
HETATM   11  C13 UNL     1      27.232   6.175  48.557  1.00  0.00    -0.036 A 
HETATM   12  C14 UNL     1      27.240   7.361  47.833  1.00  0.00     0.013 A 
HETATM   13  C15 UNL     1      28.342   7.782  47.127  1.00  0.00     0.024 A 
HETATM   14  C16 UNL     1      29.487   6.998  47.136  1.00  0.00     0.034 A 
HETATM   15 CL1  UNL     1      30.899   7.525  46.241  1.00  0.00    -0.084 Cl
HETATM   16  C17 UNL     1      29.509   5.820  47.845  1.00  0.00     0.024 A 
HETATM   17  C18 UNL     1      28.379   5.411  48.554  1.00  0.00     0.013 A 
ENDBRANCH  10  11
ENDBRANCH   8   9
ENDBRANCH   5   8
BRANCH   1  18
HETATM   18  C6  UNL     1      24.172   0.576  53.198  1.00  0.00     0.124 A 
HETATM   19  C2  UNL     1      23.083   0.705  52.235  1.00  0.00    -0.070 A 
HETATM   20  C1  UNL     1      22.972   1.638  51.089  1.00  0.00     0.044 C 
HETATM   21  C3  UNL     1      22.159  -0.210  52.582  1.00  0.00     0.006 A 
HETATM   22  C4  UNL     1      22.547  -0.990  53.764  1.00  0.00     0.039 A 
HETATM   23  C5  UNL     1      23.742  -0.494  54.096  1.00  0.00     0.105 A 
HETATM   24  F1  UNL     1      24.266  -1.120  55.203  1.00  0.00    -0.210 F 
ENDBRANCH   1  18
TORSDOF 4
ENDMDL
MODEL 6
REMARK VINA RESULT:      -8.3      3.742      6.133
REMARK  4 active torsions:
REMARK  status: ('A' for Active; 'I' for Inactive)
REMARK    1  A    between atoms: C6_7  and  C7_8 
REMARK    2  A    between atoms: C10_12  and  S1_13 
REMARK    3  A    between atoms: S1_13  and  C11_14 
REMARK    4  A    between atoms: C12_15  and  C13_16 
ROOT
HETATM    1  C7  UNL     1      20.518   1.803  52.926  1.00  0.00     0.322 A 
HETATM    2  C8  UNL     1      19.321   2.021  52.041  1.00  0.00     0.352 A 
HETATM    3  C9  UNL     1      19.889   3.086  51.104  1.00  0.00     0.328 A 
HETATM    4  N1  UNL     1      20.856   3.924  50.641  1.00  0.00    -0.222 NA
HETATM    5  C10 UNL     1      21.923   3.706  51.452  1.00  0.00     0.173 A 
HETATM    6  N2  UNL     1      21.484   2.759  52.317  1.00  0.00    -0.047 NA
HETATM    7  N3  UNL     1      20.275   2.368  52.136  1.00  0.00     0.064 N 
ENDROOT
BRANCH   5   8
HETATM    8  S1  UNL     1      23.592   3.965  52.043  1.00  0.00    -0.069 SA
BRANCH   8   9
HETATM    9  C11 UNL     1      24.834   3.306  50.996  1.00  0.00     0.054 C 
HETATM   10  C12 UNL     1      25.882   2.616  50.663  1.00  0.00     0.018 C 
BRANCH  10  11
HETATM   11  C13 UNL     1      26.654   1.825  51.592  1.00  0.00    -0.036 A 
HETATM   12  C14 UNL     1      27.526   2.455  52.472  1.00  0.00     0.013 A 
HETATM   13  C15 UNL     1      28.286   1.753  53.378  1.00  0.00     0.024 A 
HETATM   14  C16 UNL     1      28.181   0.370  53.417  1.00  0.00     0.034 A 
HETATM   15 CL1  UNL     1      29.145  -0.535  54.569  1.00  0.00    -0.084 Cl
HETATM   16  C17 UNL     1      27.326  -0.279  52.559  1.00  0.00     0.024 A 
HETATM   17  C18 UNL     1      26.564   0.451  51.647  1.00  0.00     0.013 A 
ENDBRANCH  10  11
ENDBRANCH   8   9
ENDBRANCH   5   8
BRANCH   1  18
HETATM   18  C6  UNL     1      20.994   0.384  52.710  1.00  0.00     0.124 A 
HETATM   19  C2  UNL     1      22.207   0.018  53.435  1.00  0.00    -0.070 A 
HETATM   20  C1  UNL     1      23.555   0.627  53.340  1.00  0.00     0.044 C 
HETATM   21  C3  UNL     1      21.876  -1.009  54.238  1.00  0.00     0.006 A 
HETATM   22  C4  UNL     1      20.465  -1.396  54.114  1.00  0.00     0.039 A 
HETATM   23  C5  UNL     1      19.980  -0.548  53.201  1.00  0.00     0.105 A 
HETATM   24  F1  UNL     1      18.645  -0.770  52.956  1.00  0.00    -0.210 F 
ENDBRANCH   1  18
TORSDOF 4
ENDMDL
MODEL 7
REMARK VINA RESULT:      -8.3      3.982      7.117
REMARK  4 active torsions:
REMARK  status: ('A' for Active; 'I' for Inactive)
REMARK    1  A    between atoms: C6_7  and  C7_8 
REMARK    2  A    between atoms: C10_12  and  S1_13 
REMARK    3  A    between atoms: S1_13  and  C11_14 
REMARK    4  A    between atoms: C12_15  and  C13_16 
ROOT
HETATM    1  C7  UNL     1      24.415   5.505  48.880  1.00  0.00     0.322 A 
HETATM    2  C8  UNL     1      23.821   6.859  48.607  1.00  0.00     0.352 A 
HETATM    3  C9  UNL     1      22.687   6.849  49.632  1.00  0.00     0.328 A 
HETATM    4  N1  UNL     1      21.939   6.304  50.629  1.00  0.00    -0.222 NA
HETATM    5  C10 UNL     1      22.496   5.087  50.857  1.00  0.00     0.173 A 
HETATM    6  N2  UNL     1      23.522   5.030  49.972  1.00  0.00    -0.047 NA
HETATM    7  N3  UNL     1      23.662   6.066  49.227  1.00  0.00     0.064 N 
ENDROOT
BRANCH   5   8
HETATM    8  S1  UNL     1      22.646   3.496  51.660  1.00  0.00    -0.069 SA
BRANCH   8   9
HETATM    9  C11 UNL     1      23.926   3.413  52.856  1.00  0.00     0.054 C 
HETATM   10  C12 UNL     1      24.914   2.901  53.522  1.00  0.00     0.018 C 
BRANCH  10  11
HETATM   11  C13 UNL     1      25.448   1.581  53.285  1.00  0.00    -0.036 A 
HETATM   12  C14 UNL     1      26.809   1.421  53.053  1.00  0.00     0.013 A 
HETATM   13  C15 UNL     1      27.373   0.188  52.822  1.00  0.00     0.024 A 
HETATM   14  C16 UNL     1      26.558  -0.935  52.820  1.00  0.00     0.034 A 
HETATM   15 CL1  UNL     1      27.266  -2.513  52.527  1.00  0.00    -0.084 Cl
HETATM   16  C17 UNL     1      25.209  -0.807  53.048  1.00  0.00     0.024 A 
HETATM   17  C18 UNL     1      24.656   0.453  53.280  1.00  0.00     0.013 A 
ENDBRANCH  10  11
ENDBRANCH   8   9
ENDBRANCH   5   8
BRANCH   1  18
HETATM   18  C6  UNL     1      25.814   5.718  49.415  1.00  0.00     0.124 A 
HETATM   19  C2  UNL     1      26.687   4.550  49.353  1.00  0.00    -0.070 A 
HETATM   20  C1  UNL     1      26.500   3.226  49.992  1.00  0.00     0.044 C 
HETATM   21  C3  UNL     1      27.735   4.899  48.584  1.00  0.00     0.006 A 
HETATM   22  C4  UNL     1      27.644   6.279  48.091  1.00  0.00     0.039 A 
HETATM   23  C5  UNL     1      26.495   6.727  48.605  1.00  0.00     0.105 A 
HETATM   24  F1  UNL     1      26.245   8.029  48.239  1.00  0.00    -0.210 F 
ENDBRANCH   1  18
TORSDOF 4
ENDMDL
MODEL 8
REMARK VINA RESULT:      -8.3      4.313      7.413
REMARK  4 active torsions:
REMARK  status: ('A' for Active; 'I' for Inactive)
REMARK    1  A    between atoms: C6_7  and  C7_8 
REMARK    2  A    between atoms: C10_12  and  S1_13 
REMARK    3  A    between atoms: S1_13  and  C11_14 
REMARK    4  A    between atoms: C12_15  and  C13_16 
ROOT
HETATM    1  C7  UNL     1      20.059   1.874  52.739  1.00  0.00     0.322 A 
HETATM    2  C8  UNL     1      19.226   2.614  51.729  1.00  0.00     0.352 A 
HETATM    3  C9  UNL     1      20.320   3.441  51.056  1.00  0.00     0.328 A 
HETATM    4  N1  UNL     1      21.599   3.867  50.872  1.00  0.00    -0.222 NA
HETATM    5  C10 UNL     1      22.328   3.185  51.791  1.00  0.00     0.173 A 
HETATM    6  N2  UNL     1      21.410   2.420  52.430  1.00  0.00    -0.047 NA
HETATM    7  N3  UNL     1      20.202   2.550  52.015  1.00  0.00     0.064 N 
ENDROOT
BRANCH   5   8
HETATM    8  S1  UNL     1      23.824   2.719  52.655  1.00  0.00    -0.069 SA
BRANCH   8   9
HETATM    9  C11 UNL     1      23.878   1.036  53.142  1.00  0.00     0.054 C 
HETATM   10  C12 UNL     1      24.408  -0.102  53.469  1.00  0.00     0.018 C 
BRANCH  10  11
HETATM   11  C13 UNL     1      25.830  -0.341  53.531  1.00  0.00    -0.036 A 
HETATM   12  C14 UNL     1      26.609   0.373  54.433  1.00  0.00     0.013 A 
HETATM   13  C15 UNL     1      27.967   0.188  54.537  1.00  0.00     0.024 A 
HETATM   14  C16 UNL     1      28.584  -0.744  53.713  1.00  0.00     0.034 A 
HETATM   15 CL1  UNL     1      30.315  -0.990  53.837  1.00  0.00    -0.084 Cl
HETATM   16  C17 UNL     1      27.838  -1.466  52.812  1.00  0.00     0.024 A 
HETATM   17  C18 UNL     1      26.461  -1.262  52.723  1.00  0.00     0.013 A 
ENDBRANCH  10  11
ENDBRANCH   8   9
ENDBRANCH   5   8
BRANCH   1  18
HETATM   18  C6  UNL     1      20.006   0.403  52.388  1.00  0.00     0.124 A 
HETATM   19  C2  UNL     1      20.015  -0.509  53.528  1.00  0.00    -0.070 A 
HETATM   20  C1  UNL     1      21.050  -0.660  54.577  1.00  0.00     0.044 C 
HETATM   21  C3  UNL     1      18.873  -1.217  53.456  1.00  0.00     0.006 A 
HETATM   22  C4  UNL     1      18.044  -0.846  52.303  1.00  0.00     0.039 A 
HETATM   23  C5  UNL     1      18.749   0.114  51.698  1.00  0.00     0.105 A 
HETATM   24  F1  UNL     1      18.111   0.588  50.576  1.00  0.00    -0.210 F 
ENDBRANCH   1  18
TORSDOF 4
ENDMDL
MODEL 9
REMARK VINA RESULT:      -8.3      4.081      6.482
REMARK  4 active torsions:
REMARK  status: ('A' for Active; 'I' for Inactive)
REMARK    1  A    between atoms: C6_7  and  C7_8 
REMARK    2  A    between atoms: C10_12  and  S1_13 
REMARK    3  A    between atoms: S1_13  and  C11_14 
REMARK    4  A    between atoms: C12_15  and  C13_16 
ROOT
HETATM    1  C7  UNL     1      20.417   2.449  52.622  1.00  0.00     0.322 A 
HETATM    2  C8  UNL     1      19.165   2.823  51.875  1.00  0.00     0.352 A 
HETATM    3  C9  UNL     1      19.790   3.505  50.659  1.00  0.00     0.328 A 
HETATM    4  N1  UNL     1      20.828   3.950  49.899  1.00  0.00    -0.222 NA
HETATM    5  C10 UNL     1      21.942   3.598  50.592  1.00  0.00     0.173 A 
HETATM    6  N2  UNL     1      21.455   2.979  51.695  1.00  0.00    -0.047 NA
HETATM    7  N3  UNL     1      20.175   2.908  51.765  1.00  0.00     0.064 N 
ENDROOT
BRANCH   5   8
HETATM    8  S1  UNL     1      23.703   3.492  50.887  1.00  0.00    -0.069 SA
BRANCH   8   9
HETATM    9  C11 UNL     1      24.132   3.142  52.550  1.00  0.00     0.054 C 
HETATM   10  C12 UNL     1      24.730   2.545  53.535  1.00  0.00     0.018 C 
BRANCH  10  11
HETATM   11  C13 UNL     1      25.670   1.463  53.371  1.00  0.00    -0.036 A 
HETATM   12  C14 UNL     1      26.494   1.101  54.430  1.00  0.00     0.013 A 
HETATM   13  C15 UNL     1      27.408   0.078  54.332  1.00  0.00     0.024 A 
HETATM   14  C16 UNL     1      27.513  -0.618  53.136  1.00  0.00     0.034 A 
HETATM   15 CL1  UNL     1      28.674  -1.925  52.999  1.00  0.00    -0.084 Cl
HETATM   16  C17 UNL     1      26.710  -0.282  52.072  1.00  0.00     0.024 A 
HETATM   17  C18 UNL     1      25.790   0.759  52.193  1.00  0.00     0.013 A 
ENDBRANCH  10  11
ENDBRANCH   8   9
ENDBRANCH   5   8
BRANCH   1  18
HETATM   18  C6  UNL     1      20.489   0.939  52.666  1.00  0.00     0.124 A 
HETATM   19  C2  UNL     1      21.432   0.334  51.731  1.00  0.00    -0.070 A 
HETATM   20  C1  UNL     1      21.449   0.426  50.252  1.00  0.00     0.044 C 
HETATM   21  C3  UNL     1      22.321  -0.349  52.476  1.00  0.00     0.006 A 
HETATM   22  C4  UNL     1      22.047  -0.256  53.915  1.00  0.00     0.039 A 
HETATM   23  C5  UNL     1      20.956   0.513  53.984  1.00  0.00     0.105 A 
HETATM   24  F1  UNL     1      20.550   0.709  55.283  1.00  0.00    -0.210 F 
ENDBRANCH   1  18
TORSDOF 4
ENDMDL
