MODEL 1
REMARK VINA RESULT:      -7.9      0.000      0.000
REMARK  5 active torsions:
REMARK  status: ('A' for Active; 'I' for Inactive)
REMARK    1  A    between atoms: S1_2  and  C2_4 
REMARK       I    between atoms: C2_4  and  N1_6 
REMARK    2  A    between atoms: N1_6  and  C3_7 
REMARK    3  A    between atoms: C4_8  and  C5_9 
REMARK    4  A    between atoms: C9_14  and  N3_15 
REMARK    5  A    between atoms: N3_15  and  C10_16 
ROOT
HETATM    1  C5  UNL     1      27.600   1.855  52.998  1.00  0.00     0.009 A 
HETATM    2  C6  UNL     1      28.690   2.117  53.799  1.00  0.00     0.130 A 
HETATM    3  N2  UNL     1      29.070   1.252  54.723  1.00  0.00    -0.272 NA
HETATM    4  C7  UNL     1      28.416   0.108  54.907  1.00  0.00     0.118 A 
HETATM    5  C8  UNL     1      27.319  -0.204  54.133  1.00  0.00     0.049 A 
HETATM    6  C9  UNL     1      26.883   0.688  53.139  1.00  0.00     0.045 A 
ENDROOT
BRANCH   6   7
HETATM    7  N3  UNL     1      25.760   0.105  52.513  1.00  0.00    -0.355 N 
HETATM    8  H9  UNL     1      25.966  -0.582  51.730  1.00  0.00     0.166 HD
BRANCH   7   9
HETATM    9  C10 UNL     1      24.386   0.325  52.802  1.00  0.00     0.034 A 
HETATM   10  C11 UNL     1      23.710   1.479  52.467  1.00  0.00     0.032 A 
HETATM   11  C12 UNL     1      22.395   1.724  52.730  1.00  0.00     0.046 A 
HETATM   12  C13 UNL     1      21.649   0.764  53.381  1.00  0.00     0.138 A 
HETATM   13  F1  UNL     1      20.350   0.998  53.644  1.00  0.00    -0.204 F 
HETATM   14  C14 UNL     1      22.297  -0.400  53.730  1.00  0.00     0.074 A 
HETATM   15 CL1  UNL     1      21.408  -1.668  54.563  1.00  0.00    -0.081 Cl
HETATM   16  C15 UNL     1      23.628  -0.623  53.452  1.00  0.00     0.056 A 
ENDBRANCH   7   9
ENDBRANCH   6   7
BRANCH   1  17
HETATM   17  C4  UNL     1      27.060   2.713  51.972  1.00  0.00     0.032 C 
HETATM   18  C3  UNL     1      26.689   2.890  50.747  1.00  0.00     0.092 C 
BRANCH  18  19
HETATM   19  N1  UNL     1      26.156   4.054  50.127  1.00  0.00    -0.328 N 
HETATM   20  C2  UNL     1      26.738   4.886  49.139  1.00  0.00     0.287 C 
HETATM   21  O1  UNL     1      27.874   4.586  48.729  1.00  0.00    -0.260 OA
HETATM   22  H3  UNL     1      25.201   4.240  50.520  1.00  0.00     0.169 HD
BRANCH  20  23
HETATM   23  S1  UNL     1      25.821   6.307  48.543  1.00  0.00    -0.043 SA
HETATM   24  C1  UNL     1      24.266   5.915  48.673  1.00  0.00     0.074 C 
HETATM   25 BR1  UNL     1      26.210   8.007  49.981  1.00  0.00    -0.009 Br
ENDBRANCH  20  23
ENDBRANCH  18  19
ENDBRANCH   1  17
TORSDOF 5
ENDMDL
MODEL 2
REMARK VINA RESULT:      -7.8      1.154      1.500
REMARK  5 active torsions:
REMARK  status: ('A' for Active; 'I' for Inactive)
REMARK    1  A    between atoms: S1_2  and  C2_4 
REMARK       I    between atoms: C2_4  and  N1_6 
REMARK    2  A    between atoms: N1_6  and  C3_7 
REMARK    3  A    between atoms: C4_8  and  C5_9 
REMARK    4  A    between atoms: C9_14  and  N3_15 
REMARK    5  A    between atoms: N3_15  and  C10_16 
ROOT
HETATM    1  C5  UNL     1      27.490   1.842  52.962  1.00  0.00     0.009 A 
HETATM    2  C6  UNL     1      28.622   2.189  53.667  1.00  0.00     0.130 A 
HETATM    3  N2  UNL     1      29.123   1.376  54.581  1.00  0.00    -0.272 NA
HETATM    4  C7  UNL     1      28.552   0.203  54.846  1.00  0.00     0.118 A 
HETATM    5  C8  UNL     1      27.419  -0.194  54.170  1.00  0.00     0.049 A 
HETATM    6  C9  UNL     1      26.856   0.640  53.191  1.00  0.00     0.045 A 
ENDROOT
BRANCH   6   7
HETATM    7  N3  UNL     1      25.724  -0.024  52.671  1.00  0.00    -0.355 N 
HETATM    8  H9  UNL     1      25.901  -0.681  51.856  1.00  0.00     0.166 HD
BRANCH   7   9
HETATM    9  C10 UNL     1      24.374   0.078  53.106  1.00  0.00     0.034 A 
HETATM   10  C11 UNL     1      23.800  -0.780  54.019  1.00  0.00     0.032 A 
HETATM   11  C12 UNL     1      22.511  -0.713  54.457  1.00  0.00     0.046 A 
HETATM   12  C13 UNL     1      21.685   0.280  53.971  1.00  0.00     0.138 A 
HETATM   13  F1  UNL     1      20.412   0.353  54.398  1.00  0.00    -0.204 F 
HETATM   14  C14 UNL     1      22.231   1.153  53.056  1.00  0.00     0.074 A 
HETATM   15 CL1  UNL     1      21.238   2.443  52.392  1.00  0.00    -0.081 Cl
HETATM   16  C15 UNL     1      23.538   1.063  52.630  1.00  0.00     0.056 A 
ENDBRANCH   7   9
ENDBRANCH   6   7
BRANCH   1  17
HETATM   17  C4  UNL     1      26.824   2.635  51.960  1.00  0.00     0.032 C 
HETATM   18  C3  UNL     1      26.482   2.818  50.727  1.00  0.00     0.092 C 
BRANCH  18  19
HETATM   19  N1  UNL     1      25.734   3.880  50.149  1.00  0.00    -0.328 N 
HETATM   20  C2  UNL     1      26.152   4.867  49.222  1.00  0.00     0.287 C 
HETATM   21  O1  UNL     1      27.335   4.828  48.833  1.00  0.00    -0.260 OA
HETATM   22  H3  UNL     1      24.753   3.846  50.519  1.00  0.00     0.169 HD
BRANCH  20  23
HETATM   23  S1  UNL     1      24.975   6.101  48.667  1.00  0.00    -0.043 SA
HETATM   24  C1  UNL     1      23.582   5.321  48.464  1.00  0.00     0.074 C 
HETATM   25 BR1  UNL     1      24.686   7.563  50.367  1.00  0.00    -0.009 Br
ENDBRANCH  20  23
ENDBRANCH  18  19
ENDBRANCH   1  17
TORSDOF 5
ENDMDL
MODEL 3
REMARK VINA RESULT:      -7.7      3.385      5.279
REMARK  5 active torsions:
REMARK  status: ('A' for Active; 'I' for Inactive)
REMARK    1  A    between atoms: S1_2  and  C2_4 
REMARK       I    between atoms: C2_4  and  N1_6 
REMARK    2  A    between atoms: N1_6  and  C3_7 
REMARK    3  A    between atoms: C4_8  and  C5_9 
REMARK    4  A    between atoms: C9_14  and  N3_15 
REMARK    5  A    between atoms: N3_15  and  C10_16 
ROOT
HETATM    1  C5  UNL     1      24.982   3.428  49.958  1.00  0.00     0.009 A 
HETATM    2  C6  UNL     1      23.826   3.149  49.264  1.00  0.00     0.130 A 
HETATM    3  N2  UNL     1      22.928   2.314  49.760  1.00  0.00    -0.272 NA
HETATM    4  C7  UNL     1      23.113   1.722  50.937  1.00  0.00     0.118 A 
HETATM    5  C8  UNL     1      24.253   1.967  51.673  1.00  0.00     0.049 A 
HETATM    6  C9  UNL     1      25.230   2.848  51.183  1.00  0.00     0.045 A 
ENDROOT
BRANCH   6   7
HETATM    7  N3  UNL     1      26.265   2.906  52.142  1.00  0.00    -0.355 N 
HETATM    8  H9  UNL     1      26.451   3.860  52.570  1.00  0.00     0.166 HD
BRANCH   7   9
HETATM    9  C10 UNL     1      27.087   1.844  52.607  1.00  0.00     0.034 A 
HETATM   10  C11 UNL     1      28.259   2.036  53.307  1.00  0.00     0.032 A 
HETATM   11  C12 UNL     1      29.072   1.043  53.766  1.00  0.00     0.046 A 
HETATM   12  C13 UNL     1      28.726  -0.272  53.531  1.00  0.00     0.138 A 
HETATM   13  F1  UNL     1      29.522  -1.259  53.981  1.00  0.00    -0.204 F 
HETATM   14  C14 UNL     1      27.560  -0.496  52.834  1.00  0.00     0.074 A 
HETATM   15 CL1  UNL     1      27.056  -2.147  52.497  1.00  0.00    -0.081 Cl
HETATM   16  C15 UNL     1      26.756   0.527  52.380  1.00  0.00     0.056 A 
ENDBRANCH   7   9
ENDBRANCH   6   7
BRANCH   1  17
HETATM   17  C4  UNL     1      26.053   4.295  49.532  1.00  0.00     0.032 C 
HETATM   18  C3  UNL     1      27.237   4.444  49.036  1.00  0.00     0.092 C 
BRANCH  18  19
HETATM   19  N1  UNL     1      27.956   5.642  48.769  1.00  0.00    -0.328 N 
HETATM   20  C2  UNL     1      29.261   5.802  48.241  1.00  0.00     0.287 C 
HETATM   21  O1  UNL     1      29.898   4.771  47.955  1.00  0.00    -0.260 OA
HETATM   22  H3  UNL     1      27.357   6.463  49.031  1.00  0.00     0.169 HD
BRANCH  20  23
HETATM   23  S1  UNL     1      29.917   7.456  48.018  1.00  0.00    -0.043 SA
HETATM   24  C1  UNL     1      31.503   7.278  47.813  1.00  0.00     0.074 C 
HETATM   25 BR1  UNL     1      29.073   8.256  46.079  1.00  0.00    -0.009 Br
ENDBRANCH  20  23
ENDBRANCH  18  19
ENDBRANCH   1  17
TORSDOF 5
ENDMDL
MODEL 4
REMARK VINA RESULT:      -7.6      4.281      6.671
REMARK  5 active torsions:
REMARK  status: ('A' for Active; 'I' for Inactive)
REMARK    1  A    between atoms: S1_2  and  C2_4 
REMARK       I    between atoms: C2_4  and  N1_6 
REMARK    2  A    between atoms: N1_6  and  C3_7 
REMARK    3  A    between atoms: C4_8  and  C5_9 
REMARK    4  A    between atoms: C9_14  and  N3_15 
REMARK    5  A    between atoms: N3_15  and  C10_16 
ROOT
HETATM    1  C5  UNL     1      22.222  -0.329  53.485  1.00  0.00     0.009 A 
HETATM    2  C6  UNL     1      21.160  -0.899  54.153  1.00  0.00     0.130 A 
HETATM    3  N2  UNL     1      19.936  -0.822  53.660  1.00  0.00    -0.272 NA
HETATM    4  C7  UNL     1      19.694  -0.198  52.510  1.00  0.00     0.118 A 
HETATM    5  C8  UNL     1      20.720   0.388  51.801  1.00  0.00     0.049 A 
HETATM    6  C9  UNL     1      22.035   0.329  52.289  1.00  0.00     0.045 A 
ENDROOT
BRANCH   6   7
HETATM    7  N3  UNL     1      22.861   0.999  51.360  1.00  0.00    -0.355 N 
HETATM    8  H9  UNL     1      23.228   0.413  50.555  1.00  0.00     0.166 HD
BRANCH   7   9
HETATM    9  C10 UNL     1      23.260   2.363  51.371  1.00  0.00     0.034 A 
HETATM   10  C11 UNL     1      22.740   3.304  52.234  1.00  0.00     0.032 A 
HETATM   11  C12 UNL     1      23.097   4.619  52.271  1.00  0.00     0.046 A 
HETATM   12  C13 UNL     1      24.053   5.081  51.391  1.00  0.00     0.138 A 
HETATM   13  F1  UNL     1      24.412   6.377  51.421  1.00  0.00    -0.204 F 
HETATM   14  C14 UNL     1      24.592   4.164  50.516  1.00  0.00     0.074 A 
HETATM   15 CL1  UNL     1      25.816   4.683  49.364  1.00  0.00    -0.081 Cl
HETATM   16  C15 UNL     1      24.212   2.840  50.499  1.00  0.00     0.056 A 
ENDBRANCH   7   9
ENDBRANCH   6   7
BRANCH   1  17
HETATM   17  C4  UNL     1      23.599  -0.314  53.913  1.00  0.00     0.032 C 
HETATM   18  C3  UNL     1      24.589  -0.894  54.508  1.00  0.00     0.092 C 
BRANCH  18  19
HETATM   19  N1  UNL     1      25.919  -0.429  54.704  1.00  0.00    -0.328 N 
HETATM   20  C2  UNL     1      27.026  -0.489  53.822  1.00  0.00     0.287 C 
HETATM   21  O1  UNL     1      26.847  -1.013  52.707  1.00  0.00    -0.260 OA
HETATM   22  H3  UNL     1      25.991   0.000  55.659  1.00  0.00     0.169 HD
BRANCH  20  23
HETATM   23  S1  UNL     1      28.602   0.182  54.351  1.00  0.00    -0.043 SA
HETATM   24  C1  UNL     1      29.724  -0.624  53.524  1.00  0.00     0.074 C 
HETATM   25 BR1  UNL     1      28.678   2.335  53.667  1.00  0.00    -0.009 Br
ENDBRANCH  20  23
ENDBRANCH  18  19
ENDBRANCH   1  17
TORSDOF 5
ENDMDL
MODEL 5
REMARK VINA RESULT:      -7.6      3.291      5.061
REMARK  5 active torsions:
REMARK  status: ('A' for Active; 'I' for Inactive)
REMARK    1  A    between atoms: S1_2  and  C2_4 
REMARK       I    between atoms: C2_4  and  N1_6 
REMARK    2  A    between atoms: N1_6  and  C3_7 
REMARK    3  A    between atoms: C4_8  and  C5_9 
REMARK    4  A    between atoms: C9_14  and  N3_15 
REMARK    5  A    between atoms: N3_15  and  C10_16 
ROOT
HETATM    1  C5  UNL     1      22.713   0.872  53.066  1.00  0.00     0.009 A 
HETATM    2  C6  UNL     1      21.542   0.794  53.789  1.00  0.00     0.130 A 
HETATM    3  N2  UNL     1      21.364  -0.164  54.682  1.00  0.00    -0.272 NA
HETATM    4  C7  UNL     1      22.304  -1.078  54.909  1.00  0.00     0.118 A 
HETATM    5  C8  UNL     1      23.494  -1.046  54.215  1.00  0.00     0.049 A 
HETATM    6  C9  UNL     1      23.724  -0.044  53.258  1.00  0.00     0.045 A 
ENDROOT
BRANCH   6   7
HETATM    7  N3  UNL     1      25.013  -0.259  52.723  1.00  0.00    -0.355 N 
HETATM    8  H9  UNL     1      25.068  -0.907  51.885  1.00  0.00     0.166 HD
BRANCH   7   9
HETATM    9  C10 UNL     1      26.247   0.288  53.169  1.00  0.00     0.034 A 
HETATM   10  C11 UNL     1      26.413   1.613  53.518  1.00  0.00     0.032 A 
HETATM   11  C12 UNL     1      27.579   2.171  53.947  1.00  0.00     0.046 A 
HETATM   12  C13 UNL     1      28.705   1.381  54.055  1.00  0.00     0.138 A 
HETATM   13  F1  UNL     1      29.860   1.924  54.479  1.00  0.00    -0.204 F 
HETATM   14  C14 UNL     1      28.570   0.053  53.714  1.00  0.00     0.074 A 
HETATM   15 CL1  UNL     1      29.962  -1.015  53.827  1.00  0.00    -0.081 Cl
HETATM   16  C15 UNL     1      27.378  -0.487  53.282  1.00  0.00     0.056 A 
ENDBRANCH   7   9
ENDBRANCH   6   7
BRANCH   1  17
HETATM   17  C4  UNL     1      23.034   1.842  52.050  1.00  0.00     0.032 C 
HETATM   18  C3  UNL     1      22.870   2.299  50.852  1.00  0.00     0.092 C 
BRANCH  18  19
HETATM   19  N1  UNL     1      23.481   3.420  50.225  1.00  0.00    -0.328 N 
HETATM   20  C2  UNL     1      24.854   3.669  49.980  1.00  0.00     0.287 C 
HETATM   21  O1  UNL     1      25.671   2.805  50.348  1.00  0.00    -0.260 OA
HETATM   22  H3  UNL     1      22.733   4.100  49.941  1.00  0.00     0.169 HD
BRANCH  20  23
HETATM   23  S1  UNL     1      25.334   5.193  49.166  1.00  0.00    -0.043 SA
HETATM   24  C1  UNL     1      25.163   6.354  50.267  1.00  0.00     0.074 C 
HETATM   25 BR1  UNL     1      27.539   5.034  48.692  1.00  0.00    -0.009 Br
ENDBRANCH  20  23
ENDBRANCH  18  19
ENDBRANCH   1  17
TORSDOF 5
ENDMDL
MODEL 6
REMARK VINA RESULT:      -7.5      4.982      6.395
REMARK  5 active torsions:
REMARK  status: ('A' for Active; 'I' for Inactive)
REMARK    1  A    between atoms: S1_2  and  C2_4 
REMARK       I    between atoms: C2_4  and  N1_6 
REMARK    2  A    between atoms: N1_6  and  C3_7 
REMARK    3  A    between atoms: C4_8  and  C5_9 
REMARK    4  A    between atoms: C9_14  and  N3_15 
REMARK    5  A    between atoms: N3_15  and  C10_16 
ROOT
HETATM    1  C5  UNL     1      26.142   0.433  53.906  1.00  0.00     0.009 A 
HETATM    2  C6  UNL     1      26.840   0.193  55.069  1.00  0.00     0.130 A 
HETATM    3  N2  UNL     1      28.143   0.413  55.130  1.00  0.00    -0.272 NA
HETATM    4  C7  UNL     1      28.814   0.871  54.076  1.00  0.00     0.118 A 
HETATM    5  C8  UNL     1      28.163   1.128  52.888  1.00  0.00     0.049 A 
HETATM    6  C9  UNL     1      26.780   0.909  52.782  1.00  0.00     0.045 A 
ENDROOT
BRANCH   6   7
HETATM    7  N3  UNL     1      26.396   1.263  51.471  1.00  0.00    -0.355 N 
HETATM    8  H9  UNL     1      26.445   0.489  50.745  1.00  0.00     0.166 HD
BRANCH   7   9
HETATM    9  C10 UNL     1      25.951   2.529  51.002  1.00  0.00     0.034 A 
HETATM   10  C11 UNL     1      26.538   3.204  49.952  1.00  0.00     0.032 A 
HETATM   11  C12 UNL     1      26.140   4.418  49.478  1.00  0.00     0.046 A 
HETATM   12  C13 UNL     1      25.066   5.052  50.068  1.00  0.00     0.138 A 
HETATM   13  F1  UNL     1      24.665   6.250  49.606  1.00  0.00    -0.204 F 
HETATM   14  C14 UNL     1      24.458   4.401  51.119  1.00  0.00     0.074 A 
HETATM   15 CL1  UNL     1      23.083   5.149  51.921  1.00  0.00    -0.081 Cl
HETATM   16  C15 UNL     1      24.881   3.174  51.580  1.00  0.00     0.056 A 
ENDBRANCH   7   9
ENDBRANCH   6   7
BRANCH   1  17
HETATM   17  C4  UNL     1      24.732   0.218  53.689  1.00  0.00     0.032 C 
HETATM   18  C3  UNL     1      23.722  -0.586  53.633  1.00  0.00     0.092 C 
BRANCH  18  19
HETATM   19  N1  UNL     1      22.359  -0.300  53.347  1.00  0.00    -0.328 N 
HETATM   20  C2  UNL     1      21.189  -0.876  53.902  1.00  0.00     0.287 C 
HETATM   21  O1  UNL     1      21.336  -1.759  54.767  1.00  0.00    -0.260 OA
HETATM   22  H3  UNL     1      22.316   0.451  52.616  1.00  0.00     0.169 HD
BRANCH  20  23
HETATM   23  S1  UNL     1      19.584  -0.312  53.335  1.00  0.00    -0.043 SA
HETATM   24  C1  UNL     1      19.753  -0.008  51.764  1.00  0.00     0.074 C 
HETATM   25 BR1  UNL     1      18.154  -2.052  53.534  1.00  0.00    -0.009 Br
ENDBRANCH  20  23
ENDBRANCH  18  19
ENDBRANCH   1  17
TORSDOF 5
ENDMDL
MODEL 7
REMARK VINA RESULT:      -7.4      3.449      5.548
REMARK  5 active torsions:
REMARK  status: ('A' for Active; 'I' for Inactive)
REMARK    1  A    between atoms: S1_2  and  C2_4 
REMARK       I    between atoms: C2_4  and  N1_6 
REMARK    2  A    between atoms: N1_6  and  C3_7 
REMARK    3  A    between atoms: C4_8  and  C5_9 
REMARK    4  A    between atoms: C9_14  and  N3_15 
REMARK    5  A    between atoms: N3_15  and  C10_16 
ROOT
HETATM    1  C5  UNL     1      24.811   3.793  49.984  1.00  0.00     0.009 A 
HETATM    2  C6  UNL     1      25.167   5.033  49.501  1.00  0.00     0.130 A 
HETATM    3  N2  UNL     1      24.354   5.703  48.701  1.00  0.00    -0.272 NA
HETATM    4  C7  UNL     1      23.175   5.201  48.340  1.00  0.00     0.118 A 
HETATM    5  C8  UNL     1      22.771   3.965  48.795  1.00  0.00     0.049 A 
HETATM    6  C9  UNL     1      23.603   3.222  49.648  1.00  0.00     0.045 A 
ENDROOT
BRANCH   6   7
HETATM    7  N3  UNL     1      22.931   2.018  49.951  1.00  0.00    -0.355 N 
HETATM    8  H9  UNL     1      22.870   1.307  49.165  1.00  0.00     0.166 HD
BRANCH   7   9
HETATM    9  C10 UNL     1      22.327   1.640  51.181  1.00  0.00     0.034 A 
HETATM   10  C11 UNL     1      21.113   2.129  51.617  1.00  0.00     0.032 A 
HETATM   11  C12 UNL     1      20.506   1.791  52.789  1.00  0.00     0.046 A 
HETATM   12  C13 UNL     1      21.123   0.890  53.632  1.00  0.00     0.138 A 
HETATM   13  F1  UNL     1      20.530   0.551  54.790  1.00  0.00    -0.204 F 
HETATM   14  C14 UNL     1      22.337   0.384  53.223  1.00  0.00     0.074 A 
HETATM   15 CL1  UNL     1      23.183  -0.769  54.247  1.00  0.00    -0.081 Cl
HETATM   16  C15 UNL     1      22.930   0.743  52.032  1.00  0.00     0.056 A 
ENDBRANCH   7   9
ENDBRANCH   6   7
BRANCH   1  17
HETATM   17  C4  UNL     1      25.603   2.944  50.841  1.00  0.00     0.032 C 
HETATM   18  C3  UNL     1      26.680   2.261  51.047  1.00  0.00     0.092 C 
BRANCH  18  19
HETATM   19  N1  UNL     1      27.056   1.497  52.186  1.00  0.00    -0.328 N 
HETATM   20  C2  UNL     1      28.097   1.734  53.117  1.00  0.00     0.287 C 
HETATM   21  O1  UNL     1      28.800   2.748  52.950  1.00  0.00    -0.260 OA
HETATM   22  H3  UNL     1      26.420   0.665  52.263  1.00  0.00     0.169 HD
BRANCH  20  23
HETATM   23  S1  UNL     1      28.342   0.579  54.467  1.00  0.00    -0.043 SA
HETATM   24  C1  UNL     1      26.882   0.009  54.831  1.00  0.00     0.074 C 
HETATM   25 BR1  UNL     1      29.557  -1.147  53.659  1.00  0.00    -0.009 Br
ENDBRANCH  20  23
ENDBRANCH  18  19
ENDBRANCH   1  17
TORSDOF 5
ENDMDL
MODEL 8
REMARK VINA RESULT:      -7.2      4.737      6.248
REMARK  5 active torsions:
REMARK  status: ('A' for Active; 'I' for Inactive)
REMARK    1  A    between atoms: S1_2  and  C2_4 
REMARK       I    between atoms: C2_4  and  N1_6 
REMARK    2  A    between atoms: N1_6  and  C3_7 
REMARK    3  A    between atoms: C4_8  and  C5_9 
REMARK    4  A    between atoms: C9_14  and  N3_15 
REMARK    5  A    between atoms: N3_15  and  C10_16 
ROOT
HETATM    1  C5  UNL     1      25.507   0.101  53.618  1.00  0.00     0.009 A 
HETATM    2  C6  UNL     1      26.000  -0.281  54.846  1.00  0.00     0.130 A 
HETATM    3  N2  UNL     1      27.277  -0.108  55.143  1.00  0.00    -0.272 NA
HETATM    4  C7  UNL     1      28.120   0.436  54.269  1.00  0.00     0.118 A 
HETATM    5  C8  UNL     1      27.678   0.837  53.026  1.00  0.00     0.049 A 
HETATM    6  C9  UNL     1      26.329   0.672  52.672  1.00  0.00     0.045 A 
ENDROOT
BRANCH   6   7
HETATM    7  N3  UNL     1      26.173   1.173  51.361  1.00  0.00    -0.355 N 
HETATM    8  H9  UNL     1      26.353   0.484  50.574  1.00  0.00     0.166 HD
BRANCH   7   9
HETATM    9  C10 UNL     1      25.803   2.488  50.966  1.00  0.00     0.034 A 
HETATM   10  C11 UNL     1      24.674   3.133  51.425  1.00  0.00     0.032 A 
HETATM   11  C12 UNL     1      24.287   4.390  51.068  1.00  0.00     0.046 A 
HETATM   12  C13 UNL     1      25.062   5.105  50.178  1.00  0.00     0.138 A 
HETATM   13  F1  UNL     1      24.689   6.346  49.820  1.00  0.00    -0.204 F 
HETATM   14  C14 UNL     1      26.197   4.486  49.702  1.00  0.00     0.074 A 
HETATM   15 CL1  UNL     1      27.233   5.337  48.564  1.00  0.00    -0.081 Cl
HETATM   16  C15 UNL     1      26.565   3.213  50.080  1.00  0.00     0.056 A 
ENDBRANCH   7   9
ENDBRANCH   6   7
BRANCH   1  17
HETATM   17  C4  UNL     1      24.150  -0.047  53.151  1.00  0.00     0.032 C 
HETATM   18  C3  UNL     1      22.977  -0.574  53.280  1.00  0.00     0.092 C 
BRANCH  18  19
HETATM   19  N1  UNL     1      21.818  -0.397  52.476  1.00  0.00    -0.328 N 
HETATM   20  C2  UNL     1      20.649   0.357  52.745  1.00  0.00     0.287 C 
HETATM   21  O1  UNL     1      20.594   0.967  53.829  1.00  0.00    -0.260 OA
HETATM   22  H3  UNL     1      21.939  -0.936  51.583  1.00  0.00     0.169 HD
BRANCH  20  23
HETATM   23  S1  UNL     1      19.330   0.389  51.530  1.00  0.00    -0.043 SA
HETATM   24  C1  UNL     1      18.153  -0.527  52.133  1.00  0.00     0.074 C 
HETATM   25 BR1  UNL     1      18.555   2.510  51.440  1.00  0.00    -0.009 Br
ENDBRANCH  20  23
ENDBRANCH  18  19
ENDBRANCH   1  17
TORSDOF 5
ENDMDL
MODEL 9
REMARK VINA RESULT:      -7.1      2.301      2.636
REMARK  5 active torsions:
REMARK  status: ('A' for Active; 'I' for Inactive)
REMARK    1  A    between atoms: S1_2  and  C2_4 
REMARK       I    between atoms: C2_4  and  N1_6 
REMARK    2  A    between atoms: N1_6  and  C3_7 
REMARK    3  A    between atoms: C4_8  and  C5_9 
REMARK    4  A    between atoms: C9_14  and  N3_15 
REMARK    5  A    between atoms: N3_15  and  C10_16 
ROOT
HETATM    1  C5  UNL     1      26.602   1.321  52.467  1.00  0.00     0.009 A 
HETATM    2  C6  UNL     1      27.627   0.467  52.810  1.00  0.00     0.130 A 
HETATM    3  N2  UNL     1      27.456  -0.448  53.748  1.00  0.00    -0.272 NA
HETATM    4  C7  UNL     1      26.294  -0.573  54.385  1.00  0.00     0.118 A 
HETATM    5  C8  UNL     1      25.235   0.255  54.080  1.00  0.00     0.049 A 
HETATM    6  C9  UNL     1      25.376   1.240  53.089  1.00  0.00     0.045 A 
ENDROOT
BRANCH   6   7
HETATM    7  N3  UNL     1      24.142   1.919  52.992  1.00  0.00    -0.355 N 
HETATM    8  H9  UNL     1      24.117   2.901  53.395  1.00  0.00     0.166 HD
BRANCH   7   9
HETATM    9  C10 UNL     1      22.929   1.450  52.419  1.00  0.00     0.034 A 
HETATM   10  C11 UNL     1      21.856   1.005  53.162  1.00  0.00     0.032 A 
HETATM   11  C12 UNL     1      20.679   0.548  52.647  1.00  0.00     0.046 A 
HETATM   12  C13 UNL     1      20.512   0.513  51.278  1.00  0.00     0.138 A 
HETATM   13  F1  UNL     1      19.355   0.063  50.762  1.00  0.00    -0.204 F 
HETATM   14  C14 UNL     1      21.568   0.952  50.509  1.00  0.00     0.074 A 
HETATM   15 CL1  UNL     1      21.426   0.935  48.756  1.00  0.00    -0.081 Cl
HETATM   16  C15 UNL     1      22.747   1.409  51.055  1.00  0.00     0.056 A 
ENDBRANCH   7   9
ENDBRANCH   6   7
BRANCH   1  17
HETATM   17  C4  UNL     1      26.653   2.377  51.486  1.00  0.00     0.032 C 
HETATM   18  C3  UNL     1      26.398   2.805  50.294  1.00  0.00     0.092 C 
BRANCH  18  19
HETATM   19  N1  UNL     1      26.672   4.076  49.717  1.00  0.00    -0.328 N 
HETATM   20  C2  UNL     1      25.800   5.175  49.522  1.00  0.00     0.287 C 
HETATM   21  O1  UNL     1      24.620   5.049  49.899  1.00  0.00    -0.260 OA
HETATM   22  H3  UNL     1      27.680   4.108  49.427  1.00  0.00     0.169 HD
BRANCH  20  23
HETATM   23  S1  UNL     1      26.431   6.667  48.751  1.00  0.00    -0.043 SA
HETATM   24  C1  UNL     1      26.423   7.794  49.900  1.00  0.00     0.074 C 
HETATM   25 BR1  UNL     1      28.590   6.277  48.206  1.00  0.00    -0.009 Br
ENDBRANCH  20  23
ENDBRANCH  18  19
ENDBRANCH   1  17
TORSDOF 5
ENDMDL
