MODEL 1
REMARK VINA RESULT:      -8.3      0.000      0.000
REMARK  6 active torsions:
REMARK  status: ('A' for Active; 'I' for Inactive)
REMARK    1  A    between atoms: N1_1  and  C1_2 
REMARK    2  A    between atoms: C1_2  and  O1_3 
REMARK    3  A    between atoms: C2_4  and  S1_5 
REMARK    4  A    between atoms: S1_5  and  C3_6 
REMARK    5  A    between atoms: C3_6  and  N2_7 
REMARK    6  A    between atoms: C11_16  and  C12_17 
ROOT
HETATM    1  N2  UNL     1      24.485   0.139  52.913  1.00  0.00    -0.295 N 
HETATM    2  C4  UNL     1      23.213  -0.059  53.402  1.00  0.00     0.149 C 
HETATM    3  C5  UNL     1      22.211  -1.068  53.477  1.00  0.00     0.048 C 
HETATM    4  C6  UNL     1      20.947  -0.256  53.795  1.00  0.00    -0.023 C 
HETATM    5  C7  UNL     1      20.586   0.916  53.220  1.00  0.00     0.019 C 
HETATM    6  C8  UNL     1      20.758   2.030  52.281  1.00  0.00     0.030 C 
HETATM    7 CL1  UNL     1      19.554   3.353  52.384  1.00  0.00    -0.085 Cl
HETATM    8  C9  UNL     1      21.650   2.304  51.323  1.00  0.00     0.003 C 
HETATM    9  C10 UNL     1      22.755   1.414  50.978  1.00  0.00     0.090 C 
HETATM   10  C11 UNL     1      24.132   1.758  51.145  1.00  0.00     0.068 C 
HETATM   11  N3  UNL     1      24.833   1.155  52.013  1.00  0.00    -0.180 NA
ENDROOT
BRANCH   1  12
HETATM   12  C3  UNL     1      25.650  -0.629  53.382  1.00  0.00     0.223 C 
BRANCH  12  13
HETATM   13  S1  UNL     1      26.618   0.331  54.584  1.00  0.00    -0.116 SA
BRANCH  13  14
HETATM   14  C2  UNL     1      28.174   0.868  53.867  1.00  0.00     0.101 C 
HETATM   15  C1  UNL     1      28.048   2.150  53.572  1.00  0.00     0.139 C 
BRANCH  15  16
HETATM   16  N1  UNL     1      26.804   2.783  53.863  1.00  0.00    -0.380 N 
HETATM   17  H1  UNL     1      26.237   2.725  54.746  1.00  0.00     0.158 HD
HETATM   18  H2  UNL     1      26.409   3.383  53.090  1.00  0.00     0.158 HD
ENDBRANCH  15  16
BRANCH  15  19
HETATM   19  O1  UNL     1      29.090   2.891  52.989  1.00  0.00    -0.346 OA
HETATM   20  H3  UNL     1      29.817   2.303  52.561  1.00  0.00     0.219 HD
ENDBRANCH  15  19
ENDBRANCH  13  14
ENDBRANCH  12  13
ENDBRANCH   1  12
BRANCH  10  21
HETATM   21  C12 UNL     1      24.886   2.793  50.453  1.00  0.00    -0.009 A 
HETATM   22  C13 UNL     1      26.251   2.730  50.301  1.00  0.00     0.016 A 
HETATM   23  C14 UNL     1      26.978   3.724  49.630  1.00  0.00     0.043 A 
HETATM   24  C15 UNL     1      26.336   4.817  49.092  1.00  0.00     0.116 A 
HETATM   25  F1  UNL     1      27.025   5.785  48.442  1.00  0.00    -0.206 F 
HETATM   26  C16 UNL     1      24.968   4.891  49.239  1.00  0.00     0.043 A 
HETATM   27  C17 UNL     1      24.278   3.900  49.902  1.00  0.00     0.016 A 
ENDBRANCH  10  21
TORSDOF 6
ENDMDL
MODEL 2
REMARK VINA RESULT:      -7.9      3.575      5.415
REMARK  6 active torsions:
REMARK  status: ('A' for Active; 'I' for Inactive)
REMARK    1  A    between atoms: N1_1  and  C1_2 
REMARK    2  A    between atoms: C1_2  and  O1_3 
REMARK    3  A    between atoms: C2_4  and  S1_5 
REMARK    4  A    between atoms: S1_5  and  C3_6 
REMARK    5  A    between atoms: C3_6  and  N2_7 
REMARK    6  A    between atoms: C11_16  and  C12_17 
ROOT
HETATM    1  N2  UNL     1      24.505   2.380  50.661  1.00  0.00    -0.295 N 
HETATM    2  C4  UNL     1      23.171   2.089  50.831  1.00  0.00     0.149 C 
HETATM    3  C5  UNL     1      21.940   2.729  51.151  1.00  0.00     0.048 C 
HETATM    4  C6  UNL     1      21.049   1.548  51.564  1.00  0.00    -0.023 C 
HETATM    5  C7  UNL     1      21.416   0.511  52.353  1.00  0.00     0.019 C 
HETATM    6  C8  UNL     1      22.359  -0.234  53.195  1.00  0.00     0.030 C 
HETATM    7 CL1  UNL     1      21.793  -1.817  53.816  1.00  0.00    -0.085 Cl
HETATM    8  C9  UNL     1      23.603   0.002  53.625  1.00  0.00     0.003 C 
HETATM    9  C10 UNL     1      24.344   1.219  53.305  1.00  0.00     0.090 C 
HETATM   10  C11 UNL     1      25.543   1.236  52.528  1.00  0.00     0.068 C 
HETATM   11  N3  UNL     1      25.542   1.765  51.376  1.00  0.00    -0.180 NA
ENDROOT
BRANCH   1  12
HETATM   12  C3  UNL     1      24.999   3.292  49.616  1.00  0.00     0.223 C 
BRANCH  12  13
HETATM   13  S1  UNL     1      25.067   5.002  50.227  1.00  0.00    -0.116 SA
BRANCH  13  14
HETATM   14  C2  UNL     1      23.484   5.821  50.011  1.00  0.00     0.101 C 
HETATM   15  C1  UNL     1      23.325   6.643  51.032  1.00  0.00     0.139 C 
BRANCH  15  16
HETATM   16  N1  UNL     1      24.362   6.702  52.010  1.00  0.00    -0.380 N 
HETATM   17  H1  UNL     1      25.402   6.712  51.854  1.00  0.00     0.158 HD
HETATM   18  H2  UNL     1      24.037   6.740  53.013  1.00  0.00     0.158 HD
ENDBRANCH  15  16
BRANCH  15  19
HETATM   19  O1  UNL     1      22.181   7.448  51.177  1.00  0.00    -0.346 OA
HETATM   20  H3  UNL     1      21.849   7.844  50.289  1.00  0.00     0.219 HD
ENDBRANCH  15  19
ENDBRANCH  13  14
ENDBRANCH  12  13
ENDBRANCH   1  12
BRANCH  10  21
HETATM   21  C12 UNL     1      26.837   0.660  52.867  1.00  0.00    -0.009 A 
HETATM   22  C13 UNL     1      27.893   1.429  53.298  1.00  0.00     0.016 A 
HETATM   23  C14 UNL     1      29.137   0.876  53.630  1.00  0.00     0.043 A 
HETATM   24  C15 UNL     1      29.348  -0.482  53.532  1.00  0.00     0.116 A 
HETATM   25  F1  UNL     1      30.545  -1.030  53.849  1.00  0.00    -0.206 F 
HETATM   26  C16 UNL     1      28.298  -1.262  53.100  1.00  0.00     0.043 A 
HETATM   27  C17 UNL     1      27.084  -0.692  52.782  1.00  0.00     0.016 A 
ENDBRANCH  10  21
TORSDOF 6
ENDMDL
MODEL 3
REMARK VINA RESULT:      -7.8      3.493      4.859
REMARK  6 active torsions:
REMARK  status: ('A' for Active; 'I' for Inactive)
REMARK    1  A    between atoms: N1_1  and  C1_2 
REMARK    2  A    between atoms: C1_2  and  O1_3 
REMARK    3  A    between atoms: C2_4  and  S1_5 
REMARK    4  A    between atoms: S1_5  and  C3_6 
REMARK    5  A    between atoms: C3_6  and  N2_7 
REMARK    6  A    between atoms: C11_16  and  C12_17 
ROOT
HETATM    1  N2  UNL     1      22.617   2.148  50.987  1.00  0.00    -0.295 N 
HETATM    2  C4  UNL     1      22.811   1.044  51.787  1.00  0.00     0.149 C 
HETATM    3  C5  UNL     1      22.400   0.513  53.043  1.00  0.00     0.048 C 
HETATM    4  C6  UNL     1      23.474  -0.550  53.320  1.00  0.00    -0.023 C 
HETATM    5  C7  UNL     1      24.807  -0.405  53.129  1.00  0.00     0.019 C 
HETATM    6  C8  UNL     1      26.009   0.345  52.750  1.00  0.00     0.030 C 
HETATM    7 CL1  UNL     1      27.555  -0.560  52.777  1.00  0.00    -0.085 Cl
HETATM    8  C9  UNL     1      26.231   1.607  52.366  1.00  0.00     0.003 C 
HETATM    9  C10 UNL     1      25.174   2.609  52.257  1.00  0.00     0.090 C 
HETATM   10  C11 UNL     1      24.788   3.223  51.026  1.00  0.00     0.068 C 
HETATM   11  N3  UNL     1      23.649   2.977  50.527  1.00  0.00    -0.180 NA
ENDROOT
BRANCH   1  12
HETATM   12  C3  UNL     1      21.304   2.509  50.426  1.00  0.00     0.223 C 
BRANCH  12  13
HETATM   13  S1  UNL     1      20.532   3.842  51.390  1.00  0.00    -0.116 SA
BRANCH  13  14
HETATM   14  C2  UNL     1      20.883   5.443  50.659  1.00  0.00     0.101 C 
HETATM   15  C1  UNL     1      21.832   6.006  51.385  1.00  0.00     0.139 C 
BRANCH  15  16
HETATM   16  N1  UNL     1      22.335   5.281  52.505  1.00  0.00    -0.380 N 
HETATM   17  H1  UNL     1      21.983   4.372  52.901  1.00  0.00     0.158 HD
HETATM   18  H2  UNL     1      23.163   5.716  52.993  1.00  0.00     0.158 HD
ENDBRANCH  15  16
BRANCH  15  19
HETATM   19  O1  UNL     1      22.349   7.279  51.088  1.00  0.00    -0.346 OA
HETATM   20  H3  UNL     1      22.384   7.479  50.080  1.00  0.00     0.219 HD
ENDBRANCH  15  19
ENDBRANCH  13  14
ENDBRANCH  12  13
ENDBRANCH   1  12
BRANCH  10  21
HETATM   21  C12 UNL     1      25.576   4.113  50.184  1.00  0.00    -0.009 A 
HETATM   22  C13 UNL     1      25.228   5.427  49.977  1.00  0.00     0.016 A 
HETATM   23  C14 UNL     1      25.989   6.286  49.172  1.00  0.00     0.043 A 
HETATM   24  C15 UNL     1      27.130   5.832  48.548  1.00  0.00     0.116 A 
HETATM   25  F1  UNL     1      27.874   6.650  47.766  1.00  0.00    -0.206 F 
HETATM   26  C16 UNL     1      27.487   4.517  48.747  1.00  0.00     0.043 A 
HETATM   27  C17 UNL     1      26.722   3.694  49.545  1.00  0.00     0.016 A 
ENDBRANCH  10  21
TORSDOF 6
ENDMDL
MODEL 4
REMARK VINA RESULT:      -7.8      3.688      6.227
REMARK  6 active torsions:
REMARK  status: ('A' for Active; 'I' for Inactive)
REMARK    1  A    between atoms: N1_1  and  C1_2 
REMARK    2  A    between atoms: C1_2  and  O1_3 
REMARK    3  A    between atoms: C2_4  and  S1_5 
REMARK    4  A    between atoms: S1_5  and  C3_6 
REMARK    5  A    between atoms: C3_6  and  N2_7 
REMARK    6  A    between atoms: C11_16  and  C12_17 
ROOT
HETATM    1  N2  UNL     1      23.569   3.430  51.488  1.00  0.00    -0.295 N 
HETATM    2  C4  UNL     1      23.588   4.432  50.543  1.00  0.00     0.149 C 
HETATM    3  C5  UNL     1      22.951   4.804  49.325  1.00  0.00     0.048 C 
HETATM    4  C6  UNL     1      23.928   5.836  48.743  1.00  0.00    -0.023 C 
HETATM    5  C7  UNL     1      25.278   5.729  48.714  1.00  0.00     0.019 C 
HETATM    6  C8  UNL     1      26.550   5.042  48.962  1.00  0.00     0.030 C 
HETATM    7 CL1  UNL     1      28.039   5.953  48.560  1.00  0.00    -0.085 Cl
HETATM    8  C9  UNL     1      26.873   3.838  49.445  1.00  0.00     0.003 C 
HETATM    9  C10 UNL     1      25.882   2.846  49.854  1.00  0.00     0.090 C 
HETATM   10  C11 UNL     1      25.733   2.380  51.196  1.00  0.00     0.068 C 
HETATM   11  N3  UNL     1      24.689   2.673  51.854  1.00  0.00    -0.180 NA
ENDROOT
BRANCH   1  12
HETATM   12  C3  UNL     1      22.384   3.127  52.308  1.00  0.00     0.223 C 
BRANCH  12  13
HETATM   13  S1  UNL     1      21.823   1.420  52.028  1.00  0.00    -0.116 SA
BRANCH  13  14
HETATM   14  C2  UNL     1      20.924   0.803  53.454  1.00  0.00     0.101 C 
HETATM   15  C1  UNL     1      21.639  -0.178  53.974  1.00  0.00     0.139 C 
BRANCH  15  16
HETATM   16  N1  UNL     1      22.874  -0.511  53.343  1.00  0.00    -0.380 N 
HETATM   17  H1  UNL     1      23.092  -0.536  52.315  1.00  0.00     0.158 HD
HETATM   18  H2  UNL     1      23.664  -0.763  53.997  1.00  0.00     0.158 HD
ENDBRANCH  15  16
BRANCH  15  19
HETATM   19  O1  UNL     1      21.222  -0.889  55.113  1.00  0.00    -0.346 OA
HETATM   20  H3  UNL     1      20.210  -0.825  55.283  1.00  0.00     0.219 HD
ENDBRANCH  15  19
ENDBRANCH  13  14
ENDBRANCH  12  13
ENDBRANCH   1  12
BRANCH  10  21
HETATM   21  C12 UNL     1      26.681   1.606  51.986  1.00  0.00    -0.009 A 
HETATM   22  C13 UNL     1      27.686   2.198  52.714  1.00  0.00     0.016 A 
HETATM   23  C14 UNL     1      28.595   1.454  53.478  1.00  0.00     0.043 A 
HETATM   24  C15 UNL     1      28.512   0.080  53.524  1.00  0.00     0.116 A 
HETATM   25  F1  UNL     1      29.385  -0.651  54.258  1.00  0.00    -0.206 F 
HETATM   26  C16 UNL     1      27.509  -0.524  52.798  1.00  0.00     0.043 A 
HETATM   27  C17 UNL     1      26.628   0.231  52.055  1.00  0.00     0.016 A 
ENDBRANCH  10  21
TORSDOF 6
ENDMDL
MODEL 5
REMARK VINA RESULT:      -7.8      3.381      4.727
REMARK  6 active torsions:
REMARK  status: ('A' for Active; 'I' for Inactive)
REMARK    1  A    between atoms: N1_1  and  C1_2 
REMARK    2  A    between atoms: C1_2  and  O1_3 
REMARK    3  A    between atoms: C2_4  and  S1_5 
REMARK    4  A    between atoms: S1_5  and  C3_6 
REMARK    5  A    between atoms: C3_6  and  N2_7 
REMARK    6  A    between atoms: C11_16  and  C12_17 
ROOT
HETATM    1  N2  UNL     1      22.762   1.978  50.172  1.00  0.00    -0.295 N 
HETATM    2  C4  UNL     1      21.510   1.508  50.499  1.00  0.00     0.149 C 
HETATM    3  C5  UNL     1      20.193   1.982  50.759  1.00  0.00     0.048 C 
HETATM    4  C6  UNL     1      19.550   0.793  51.488  1.00  0.00    -0.023 C 
HETATM    5  C7  UNL     1      20.128   0.046  52.458  1.00  0.00     0.019 C 
HETATM    6  C8  UNL     1      21.219  -0.310  53.372  1.00  0.00     0.030 C 
HETATM    7 CL1  UNL     1      20.977  -1.780  54.368  1.00  0.00    -0.085 Cl
HETATM    8  C9  UNL     1      22.411   0.230  53.647  1.00  0.00     0.003 C 
HETATM    9  C10 UNL     1      22.903   1.450  53.011  1.00  0.00     0.090 C 
HETATM   10  C11 UNL     1      24.053   1.493  52.164  1.00  0.00     0.068 C 
HETATM   11  N3  UNL     1      23.917   1.734  50.927  1.00  0.00    -0.180 NA
ENDROOT
BRANCH   1  12
HETATM   12  C3  UNL     1      23.044   2.695  48.917  1.00  0.00     0.223 C 
BRANCH  12  13
HETATM   13  S1  UNL     1      23.261   4.474  49.221  1.00  0.00    -0.116 SA
BRANCH  13  14
HETATM   14  C2  UNL     1      22.712   4.910  50.874  1.00  0.00     0.101 C 
HETATM   15  C1  UNL     1      23.793   5.101  51.608  1.00  0.00     0.139 C 
BRANCH  15  16
HETATM   16  N1  UNL     1      25.064   4.935  50.983  1.00  0.00    -0.380 N 
HETATM   17  H1  UNL     1      25.291   4.964  49.957  1.00  0.00     0.158 HD
HETATM   18  H2  UNL     1      25.872   4.760  51.638  1.00  0.00     0.158 HD
ENDBRANCH  15  16
BRANCH  15  19
HETATM   19  O1  UNL     1      23.723   5.459  52.966  1.00  0.00    -0.346 OA
HETATM   20  H3  UNL     1      22.764   5.630  53.293  1.00  0.00     0.219 HD
ENDBRANCH  15  19
ENDBRANCH  13  14
ENDBRANCH  12  13
ENDBRANCH   1  12
BRANCH  10  21
HETATM   21  C12 UNL     1      25.441   1.245  52.526  1.00  0.00    -0.009 A 
HETATM   22  C13 UNL     1      26.042   0.022  52.338  1.00  0.00     0.016 A 
HETATM   23  C14 UNL     1      27.379  -0.217  52.682  1.00  0.00     0.043 A 
HETATM   24  C15 UNL     1      28.151   0.784  53.230  1.00  0.00     0.116 A 
HETATM   25  F1  UNL     1      29.444   0.566  53.566  1.00  0.00    -0.206 F 
HETATM   26  C16 UNL     1      27.560   2.013  53.423  1.00  0.00     0.043 A 
HETATM   27  C17 UNL     1      26.243   2.221  53.076  1.00  0.00     0.016 A 
ENDBRANCH  10  21
TORSDOF 6
ENDMDL
MODEL 6
REMARK VINA RESULT:      -7.8      2.019      2.409
REMARK  6 active torsions:
REMARK  status: ('A' for Active; 'I' for Inactive)
REMARK    1  A    between atoms: N1_1  and  C1_2 
REMARK    2  A    between atoms: C1_2  and  O1_3 
REMARK    3  A    between atoms: C2_4  and  S1_5 
REMARK    4  A    between atoms: S1_5  and  C3_6 
REMARK    5  A    between atoms: C3_6  and  N2_7 
REMARK    6  A    between atoms: C11_16  and  C12_17 
ROOT
HETATM    1  N2  UNL     1      24.733   1.249  52.902  1.00  0.00    -0.295 N 
HETATM    2  C4  UNL     1      23.430   1.011  53.277  1.00  0.00     0.149 C 
HETATM    3  C5  UNL     1      22.495  -0.059  53.377  1.00  0.00     0.048 C 
HETATM    4  C6  UNL     1      21.152   0.682  53.454  1.00  0.00    -0.023 C 
HETATM    5  C7  UNL     1      20.782   1.742  52.697  1.00  0.00     0.019 C 
HETATM    6  C8  UNL     1      20.985   2.745  51.646  1.00  0.00     0.030 C 
HETATM    7 CL1  UNL     1      19.692   3.970  51.451  1.00  0.00    -0.085 Cl
HETATM    8  C9  UNL     1      21.960   2.972  50.758  1.00  0.00     0.003 C 
HETATM    9  C10 UNL     1      23.154   2.137  50.649  1.00  0.00     0.090 C 
HETATM   10  C11 UNL     1      24.477   2.608  50.913  1.00  0.00     0.068 C 
HETATM   11  N3  UNL     1      25.113   2.173  51.919  1.00  0.00    -0.180 NA
ENDROOT
BRANCH   1  12
HETATM   12  C3  UNL     1      25.886   0.639  53.585  1.00  0.00     0.223 C 
BRANCH  12  13
HETATM   13  S1  UNL     1      27.013  -0.137  52.388  1.00  0.00    -0.116 SA
BRANCH  13  14
HETATM   14  C2  UNL     1      27.043  -1.919  52.603  1.00  0.00     0.101 C 
HETATM   15  C1  UNL     1      28.234  -2.235  53.081  1.00  0.00     0.139 C 
BRANCH  15  16
HETATM   16  N1  UNL     1      29.165  -1.179  53.306  1.00  0.00    -0.380 N 
HETATM   17  H1  UNL     1      29.600  -0.535  52.598  1.00  0.00     0.158 HD
HETATM   18  H2  UNL     1      29.449  -1.033  54.312  1.00  0.00     0.158 HD
ENDBRANCH  15  16
BRANCH  15  19
HETATM   19  O1  UNL     1      28.598  -3.562  53.367  1.00  0.00    -0.346 OA
HETATM   20  H3  UNL     1      28.990  -4.060  52.558  1.00  0.00     0.219 HD
ENDBRANCH  15  19
ENDBRANCH  13  14
ENDBRANCH  12  13
ENDBRANCH   1  12
BRANCH  10  21
HETATM   21  C12 UNL     1      25.234   3.609  50.175  1.00  0.00    -0.009 A 
HETATM   22  C13 UNL     1      24.750   4.876  49.946  1.00  0.00     0.016 A 
HETATM   23  C14 UNL     1      25.481   5.842  49.241  1.00  0.00     0.043 A 
HETATM   24  C15 UNL     1      26.730   5.548  48.743  1.00  0.00     0.116 A 
HETATM   25  F1  UNL     1      27.447   6.471  48.059  1.00  0.00    -0.206 F 
HETATM   26  C16 UNL     1      27.226   4.282  48.965  1.00  0.00     0.043 A 
HETATM   27  C17 UNL     1      26.487   3.351  49.663  1.00  0.00     0.016 A 
ENDBRANCH  10  21
TORSDOF 6
ENDMDL
MODEL 7
REMARK VINA RESULT:      -7.3      2.427      2.747
REMARK  6 active torsions:
REMARK  status: ('A' for Active; 'I' for Inactive)
REMARK    1  A    between atoms: N1_1  and  C1_2 
REMARK    2  A    between atoms: C1_2  and  O1_3 
REMARK    3  A    between atoms: C2_4  and  S1_5 
REMARK    4  A    between atoms: S1_5  and  C3_6 
REMARK    5  A    between atoms: C3_6  and  N2_7 
REMARK    6  A    between atoms: C11_16  and  C12_17 
ROOT
HETATM    1  N2  UNL     1      23.552   1.187  52.781  1.00  0.00    -0.295 N 
HETATM    2  C4  UNL     1      22.644   0.453  53.510  1.00  0.00     0.149 C 
HETATM    3  C5  UNL     1      22.487  -0.840  54.085  1.00  0.00     0.048 C 
HETATM    4  C6  UNL     1      20.971  -0.919  54.315  1.00  0.00    -0.023 C 
HETATM    5  C7  UNL     1      20.011  -0.521  53.446  1.00  0.00     0.019 C 
HETATM    6  C8  UNL     1      19.533   0.029  52.173  1.00  0.00     0.030 C 
HETATM    7 CL1  UNL     1      17.764   0.269  52.022  1.00  0.00    -0.085 Cl
HETATM    8  C9  UNL     1      20.140   0.415  51.045  1.00  0.00     0.003 C 
HETATM    9  C10 UNL     1      21.584   0.331  50.843  1.00  0.00     0.090 C 
HETATM   10  C11 UNL     1      22.425   1.471  50.655  1.00  0.00     0.068 C 
HETATM   11  N3  UNL     1      23.269   1.787  51.546  1.00  0.00    -0.180 NA
ENDROOT
BRANCH   1  12
HETATM   12  C3  UNL     1      24.896   1.523  53.282  1.00  0.00     0.223 C 
BRANCH  12  13
HETATM   13  S1  UNL     1      26.019   0.102  53.127  1.00  0.00    -0.116 SA
BRANCH  13  14
HETATM   14  C2  UNL     1      27.669   0.641  52.671  1.00  0.00     0.101 C 
HETATM   15  C1  UNL     1      28.459   0.403  53.703  1.00  0.00     0.139 C 
BRANCH  15  16
HETATM   16  N1  UNL     1      27.879  -0.184  54.866  1.00  0.00    -0.380 N 
HETATM   17  H1  UNL     1      26.885  -0.115  55.201  1.00  0.00     0.158 HD
HETATM   18  H2  UNL     1      28.536  -0.758  55.460  1.00  0.00     0.158 HD
ENDBRANCH  15  16
BRANCH  15  19
HETATM   19  O1  UNL     1      29.831   0.708  53.684  1.00  0.00    -0.346 OA
HETATM   20  H3  UNL     1      30.401  -0.012  53.221  1.00  0.00     0.219 HD
ENDBRANCH  15  19
ENDBRANCH  13  14
ENDBRANCH  12  13
ENDBRANCH   1  12
BRANCH  10  21
HETATM   21  C12 UNL     1      22.427   2.408  49.540  1.00  0.00    -0.009 A 
HETATM   22  C13 UNL     1      22.770   3.731  49.693  1.00  0.00     0.016 A 
HETATM   23  C14 UNL     1      22.777   4.632  48.619  1.00  0.00     0.043 A 
HETATM   24  C15 UNL     1      22.433   4.215  47.353  1.00  0.00     0.116 A 
HETATM   25  F1  UNL     1      22.435   5.075  46.307  1.00  0.00    -0.206 F 
HETATM   26  C16 UNL     1      22.086   2.892  47.188  1.00  0.00     0.043 A 
HETATM   27  C17 UNL     1      22.088   2.027  48.260  1.00  0.00     0.016 A 
ENDBRANCH  10  21
TORSDOF 6
ENDMDL
MODEL 8
REMARK VINA RESULT:      -7.1      3.043      5.527
REMARK  6 active torsions:
REMARK  status: ('A' for Active; 'I' for Inactive)
REMARK    1  A    between atoms: N1_1  and  C1_2 
REMARK    2  A    between atoms: C1_2  and  O1_3 
REMARK    3  A    between atoms: C2_4  and  S1_5 
REMARK    4  A    between atoms: S1_5  and  C3_6 
REMARK    5  A    between atoms: C3_6  and  N2_7 
REMARK    6  A    between atoms: C11_16  and  C12_17 
ROOT
HETATM    1  N2  UNL     1      25.496   2.462  51.305  1.00  0.00    -0.295 N 
HETATM    2  C4  UNL     1      25.303   3.419  50.335  1.00  0.00     0.149 C 
HETATM    3  C5  UNL     1      25.603   4.785  50.067  1.00  0.00     0.048 C 
HETATM    4  C6  UNL     1      24.600   5.132  48.957  1.00  0.00    -0.023 C 
HETATM    5  C7  UNL     1      23.292   4.781  48.925  1.00  0.00     0.019 C 
HETATM    6  C8  UNL     1      22.084   4.153  49.470  1.00  0.00     0.030 C 
HETATM    7 CL1  UNL     1      20.630   4.179  48.424  1.00  0.00    -0.085 Cl
HETATM    8  C9  UNL     1      21.802   3.531  50.621  1.00  0.00     0.003 C 
HETATM    9  C10 UNL     1      22.774   3.357  51.697  1.00  0.00     0.090 C 
HETATM   10  C11 UNL     1      23.251   2.084  52.136  1.00  0.00     0.068 C 
HETATM   11  N3  UNL     1      24.459   1.757  51.933  1.00  0.00    -0.180 NA
ENDROOT
BRANCH   1  12
HETATM   12  C3  UNL     1      26.830   1.985  51.705  1.00  0.00     0.223 C 
BRANCH  12  13
HETATM   13  S1  UNL     1      26.718   0.872  53.138  1.00  0.00    -0.116 SA
BRANCH  13  14
HETATM   14  C2  UNL     1      27.947  -0.432  53.030  1.00  0.00     0.101 C 
HETATM   15  C1  UNL     1      28.884  -0.163  53.921  1.00  0.00     0.139 C 
BRANCH  15  16
HETATM   16  N1  UNL     1      28.733   1.012  54.714  1.00  0.00    -0.380 N 
HETATM   17  H1  UNL     1      28.996   2.000  54.469  1.00  0.00     0.158 HD
HETATM   18  H2  UNL     1      28.302   0.864  55.667  1.00  0.00     0.158 HD
ENDBRANCH  15  16
BRANCH  15  19
HETATM   19  O1  UNL     1      30.007  -0.989  54.102  1.00  0.00    -0.346 OA
HETATM   20  H3  UNL     1      29.763  -1.976  54.259  1.00  0.00     0.219 HD
ENDBRANCH  15  19
ENDBRANCH  13  14
ENDBRANCH  12  13
ENDBRANCH   1  12
BRANCH  10  21
HETATM   21  C12 UNL     1      22.496   1.020  52.785  1.00  0.00    -0.009 A 
HETATM   22  C13 UNL     1      21.161   1.147  53.087  1.00  0.00     0.016 A 
HETATM   23  C14 UNL     1      20.433   0.122  53.707  1.00  0.00     0.043 A 
HETATM   24  C15 UNL     1      21.043  -1.066  54.041  1.00  0.00     0.116 A 
HETATM   25  F1  UNL     1      20.351  -2.065  54.641  1.00  0.00    -0.206 F 
HETATM   26  C16 UNL     1      22.381  -1.204  53.744  1.00  0.00     0.043 A 
HETATM   27  C17 UNL     1      23.073  -0.181  53.134  1.00  0.00     0.016 A 
ENDBRANCH  10  21
TORSDOF 6
ENDMDL
MODEL 9
REMARK VINA RESULT:      -7.1      2.504      3.616
REMARK  6 active torsions:
REMARK  status: ('A' for Active; 'I' for Inactive)
REMARK    1  A    between atoms: N1_1  and  C1_2 
REMARK    2  A    between atoms: C1_2  and  O1_3 
REMARK    3  A    between atoms: C2_4  and  S1_5 
REMARK    4  A    between atoms: S1_5  and  C3_6 
REMARK    5  A    between atoms: C3_6  and  N2_7 
REMARK    6  A    between atoms: C11_16  and  C12_17 
ROOT
HETATM    1  N2  UNL     1      24.913   2.863  51.277  1.00  0.00    -0.295 N 
HETATM    2  C4  UNL     1      23.629   3.116  51.701  1.00  0.00     0.149 C 
HETATM    3  C5  UNL     1      22.332   2.527  51.686  1.00  0.00     0.048 C 
HETATM    4  C6  UNL     1      21.420   3.725  51.989  1.00  0.00    -0.023 C 
HETATM    5  C7  UNL     1      21.530   4.965  51.456  1.00  0.00     0.019 C 
HETATM    6  C8  UNL     1      22.137   5.973  50.580  1.00  0.00     0.030 C 
HETATM    7 CL1  UNL     1      21.474   7.633  50.695  1.00  0.00    -0.085 Cl
HETATM    8  C9  UNL     1      23.121   5.941  49.674  1.00  0.00     0.003 C 
HETATM    9  C10 UNL     1      23.858   4.727  49.334  1.00  0.00     0.090 C 
HETATM   10  C11 UNL     1      25.256   4.554  49.575  1.00  0.00     0.068 C 
HETATM   11  N3  UNL     1      25.648   3.716  50.441  1.00  0.00    -0.180 NA
ENDROOT
BRANCH   1  12
HETATM   12  C3  UNL     1      25.704   1.718  51.757  1.00  0.00     0.223 C 
BRANCH  12  13
HETATM   13  S1  UNL     1      26.118   1.908  53.517  1.00  0.00    -0.116 SA
BRANCH  13  14
HETATM   14  C2  UNL     1      27.792   1.349  53.843  1.00  0.00     0.101 C 
HETATM   15  C1  UNL     1      27.703   0.237  54.551  1.00  0.00     0.139 C 
BRANCH  15  16
HETATM   16  N1  UNL     1      26.401  -0.243  54.879  1.00  0.00    -0.380 N 
HETATM   17  H1  UNL     1      26.134  -1.184  55.266  1.00  0.00     0.158 HD
HETATM   18  H2  UNL     1      25.611   0.435  54.707  1.00  0.00     0.158 HD
ENDBRANCH  15  16
BRANCH  15  19
HETATM   19  O1  UNL     1      28.838  -0.471  54.981  1.00  0.00    -0.346 OA
HETATM   20  H3  UNL     1      29.724  -0.024  54.710  1.00  0.00     0.219 HD
ENDBRANCH  15  19
ENDBRANCH  13  14
ENDBRANCH  12  13
ENDBRANCH   1  12
BRANCH  10  21
HETATM   21  C12 UNL     1      26.365   5.275  48.966  1.00  0.00    -0.009 A 
HETATM   22  C13 UNL     1      26.242   6.568  48.516  1.00  0.00     0.016 A 
HETATM   23  C14 UNL     1      27.310   7.264  47.934  1.00  0.00     0.043 A 
HETATM   24  C15 UNL     1      28.541   6.663  47.790  1.00  0.00     0.116 A 
HETATM   25  F1  UNL     1      29.582   7.324  47.229  1.00  0.00    -0.206 F 
HETATM   26  C16 UNL     1      28.676   5.367  48.236  1.00  0.00     0.043 A 
HETATM   27  C17 UNL     1      27.609   4.706  48.805  1.00  0.00     0.016 A 
ENDBRANCH  10  21
TORSDOF 6
ENDMDL
