MODEL 1
REMARK VINA RESULT:      -9.6      0.000      0.000
REMARK  3 active torsions:
REMARK  status: ('A' for Active; 'I' for Inactive)
REMARK    1  A    between atoms: O1_1  and  C1_2 
REMARK    2  A    between atoms: C3_5  and  N1_6 
REMARK    3  A    between atoms: C4_8  and  C5_9 
ROOT
HETATM    1  N1  UNL     1      25.836   0.602  52.530  1.00  0.00    -0.233 N 
HETATM    2  N2  UNL     1      25.879   1.762  51.713  1.00  0.00    -0.173 NA
HETATM    3  C4  UNL     1      25.241   2.852  51.797  1.00  0.00     0.065 C 
HETATM    4  C11 UNL     1      24.236   3.203  52.820  1.00  0.00     0.066 C 
HETATM    5  C12 UNL     1      23.075   2.228  52.577  1.00  0.00     0.042 C 
HETATM    6  C13 UNL     1      23.445   0.852  52.983  1.00  0.00    -0.055 C 
HETATM    7  C14 UNL     1      22.333   0.295  53.481  1.00  0.00    -0.018 C 
HETATM    8  C15 UNL     1      22.488  -1.124  53.960  1.00  0.00     0.054 C 
HETATM    9  C16 UNL     1      23.713  -1.190  54.804  1.00  0.00    -0.025 C 
HETATM   10  C17 UNL     1      24.825  -0.628  54.324  1.00  0.00     0.001 C 
HETATM   11  C18 UNL     1      24.623  -0.016  52.987  1.00  0.00     0.164 C 
ENDROOT
BRANCH   1  12
HETATM   12  C3  UNL     1      27.070  -0.078  52.982  1.00  0.00     0.192 A 
HETATM   13  S1  UNL     1      28.584   0.399  53.863  1.00  0.00    -0.058 SA
HETATM   14  C2  UNL     1      29.270  -1.370  53.747  1.00  0.00     0.111 A 
HETATM   15  C1  UNL     1      28.243  -1.984  53.074  1.00  0.00     0.171 A 
HETATM   16  N3  UNL     1      27.189  -1.268  52.732  1.00  0.00    -0.198 NA
BRANCH  15  17
HETATM   17  O1  UNL     1      28.425  -3.358  52.807  1.00  0.00    -0.344 OA
HETATM   18  H1  UNL     1      27.655  -3.933  52.485  1.00  0.00     0.219 HD
ENDBRANCH  15  17
ENDBRANCH   1  12
BRANCH   3  19
HETATM   19  C5  UNL     1      25.598   3.786  50.733  1.00  0.00    -0.010 A 
HETATM   20  C6  UNL     1      24.798   4.888  50.519  1.00  0.00     0.016 A 
HETATM   21  C7  UNL     1      25.084   5.818  49.533  1.00  0.00     0.043 A 
HETATM   22  C8  UNL     1      26.203   5.659  48.723  1.00  0.00     0.116 A 
HETATM   23  F1  UNL     1      26.526   6.555  47.735  1.00  0.00    -0.206 F 
HETATM   24  C9  UNL     1      27.034   4.559  48.911  1.00  0.00     0.043 A 
HETATM   25  C10 UNL     1      26.694   3.675  49.905  1.00  0.00     0.016 A 
ENDBRANCH   3  19
TORSDOF 3
ENDMDL
MODEL 2
REMARK VINA RESULT:      -9.3      1.752      1.861
REMARK  3 active torsions:
REMARK  status: ('A' for Active; 'I' for Inactive)
REMARK    1  A    between atoms: O1_1  and  C1_2 
REMARK    2  A    between atoms: C3_5  and  N1_6 
REMARK    3  A    between atoms: C4_8  and  C5_9 
ROOT
HETATM    1  N1  UNL     1      25.918   1.384  52.122  1.00  0.00    -0.233 N 
HETATM    2  N2  UNL     1      25.999   2.522  51.278  1.00  0.00    -0.173 NA
HETATM    3  C4  UNL     1      25.228   3.521  51.166  1.00  0.00     0.065 C 
HETATM    4  C11 UNL     1      23.986   3.758  51.927  1.00  0.00     0.066 C 
HETATM    5  C12 UNL     1      23.037   2.634  51.485  1.00  0.00     0.042 C 
HETATM    6  C13 UNL     1      23.474   1.327  52.029  1.00  0.00    -0.055 C 
HETATM    7  C14 UNL     1      22.357   0.640  52.300  1.00  0.00    -0.018 C 
HETATM    8  C15 UNL     1      22.575  -0.736  52.870  1.00  0.00     0.054 C 
HETATM    9  C16 UNL     1      23.579  -0.623  53.964  1.00  0.00    -0.025 C 
HETATM   10  C17 UNL     1      24.693   0.070  53.711  1.00  0.00     0.001 C 
HETATM   11  C18 UNL     1      24.720   0.622  52.334  1.00  0.00     0.164 C 
ENDROOT
BRANCH   1  12
HETATM   12  C3  UNL     1      27.095   0.882  52.866  1.00  0.00     0.192 A 
HETATM   13  S1  UNL     1      27.852  -0.736  53.187  1.00  0.00    -0.058 SA
HETATM   14  C2  UNL     1      29.220   0.055  54.243  1.00  0.00     0.111 A 
HETATM   15  C1  UNL     1      28.856   1.377  54.158  1.00  0.00     0.171 A 
HETATM   16  N3  UNL     1      27.788   1.698  53.455  1.00  0.00    -0.198 NA
BRANCH  15  17
HETATM   17  O1  UNL     1      29.685   2.283  54.854  1.00  0.00    -0.344 OA
HETATM   18  H1  UNL     1      29.742   2.267  55.865  1.00  0.00     0.219 HD
ENDBRANCH  15  17
ENDBRANCH   1  12
BRANCH   3  19
HETATM   19  C5  UNL     1      25.696   4.471  50.162  1.00  0.00    -0.010 A 
HETATM   20  C6  UNL     1      24.923   5.577  49.881  1.00  0.00     0.016 A 
HETATM   21  C7  UNL     1      25.311   6.523  48.947  1.00  0.00     0.043 A 
HETATM   22  C8  UNL     1      26.509   6.375  48.257  1.00  0.00     0.116 A 
HETATM   23  F1  UNL     1      26.934   7.286  47.323  1.00  0.00    -0.206 F 
HETATM   24  C9  UNL     1      27.316   5.271  48.514  1.00  0.00     0.043 A 
HETATM   25  C10 UNL     1      26.874   4.371  49.452  1.00  0.00     0.016 A 
ENDBRANCH   3  19
TORSDOF 3
ENDMDL
MODEL 3
REMARK VINA RESULT:      -8.9      2.587      3.601
REMARK  3 active torsions:
REMARK  status: ('A' for Active; 'I' for Inactive)
REMARK    1  A    between atoms: O1_1  and  C1_2 
REMARK    2  A    between atoms: C3_5  and  N1_6 
REMARK    3  A    between atoms: C4_8  and  C5_9 
ROOT
HETATM    1  N1  UNL     1      26.114   2.576  50.665  1.00  0.00    -0.233 N 
HETATM    2  N2  UNL     1      26.723   3.613  49.909  1.00  0.00    -0.173 NA
HETATM    3  C4  UNL     1      26.298   4.766  49.602  1.00  0.00     0.065 C 
HETATM    4  C11 UNL     1      24.992   5.345  49.972  1.00  0.00     0.066 C 
HETATM    5  C12 UNL     1      23.958   4.474  49.245  1.00  0.00     0.042 C 
HETATM    6  C13 UNL     1      23.871   3.129  49.861  1.00  0.00    -0.055 C 
HETATM    7  C14 UNL     1      22.587   2.759  49.776  1.00  0.00    -0.018 C 
HETATM    8  C15 UNL     1      22.272   1.404  50.351  1.00  0.00     0.054 C 
HETATM    9  C16 UNL     1      22.912   1.318  51.693  1.00  0.00    -0.025 C 
HETATM   10  C17 UNL     1      24.190   1.696  51.794  1.00  0.00     0.001 C 
HETATM   11  C18 UNL     1      24.753   2.151  50.498  1.00  0.00     0.164 C 
ENDROOT
BRANCH   1  12
HETATM   12  C3  UNL     1      26.857   1.834  51.707  1.00  0.00     0.192 A 
HETATM   13  S1  UNL     1      26.918   0.123  52.309  1.00  0.00    -0.058 SA
HETATM   14  C2  UNL     1      28.221   0.573  53.617  1.00  0.00     0.111 A 
HETATM   15  C1  UNL     1      28.366   1.915  53.361  1.00  0.00     0.171 A 
HETATM   16  N3  UNL     1      27.651   2.459  52.396  1.00  0.00    -0.198 NA
BRANCH  15  17
HETATM   17  O1  UNL     1      29.292   2.596  54.180  1.00  0.00    -0.344 OA
HETATM   18  H1  UNL     1      29.033   3.446  54.665  1.00  0.00     0.219 HD
ENDBRANCH  15  17
ENDBRANCH   1  12
BRANCH   3  19
HETATM   19  C5  UNL     1      27.261   5.515  48.802  1.00  0.00    -0.010 A 
HETATM   20  C6  UNL     1      26.877   6.720  48.255  1.00  0.00     0.016 A 
HETATM   21  C7  UNL     1      27.744   7.487  47.493  1.00  0.00     0.043 A 
HETATM   22  C8  UNL     1      29.042   7.050  47.257  1.00  0.00     0.116 A 
HETATM   23  F1  UNL     1      29.935   7.776  46.509  1.00  0.00    -0.206 F 
HETATM   24  C9  UNL     1      29.466   5.838  47.794  1.00  0.00     0.043 A 
HETATM   25  C10 UNL     1      28.558   5.127  48.539  1.00  0.00     0.016 A 
ENDBRANCH   3  19
TORSDOF 3
ENDMDL
MODEL 4
REMARK VINA RESULT:      -8.8      3.836      6.557
REMARK  3 active torsions:
REMARK  status: ('A' for Active; 'I' for Inactive)
REMARK    1  A    between atoms: O1_1  and  C1_2 
REMARK    2  A    between atoms: C3_5  and  N1_6 
REMARK    3  A    between atoms: C4_8  and  C5_9 
ROOT
HETATM    1  N1  UNL     1      23.642   1.220  51.493  1.00  0.00    -0.233 N 
HETATM    2  N2  UNL     1      24.828   0.569  51.922  1.00  0.00    -0.173 NA
HETATM    3  C4  UNL     1      25.944   1.045  52.283  1.00  0.00     0.065 C 
HETATM    4  C11 UNL     1      26.307   2.474  52.347  1.00  0.00     0.066 C 
HETATM    5  C12 UNL     1      26.270   2.952  50.889  1.00  0.00     0.042 C 
HETATM    6  C13 UNL     1      24.876   3.022  50.390  1.00  0.00    -0.055 C 
HETATM    7  C14 UNL     1      24.825   4.073  49.563  1.00  0.00    -0.018 C 
HETATM    8  C15 UNL     1      23.481   4.330  48.936  1.00  0.00     0.054 C 
HETATM    9  C16 UNL     1      22.455   4.270  50.014  1.00  0.00    -0.025 C 
HETATM   10  C17 UNL     1      22.502   3.232  50.854  1.00  0.00     0.001 C 
HETATM   11  C18 UNL     1      23.614   2.298  50.544  1.00  0.00     0.164 C 
ENDROOT
BRANCH   1  12
HETATM   12  C3  UNL     1      22.309   0.826  52.001  1.00  0.00     0.192 A 
HETATM   13  S1  UNL     1      20.682   0.468  51.281  1.00  0.00    -0.058 SA
HETATM   14  C2  UNL     1      19.937   0.135  52.997  1.00  0.00     0.111 A 
HETATM   15  C1  UNL     1      21.040   0.354  53.786  1.00  0.00     0.171 A 
HETATM   16  N3  UNL     1      22.177   0.693  53.209  1.00  0.00    -0.198 NA
BRANCH  15  17
HETATM   17  O1  UNL     1      20.840   0.190  55.173  1.00  0.00    -0.344 OA
HETATM   18  H1  UNL     1      20.743   0.991  55.785  1.00  0.00     0.219 HD
ENDBRANCH  15  17
ENDBRANCH   1  12
BRANCH   3  19
HETATM   19  C5  UNL     1      26.898   0.002  52.648  1.00  0.00    -0.010 A 
HETATM   20  C6  UNL     1      26.580  -1.312  52.381  1.00  0.00     0.016 A 
HETATM   21  C7  UNL     1      27.443  -2.351  52.692  1.00  0.00     0.043 A 
HETATM   22  C8  UNL     1      28.669  -2.087  53.293  1.00  0.00     0.116 A 
HETATM   23  F1  UNL     1      29.555  -3.083  53.618  1.00  0.00    -0.206 F 
HETATM   24  C9  UNL     1      29.023  -0.772  53.577  1.00  0.00     0.043 A 
HETATM   25  C10 UNL     1      28.124   0.210  53.243  1.00  0.00     0.016 A 
ENDBRANCH   3  19
TORSDOF 3
ENDMDL
MODEL 5
REMARK VINA RESULT:      -8.8      3.303      5.984
REMARK  3 active torsions:
REMARK  status: ('A' for Active; 'I' for Inactive)
REMARK    1  A    between atoms: O1_1  and  C1_2 
REMARK    2  A    between atoms: C3_5  and  N1_6 
REMARK    3  A    between atoms: C4_8  and  C5_9 
ROOT
HETATM    1  N1  UNL     1      24.792   1.797  51.735  1.00  0.00    -0.233 N 
HETATM    2  N2  UNL     1      23.484   1.295  51.962  1.00  0.00    -0.173 NA
HETATM    3  C4  UNL     1      22.519   1.119  51.161  1.00  0.00     0.065 C 
HETATM    4  C11 UNL     1      22.517   1.412  49.714  1.00  0.00     0.066 C 
HETATM    5  C12 UNL     1      22.668   2.937  49.624  1.00  0.00     0.042 C 
HETATM    6  C13 UNL     1      24.035   3.358  50.011  1.00  0.00    -0.055 C 
HETATM    7  C14 UNL     1      24.340   4.405  49.233  1.00  0.00    -0.018 C 
HETATM    8  C15 UNL     1      25.705   4.997  49.463  1.00  0.00     0.054 C 
HETATM    9  C16 UNL     1      26.687   3.878  49.505  1.00  0.00    -0.025 C 
HETATM   10  C17 UNL     1      26.389   2.822  50.267  1.00  0.00     0.001 C 
HETATM   11  C18 UNL     1      25.082   2.968  50.956  1.00  0.00     0.164 C 
ENDROOT
BRANCH   1  12
HETATM   12  C3  UNL     1      25.989   1.135  52.301  1.00  0.00     0.192 A 
HETATM   13  S1  UNL     1      27.559   1.669  53.038  1.00  0.00    -0.058 SA
HETATM   14  C2  UNL     1      28.115  -0.131  53.287  1.00  0.00     0.111 A 
HETATM   15  C1  UNL     1      27.026  -0.793  52.774  1.00  0.00     0.171 A 
HETATM   16  N3  UNL     1      26.016  -0.087  52.306  1.00  0.00    -0.198 NA
BRANCH  15  17
HETATM   17  O1  UNL     1      27.102  -2.202  52.800  1.00  0.00    -0.344 OA
HETATM   18  H1  UNL     1      26.725  -2.730  53.578  1.00  0.00     0.219 HD
ENDBRANCH  15  17
ENDBRANCH   1  12
BRANCH   3  19
HETATM   19  C5  UNL     1      21.340   0.575  51.827  1.00  0.00    -0.010 A 
HETATM   20  C6  UNL     1      20.137   0.574  51.153  1.00  0.00     0.016 A 
HETATM   21  C7  UNL     1      18.981   0.065  51.722  1.00  0.00     0.043 A 
HETATM   22  C8  UNL     1      19.007  -0.464  53.007  1.00  0.00     0.116 A 
HETATM   23  F1  UNL     1      17.887  -0.979  53.610  1.00  0.00    -0.206 F 
HETATM   24  C9  UNL     1      20.203  -0.481  53.717  1.00  0.00     0.043 A 
HETATM   25  C10 UNL     1      21.312   0.039  53.097  1.00  0.00     0.016 A 
ENDBRANCH   3  19
TORSDOF 3
ENDMDL
MODEL 6
REMARK VINA RESULT:      -8.8      2.751      3.164
REMARK  3 active torsions:
REMARK  status: ('A' for Active; 'I' for Inactive)
REMARK    1  A    between atoms: O1_1  and  C1_2 
REMARK    2  A    between atoms: C3_5  and  N1_6 
REMARK    3  A    between atoms: C4_8  and  C5_9 
ROOT
HETATM    1  N1  UNL     1      24.113   0.552  52.345  1.00  0.00    -0.233 N 
HETATM    2  N2  UNL     1      23.684   1.404  51.294  1.00  0.00    -0.173 NA
HETATM    3  C4  UNL     1      22.678   2.169  51.213  1.00  0.00     0.065 C 
HETATM    4  C11 UNL     1      21.645   2.371  52.248  1.00  0.00     0.066 C 
HETATM    5  C12 UNL     1      20.941   1.012  52.368  1.00  0.00     0.042 C 
HETATM    6  C13 UNL     1      21.823   0.014  53.018  1.00  0.00    -0.055 C 
HETATM    7  C14 UNL     1      21.025  -0.767  53.758  1.00  0.00    -0.018 C 
HETATM    8  C15 UNL     1      21.726  -1.864  54.515  1.00  0.00     0.054 C 
HETATM    9  C16 UNL     1      22.906  -1.264  55.198  1.00  0.00    -0.025 C 
HETATM   10  C17 UNL     1      23.703  -0.473  54.475  1.00  0.00     0.001 C 
HETATM   11  C18 UNL     1      23.244  -0.332  53.071  1.00  0.00     0.164 C 
ENDROOT
BRANCH   1  12
HETATM   12  C3  UNL     1      25.526   0.506  52.783  1.00  0.00     0.192 A 
HETATM   13  S1  UNL     1      26.823  -0.758  52.902  1.00  0.00    -0.058 SA
HETATM   14  C2  UNL     1      28.059   0.502  53.606  1.00  0.00     0.111 A 
HETATM   15  C1  UNL     1      27.273   1.629  53.621  1.00  0.00     0.171 A 
HETATM   16  N3  UNL     1      26.028   1.541  53.196  1.00  0.00    -0.198 NA
BRANCH  15  17
HETATM   17  O1  UNL     1      27.895   2.800  54.106  1.00  0.00    -0.344 OA
HETATM   18  H1  UNL     1      28.431   2.788  54.965  1.00  0.00     0.219 HD
ENDBRANCH  15  17
ENDBRANCH   1  12
BRANCH   3  19
HETATM   19  C5  UNL     1      22.620   2.871  49.935  1.00  0.00    -0.010 A 
HETATM   20  C6  UNL     1      22.297   2.160  48.799  1.00  0.00     0.016 A 
HETATM   21  C7  UNL     1      22.214   2.766  47.556  1.00  0.00     0.043 A 
HETATM   22  C8  UNL     1      22.460   4.127  47.423  1.00  0.00     0.116 A 
HETATM   23  F1  UNL     1      22.390   4.769  46.212  1.00  0.00    -0.206 F 
HETATM   24  C9  UNL     1      22.789   4.878  48.547  1.00  0.00     0.043 A 
HETATM   25  C10 UNL     1      22.854   4.217  49.749  1.00  0.00     0.016 A 
ENDBRANCH   3  19
TORSDOF 3
ENDMDL
MODEL 7
REMARK VINA RESULT:      -8.7      4.687      7.243
REMARK  3 active torsions:
REMARK  status: ('A' for Active; 'I' for Inactive)
REMARK    1  A    between atoms: O1_1  and  C1_2 
REMARK    2  A    between atoms: C3_5  and  N1_6 
REMARK    3  A    between atoms: C4_8  and  C5_9 
ROOT
HETATM    1  N1  UNL     1      23.053   1.431  52.198  1.00  0.00    -0.233 N 
HETATM    2  N2  UNL     1      21.734   0.911  52.136  1.00  0.00    -0.173 NA
HETATM    3  C4  UNL     1      21.021   0.364  53.029  1.00  0.00     0.065 C 
HETATM    4  C11 UNL     1      21.412   0.117  54.430  1.00  0.00     0.066 C 
HETATM    5  C12 UNL     1      22.560  -0.898  54.343  1.00  0.00     0.042 C 
HETATM    6  C13 UNL     1      23.786  -0.265  53.800  1.00  0.00    -0.055 C 
HETATM    7  C14 UNL     1      24.817  -0.840  54.433  1.00  0.00    -0.018 C 
HETATM    8  C15 UNL     1      26.177  -0.337  54.028  1.00  0.00     0.054 C 
HETATM    9  C16 UNL     1      26.131   1.152  54.026  1.00  0.00    -0.025 C 
HETATM   10  C17 UNL     1      25.101   1.738  53.409  1.00  0.00     0.001 C 
HETATM   11  C18 UNL     1      24.157   0.755  52.820  1.00  0.00     0.164 C 
ENDROOT
BRANCH   1  12
HETATM   12  C3  UNL     1      23.401   2.744  51.609  1.00  0.00     0.192 A 
HETATM   13  S1  UNL     1      24.592   3.360  50.386  1.00  0.00    -0.058 SA
HETATM   14  C2  UNL     1      23.979   5.145  50.610  1.00  0.00     0.111 A 
HETATM   15  C1  UNL     1      23.002   4.947  51.554  1.00  0.00     0.171 A 
HETATM   16  N3  UNL     1      22.781   3.724  51.995  1.00  0.00    -0.198 NA
BRANCH  15  17
HETATM   17  O1  UNL     1      22.313   6.107  51.971  1.00  0.00    -0.344 OA
HETATM   18  H1  UNL     1      22.280   6.371  52.948  1.00  0.00     0.219 HD
ENDBRANCH  15  17
ENDBRANCH   1  12
BRANCH   3  19
HETATM   19  C5  UNL     1      19.708  -0.027  52.526  1.00  0.00    -0.010 A 
HETATM   20  C6  UNL     1      18.927  -0.868  53.290  1.00  0.00     0.016 A 
HETATM   21  C7  UNL     1      17.668  -1.271  52.877  1.00  0.00     0.043 A 
HETATM   22  C8  UNL     1      17.155  -0.832  51.662  1.00  0.00     0.116 A 
HETATM   23  F1  UNL     1      15.913  -1.205  51.213  1.00  0.00    -0.206 F 
HETATM   24  C9  UNL     1      17.915   0.018  50.864  1.00  0.00     0.043 A 
HETATM   25  C10 UNL     1      19.154   0.380  51.331  1.00  0.00     0.016 A 
ENDBRANCH   3  19
TORSDOF 3
ENDMDL
MODEL 8
REMARK VINA RESULT:      -8.6      3.800      6.211
REMARK  3 active torsions:
REMARK  status: ('A' for Active; 'I' for Inactive)
REMARK    1  A    between atoms: O1_1  and  C1_2 
REMARK    2  A    between atoms: C3_5  and  N1_6 
REMARK    3  A    between atoms: C4_8  and  C5_9 
ROOT
HETATM    1  N1  UNL     1      24.064   2.096  52.539  1.00  0.00    -0.233 N 
HETATM    2  N2  UNL     1      25.278   1.416  52.820  1.00  0.00    -0.173 NA
HETATM    3  C4  UNL     1      25.541   0.177  52.844  1.00  0.00     0.065 C 
HETATM    4  C11 UNL     1      24.595  -0.924  52.575  1.00  0.00     0.066 C 
HETATM    5  C12 UNL     1      23.568  -0.844  53.713  1.00  0.00     0.042 C 
HETATM    6  C13 UNL     1      22.694   0.343  53.555  1.00  0.00    -0.055 C 
HETATM    7  C14 UNL     1      21.482  -0.023  53.990  1.00  0.00    -0.018 C 
HETATM    8  C15 UNL     1      20.426   1.048  53.918  1.00  0.00     0.054 C 
HETATM    9  C16 UNL     1      20.499   1.670  52.566  1.00  0.00    -0.025 C 
HETATM   10  C17 UNL     1      21.704   2.027  52.114  1.00  0.00     0.001 C 
HETATM   11  C18 UNL     1      22.788   1.724  53.082  1.00  0.00     0.164 C 
ENDROOT
BRANCH   1  12
HETATM   12  C3  UNL     1      24.021   3.273  51.643  1.00  0.00     0.192 A 
HETATM   13  S1  UNL     1      23.859   3.559  49.858  1.00  0.00    -0.058 SA
HETATM   14  C2  UNL     1      23.971   5.442  50.096  1.00  0.00     0.111 A 
HETATM   15  C1  UNL     1      24.109   5.504  51.462  1.00  0.00     0.171 A 
HETATM   16  N3  UNL     1      24.124   4.380  52.151  1.00  0.00    -0.198 NA
BRANCH  15  17
HETATM   17  O1  UNL     1      24.225   6.802  52.004  1.00  0.00    -0.344 OA
HETATM   18  H1  UNL     1      24.773   6.971  52.839  1.00  0.00     0.219 HD
ENDBRANCH  15  17
ENDBRANCH   1  12
BRANCH   3  19
HETATM   19  C5  UNL     1      26.935  -0.086  53.184  1.00  0.00    -0.010 A 
HETATM   20  C6  UNL     1      27.469  -1.323  52.894  1.00  0.00     0.016 A 
HETATM   21  C7  UNL     1      28.787  -1.637  53.181  1.00  0.00     0.043 A 
HETATM   22  C8  UNL     1      29.616  -0.695  53.780  1.00  0.00     0.116 A 
HETATM   23  F1  UNL     1      30.928  -0.961  54.083  1.00  0.00    -0.206 F 
HETATM   24  C9  UNL     1      29.112   0.565  54.088  1.00  0.00     0.043 A 
HETATM   25  C10 UNL     1      27.798   0.811  53.777  1.00  0.00     0.016 A 
ENDBRANCH   3  19
TORSDOF 3
ENDMDL
MODEL 9
REMARK VINA RESULT:      -8.2      3.264      4.757
REMARK  3 active torsions:
REMARK  status: ('A' for Active; 'I' for Inactive)
REMARK    1  A    between atoms: O1_1  and  C1_2 
REMARK    2  A    between atoms: C3_5  and  N1_6 
REMARK    3  A    between atoms: C4_8  and  C5_9 
ROOT
HETATM    1  N1  UNL     1      23.906   2.014  52.236  1.00  0.00    -0.233 N 
HETATM    2  N2  UNL     1      24.540   2.976  51.406  1.00  0.00    -0.173 NA
HETATM    3  C4  UNL     1      25.652   2.936  50.801  1.00  0.00     0.065 C 
HETATM    4  C11 UNL     1      26.616   1.819  50.813  1.00  0.00     0.066 C 
HETATM    5  C12 UNL     1      27.098   1.735  52.268  1.00  0.00     0.042 C 
HETATM    6  C13 UNL     1      26.028   1.214  53.151  1.00  0.00    -0.055 C 
HETATM    7  C14 UNL     1      26.639   0.469  54.082  1.00  0.00    -0.018 C 
HETATM    8  C15 UNL     1      25.724  -0.164  55.096  1.00  0.00     0.054 C 
HETATM    9  C16 UNL     1      24.595  -0.798  54.359  1.00  0.00    -0.025 C 
HETATM   10  C17 UNL     1      23.986  -0.071  53.419  1.00  0.00     0.001 C 
HETATM   11  C18 UNL     1      24.573   1.286  53.278  1.00  0.00     0.164 C 
ENDROOT
BRANCH   1  12
HETATM   12  C3  UNL     1      22.472   1.683  52.087  1.00  0.00     0.192 A 
HETATM   13  S1  UNL     1      21.505   0.227  51.596  1.00  0.00    -0.058 SA
HETATM   14  C2  UNL     1      19.871   1.170  51.825  1.00  0.00     0.111 A 
HETATM   15  C1  UNL     1      20.352   2.394  52.223  1.00  0.00     0.171 A 
HETATM   16  N3  UNL     1      21.656   2.561  52.326  1.00  0.00    -0.198 NA
BRANCH  15  17
HETATM   17  O1  UNL     1      19.374   3.376  52.488  1.00  0.00    -0.344 OA
HETATM   18  H1  UNL     1      18.974   3.929  51.740  1.00  0.00     0.219 HD
ENDBRANCH  15  17
ENDBRANCH   1  12
BRANCH   3  19
HETATM   19  C5  UNL     1      25.917   4.160  50.051  1.00  0.00    -0.010 A 
HETATM   20  C6  UNL     1      27.050   4.227  49.268  1.00  0.00     0.016 A 
HETATM   21  C7  UNL     1      27.357   5.354  48.523  1.00  0.00     0.043 A 
HETATM   22  C8  UNL     1      26.518   6.462  48.549  1.00  0.00     0.116 A 
HETATM   23  F1  UNL     1      26.782   7.599  47.828  1.00  0.00    -0.206 F 
HETATM   24  C9  UNL     1      25.365   6.430  49.328  1.00  0.00     0.043 A 
HETATM   25  C10 UNL     1      25.119   5.283  50.042  1.00  0.00     0.016 A 
ENDBRANCH   3  19
TORSDOF 3
ENDMDL
