MODEL 1
REMARK VINA RESULT:      -7.7      0.000      0.000
REMARK  9 active torsions:
REMARK  status: ('A' for Active; 'I' for Inactive)
REMARK    1  A    between atoms: C2_2  and  N1_3 
REMARK    2  A    between atoms: N1_3  and  C3_4 
REMARK    3  A    between atoms: N1_3  and  C5_6 
REMARK    4  A    between atoms: C5_6  and  C6_7 
REMARK    5  A    between atoms: C6_7  and  C7_8 
REMARK    6  A    between atoms: C8_9  and  C9_10 
REMARK       I    between atoms: C9_10  and  N2_12 
REMARK    7  A    between atoms: N2_12  and  C10_13 
REMARK    8  A    between atoms: N3_19  and  C16_20 
REMARK    9  A    between atoms: C17_21  and  C18_22 
ROOT
HETATM    1  C10 UNL     1      25.919   3.127  50.304  1.00  0.00     0.037 A 
HETATM    2  C11 UNL     1      24.723   3.202  49.586  1.00  0.00     0.030 A 
HETATM    3  C12 UNL     1      23.575   2.534  50.020  1.00  0.00     0.013 A 
HETATM    4  C13 UNL     1      23.621   1.786  51.176  1.00  0.00    -0.011 A 
HETATM    5  C14 UNL     1      24.805   1.716  51.875  1.00  0.00     0.050 A 
HETATM    6  C15 UNL     1      25.929   2.370  51.452  1.00  0.00     0.060 A 
HETATM    7  N3  UNL     1      24.872   0.952  53.066  1.00  0.00    -0.316 N 
HETATM    8  C20 UNL     1      23.663   0.299  53.449  1.00  0.00     0.208 A 
HETATM    9  N4  UNL     1      22.551   0.348  52.816  1.00  0.00    -0.280 NA
HETATM   10  C21 UNL     1      22.377   1.099  51.592  1.00  0.00     0.191 A 
ENDROOT
BRANCH   1  11
HETATM   11  N2  UNL     1      26.944   3.879  49.679  1.00  0.00    -0.316 N 
HETATM   12  C9  UNL     1      26.978   5.086  48.925  1.00  0.00     0.300 C 
HETATM   13  O1  UNL     1      25.961   5.768  48.660  1.00  0.00    -0.258 OA
HETATM   14  H15 UNL     1      27.848   3.355  49.866  1.00  0.00     0.170 HD
BRANCH  12  15
HETATM   15  C8  UNL     1      28.230   5.576  48.424  1.00  0.00    -0.005 C 
HETATM   16  C7  UNL     1      29.305   5.975  47.999  1.00  0.00    -0.095 C 
BRANCH  16  17
HETATM   17  C6  UNL     1      30.617   6.446  47.458  1.00  0.00     0.114 C 
BRANCH  17  18
HETATM   18  C5  UNL     1      31.645   6.016  48.469  1.00  0.00     0.129 C 
BRANCH  18  19
HETATM   19  N1  UNL     1      32.645   5.242  47.865  1.00  0.00    -0.412 N 
BRANCH  19  20
HETATM   20  C2  UNL     1      33.921   5.830  47.671  1.00  0.00     0.112 C 
HETATM   21  C1  UNL     1      35.000   5.387  48.606  1.00  0.00     0.026 C 
ENDBRANCH  19  20
BRANCH  19  22
HETATM   22  C3  UNL     1      32.569   3.850  47.821  1.00  0.00     0.112 C 
HETATM   23  C4  UNL     1      32.212   3.288  46.451  1.00  0.00     0.026 C 
ENDBRANCH  19  22
ENDBRANCH  18  19
ENDBRANCH  17  18
ENDBRANCH  16  17
ENDBRANCH  12  15
ENDBRANCH   1  11
BRANCH   7  24
HETATM   24  C16 UNL     1      26.080   0.854  53.819  1.00  0.00     0.098 C 
HETATM   25  C17 UNL     1      26.835  -0.212  53.613  1.00  0.00     0.020 C 
BRANCH  25  26
HETATM   26  C18 UNL     1      26.433  -1.227  52.658  1.00  0.00     0.031 C 
HETATM   27  C19 UNL     1      27.175  -2.306  52.501  1.00  0.00     0.188 C 
HETATM   28  F1  UNL     1      28.272  -3.001  52.853  1.00  0.00    -0.219 F 
ENDBRANCH  25  26
ENDBRANCH   7  24
TORSDOF 9
ENDMDL
MODEL 2
REMARK VINA RESULT:      -7.7      1.952      2.686
REMARK  9 active torsions:
REMARK  status: ('A' for Active; 'I' for Inactive)
REMARK    1  A    between atoms: C2_2  and  N1_3 
REMARK    2  A    between atoms: N1_3  and  C3_4 
REMARK    3  A    between atoms: N1_3  and  C5_6 
REMARK    4  A    between atoms: C5_6  and  C6_7 
REMARK    5  A    between atoms: C6_7  and  C7_8 
REMARK    6  A    between atoms: C8_9  and  C9_10 
REMARK       I    between atoms: C9_10  and  N2_12 
REMARK    7  A    between atoms: N2_12  and  C10_13 
REMARK    8  A    between atoms: N3_19  and  C16_20 
REMARK    9  A    between atoms: C17_21  and  C18_22 
ROOT
HETATM    1  C10 UNL     1      24.827   2.811  51.393  1.00  0.00     0.037 A 
HETATM    2  C11 UNL     1      23.481   2.593  51.090  1.00  0.00     0.030 A 
HETATM    3  C12 UNL     1      22.741   1.607  51.748  1.00  0.00     0.013 A 
HETATM    4  C13 UNL     1      23.349   0.834  52.712  1.00  0.00    -0.011 A 
HETATM    5  C14 UNL     1      24.676   1.054  53.002  1.00  0.00     0.050 A 
HETATM    6  C15 UNL     1      25.401   2.020  52.360  1.00  0.00     0.060 A 
HETATM    7  N3  UNL     1      25.318   0.270  53.992  1.00  0.00    -0.316 N 
HETATM    8  C20 UNL     1      24.502  -0.716  54.623  1.00  0.00     0.208 A 
HETATM    9  N4  UNL     1      23.268  -0.941  54.370  1.00  0.00    -0.280 NA
HETATM   10  C21 UNL     1      22.520  -0.197  53.381  1.00  0.00     0.191 A 
ENDROOT
BRANCH   1  11
HETATM   11  N2  UNL     1      25.370   3.856  50.605  1.00  0.00    -0.316 N 
HETATM   12  C9  UNL     1      26.380   3.931  49.605  1.00  0.00     0.300 C 
HETATM   13  O1  UNL     1      27.039   2.942  49.210  1.00  0.00    -0.258 OA
HETATM   14  H15 UNL     1      24.850   4.737  50.889  1.00  0.00     0.170 HD
BRANCH  12  15
HETATM   15  C8  UNL     1      26.686   5.194  48.997  1.00  0.00    -0.005 C 
HETATM   16  C7  UNL     1      26.941   6.280  48.496  1.00  0.00    -0.095 C 
BRANCH  16  17
HETATM   17  C6  UNL     1      27.271   7.613  47.903  1.00  0.00     0.114 C 
BRANCH  17  18
HETATM   18  C5  UNL     1      28.641   7.456  47.302  1.00  0.00     0.129 C 
BRANCH  18  19
HETATM   19  N1  UNL     1      29.633   7.823  48.221  1.00  0.00    -0.412 N 
BRANCH  19  20
HETATM   20  C2  UNL     1      29.383   8.934  49.067  1.00  0.00     0.112 C 
HETATM   21  C1  UNL     1      30.575   9.746  49.460  1.00  0.00     0.026 C 
ENDBRANCH  19  20
BRANCH  19  22
HETATM   22  C3  UNL     1      30.637   6.937  48.611  1.00  0.00     0.112 C 
HETATM   23  C4  UNL     1      30.556   5.571  47.941  1.00  0.00     0.026 C 
ENDBRANCH  19  22
ENDBRANCH  18  19
ENDBRANCH  17  18
ENDBRANCH  16  17
ENDBRANCH  12  15
ENDBRANCH   1  11
BRANCH   7  24
HETATM   24  C16 UNL     1      26.692   0.468  54.322  1.00  0.00     0.098 C 
HETATM   25  C17 UNL     1      27.573  -0.329  53.739  1.00  0.00     0.020 C 
BRANCH  25  26
HETATM   26  C18 UNL     1      27.139  -1.353  52.808  1.00  0.00     0.031 C 
HETATM   27  C19 UNL     1      27.794  -2.497  52.745  1.00  0.00     0.188 C 
HETATM   28  F1  UNL     1      28.804  -3.263  53.194  1.00  0.00    -0.219 F 
ENDBRANCH  25  26
ENDBRANCH   7  24
TORSDOF 9
ENDMDL
MODEL 3
REMARK VINA RESULT:      -7.5      3.071      4.424
REMARK  9 active torsions:
REMARK  status: ('A' for Active; 'I' for Inactive)
REMARK    1  A    between atoms: C2_2  and  N1_3 
REMARK    2  A    between atoms: N1_3  and  C3_4 
REMARK    3  A    between atoms: N1_3  and  C5_6 
REMARK    4  A    between atoms: C5_6  and  C6_7 
REMARK    5  A    between atoms: C6_7  and  C7_8 
REMARK    6  A    between atoms: C8_9  and  C9_10 
REMARK       I    between atoms: C9_10  and  N2_12 
REMARK    7  A    between atoms: N2_12  and  C10_13 
REMARK    8  A    between atoms: N3_19  and  C16_20 
REMARK    9  A    between atoms: C17_21  and  C18_22 
ROOT
HETATM    1  C10 UNL     1      25.912   2.595  51.130  1.00  0.00     0.037 A 
HETATM    2  C11 UNL     1      26.730   1.577  51.627  1.00  0.00     0.030 A 
HETATM    3  C12 UNL     1      26.212   0.561  52.435  1.00  0.00     0.013 A 
HETATM    4  C13 UNL     1      24.871   0.561  52.748  1.00  0.00    -0.011 A 
HETATM    5  C14 UNL     1      24.073   1.569  52.256  1.00  0.00     0.050 A 
HETATM    6  C15 UNL     1      24.578   2.563  51.465  1.00  0.00     0.060 A 
HETATM    7  N3  UNL     1      22.692   1.585  52.567  1.00  0.00    -0.316 N 
HETATM    8  C20 UNL     1      22.233   0.516  53.394  1.00  0.00     0.208 A 
HETATM    9  N4  UNL     1      22.954  -0.431  53.865  1.00  0.00    -0.280 NA
HETATM   10  C21 UNL     1      24.373  -0.540  53.606  1.00  0.00     0.191 A 
ENDROOT
BRANCH   1  11
HETATM   11  N2  UNL     1      26.649   3.510  50.340  1.00  0.00    -0.316 N 
HETATM   12  C9  UNL     1      26.310   4.472  49.348  1.00  0.00     0.300 C 
HETATM   13  O1  UNL     1      25.137   4.691  48.967  1.00  0.00    -0.258 OA
HETATM   14  H15 UNL     1      27.667   3.380  50.615  1.00  0.00     0.170 HD
BRANCH  12  15
HETATM   15  C8  UNL     1      27.344   5.251  48.730  1.00  0.00    -0.005 C 
HETATM   16  C7  UNL     1      28.224   5.929  48.218  1.00  0.00    -0.095 C 
BRANCH  16  17
HETATM   17  C6  UNL     1      29.314   6.756  47.614  1.00  0.00     0.114 C 
BRANCH  17  18
HETATM   18  C5  UNL     1      28.838   8.180  47.712  1.00  0.00     0.129 C 
BRANCH  18  19
HETATM   19  N1  UNL     1      29.219   8.749  48.935  1.00  0.00    -0.412 N 
BRANCH  19  20
HETATM   20  C2  UNL     1      30.605   8.866  49.215  1.00  0.00     0.112 C 
HETATM   21  C1  UNL     1      31.382   9.784  48.327  1.00  0.00     0.026 C 
ENDBRANCH  19  20
BRANCH  19  22
HETATM   22  C3  UNL     1      28.348   9.546  49.677  1.00  0.00     0.112 C 
HETATM   23  C4  UNL     1      27.046   8.854  50.063  1.00  0.00     0.026 C 
ENDBRANCH  19  22
ENDBRANCH  18  19
ENDBRANCH  17  18
ENDBRANCH  16  17
ENDBRANCH  12  15
ENDBRANCH   1  11
BRANCH   7  24
HETATM   24  C16 UNL     1      21.831   2.611  52.076  1.00  0.00     0.098 C 
HETATM   25  C17 UNL     1      21.074   2.316  51.032  1.00  0.00     0.020 C 
BRANCH  25  26
HETATM   26  C18 UNL     1      21.134   1.000  50.426  1.00  0.00     0.031 C 
HETATM   27  C19 UNL     1      21.492   0.879  49.162  1.00  0.00     0.188 C 
HETATM   28  F1  UNL     1      21.878   1.477  48.020  1.00  0.00    -0.219 F 
ENDBRANCH  25  26
ENDBRANCH   7  24
TORSDOF 9
ENDMDL
MODEL 4
REMARK VINA RESULT:      -7.5      2.192      3.428
REMARK  9 active torsions:
REMARK  status: ('A' for Active; 'I' for Inactive)
REMARK    1  A    between atoms: C2_2  and  N1_3 
REMARK    2  A    between atoms: N1_3  and  C3_4 
REMARK    3  A    between atoms: N1_3  and  C5_6 
REMARK    4  A    between atoms: C5_6  and  C6_7 
REMARK    5  A    between atoms: C6_7  and  C7_8 
REMARK    6  A    between atoms: C8_9  and  C9_10 
REMARK       I    between atoms: C9_10  and  N2_12 
REMARK    7  A    between atoms: N2_12  and  C10_13 
REMARK    8  A    between atoms: N3_19  and  C16_20 
REMARK    9  A    between atoms: C17_21  and  C18_22 
ROOT
HETATM    1  C10 UNL     1      25.979   2.496  51.108  1.00  0.00     0.037 A 
HETATM    2  C11 UNL     1      26.715   1.448  51.666  1.00  0.00     0.030 A 
HETATM    3  C12 UNL     1      26.104   0.479  52.465  1.00  0.00     0.013 A 
HETATM    4  C13 UNL     1      24.750   0.556  52.710  1.00  0.00    -0.011 A 
HETATM    5  C14 UNL     1      24.034   1.594  52.158  1.00  0.00     0.050 A 
HETATM    6  C15 UNL     1      24.631   2.543  51.375  1.00  0.00     0.060 A 
HETATM    7  N3  UNL     1      22.641   1.690  52.398  1.00  0.00    -0.316 N 
HETATM    8  C20 UNL     1      22.084   0.666  53.221  1.00  0.00     0.208 A 
HETATM    9  N4  UNL     1      22.729  -0.307  53.746  1.00  0.00    -0.280 NA
HETATM   10  C21 UNL     1      24.151  -0.497  53.563  1.00  0.00     0.191 A 
ENDROOT
BRANCH   1  11
HETATM   11  N2  UNL     1      26.804   3.353  50.339  1.00  0.00    -0.316 N 
HETATM   12  C9  UNL     1      26.561   4.364  49.367  1.00  0.00     0.300 C 
HETATM   13  O1  UNL     1      25.416   4.701  48.987  1.00  0.00    -0.258 OA
HETATM   14  H15 UNL     1      27.803   3.122  50.614  1.00  0.00     0.170 HD
BRANCH  12  15
HETATM   15  C8  UNL     1      27.668   5.054  48.768  1.00  0.00    -0.005 C 
HETATM   16  C7  UNL     1      28.598   5.658  48.254  1.00  0.00    -0.095 C 
BRANCH  16  17
HETATM   17  C6  UNL     1      29.734   6.416  47.644  1.00  0.00     0.114 C 
BRANCH  17  18
HETATM   18  C5  UNL     1      30.893   6.226  48.584  1.00  0.00     0.129 C 
BRANCH  18  19
HETATM   19  N1  UNL     1      31.990   5.667  47.915  1.00  0.00    -0.412 N 
BRANCH  19  20
HETATM   20  C2  UNL     1      33.070   6.520  47.570  1.00  0.00     0.112 C 
HETATM   21  C1  UNL     1      34.362   6.269  48.279  1.00  0.00     0.026 C 
ENDBRANCH  19  20
BRANCH  19  22
HETATM   22  C3  UNL     1      32.242   4.295  47.937  1.00  0.00     0.112 C 
HETATM   23  C4  UNL     1      32.057   3.606  46.591  1.00  0.00     0.026 C 
ENDBRANCH  19  22
ENDBRANCH  18  19
ENDBRANCH  17  18
ENDBRANCH  16  17
ENDBRANCH  12  15
ENDBRANCH   1  11
BRANCH   7  24
HETATM   24  C16 UNL     1      21.863   2.750  51.844  1.00  0.00     0.098 C 
HETATM   25  C17 UNL     1      21.158   2.477  50.758  1.00  0.00     0.020 C 
BRANCH  25  26
HETATM   26  C18 UNL     1      21.192   1.152  50.170  1.00  0.00     0.031 C 
HETATM   27  C19 UNL     1      21.610   0.999  48.928  1.00  0.00     0.188 C 
HETATM   28  F1  UNL     1      22.081   1.564  47.802  1.00  0.00    -0.219 F 
ENDBRANCH  25  26
ENDBRANCH   7  24
TORSDOF 9
ENDMDL
MODEL 5
REMARK VINA RESULT:      -7.2      3.265      4.978
REMARK  9 active torsions:
REMARK  status: ('A' for Active; 'I' for Inactive)
REMARK    1  A    between atoms: C2_2  and  N1_3 
REMARK    2  A    between atoms: N1_3  and  C3_4 
REMARK    3  A    between atoms: N1_3  and  C5_6 
REMARK    4  A    between atoms: C5_6  and  C6_7 
REMARK    5  A    between atoms: C6_7  and  C7_8 
REMARK    6  A    between atoms: C8_9  and  C9_10 
REMARK       I    between atoms: C9_10  and  N2_12 
REMARK    7  A    between atoms: N2_12  and  C10_13 
REMARK    8  A    between atoms: N3_19  and  C16_20 
REMARK    9  A    between atoms: C17_21  and  C18_22 
ROOT
HETATM    1  C10 UNL     1      24.622   1.790  51.965  1.00  0.00     0.037 A 
HETATM    2  C11 UNL     1      25.335   0.733  52.535  1.00  0.00     0.030 A 
HETATM    3  C12 UNL     1      24.707  -0.199  53.365  1.00  0.00     0.013 A 
HETATM    4  C13 UNL     1      23.361  -0.076  53.627  1.00  0.00    -0.011 A 
HETATM    5  C14 UNL     1      22.667   0.970  53.062  1.00  0.00     0.050 A 
HETATM    6  C15 UNL     1      23.280   1.883  52.249  1.00  0.00     0.060 A 
HETATM    7  N3  UNL     1      21.281   1.113  53.318  1.00  0.00    -0.316 N 
HETATM    8  C20 UNL     1      20.707   0.124  54.172  1.00  0.00     0.208 A 
HETATM    9  N4  UNL     1      21.330  -0.856  54.710  1.00  0.00    -0.280 NA
HETATM   10  C21 UNL     1      22.743  -1.092  54.511  1.00  0.00     0.191 A 
ENDROOT
BRANCH   1  11
HETATM   11  N2  UNL     1      25.461   2.605  51.165  1.00  0.00    -0.316 N 
HETATM   12  C9  UNL     1      25.318   3.250  49.904  1.00  0.00     0.300 C 
HETATM   13  O1  UNL     1      24.280   3.187  49.207  1.00  0.00    -0.258 OA
HETATM   14  H15 UNL     1      26.372   2.704  51.702  1.00  0.00     0.170 HD
BRANCH  12  15
HETATM   15  C8  UNL     1      26.406   4.020  49.373  1.00  0.00    -0.005 C 
HETATM   16  C7  UNL     1      27.338   4.661  48.907  1.00  0.00    -0.095 C 
BRANCH  16  17
HETATM   17  C6  UNL     1      28.465   5.444  48.313  1.00  0.00     0.114 C 
BRANCH  17  18
HETATM   18  C5  UNL     1      28.021   6.881  48.357  1.00  0.00     0.129 C 
BRANCH  18  19
HETATM   19  N1  UNL     1      29.117   7.735  48.546  1.00  0.00    -0.412 N 
BRANCH  19  20
HETATM   20  C2  UNL     1      30.420   7.180  48.461  1.00  0.00     0.112 C 
HETATM   21  C1  UNL     1      31.438   7.738  49.403  1.00  0.00     0.026 C 
ENDBRANCH  19  20
BRANCH  19  22
HETATM   22  C3  UNL     1      29.002   9.118  48.410  1.00  0.00     0.112 C 
HETATM   23  C4  UNL     1      29.223   9.625  46.990  1.00  0.00     0.026 C 
ENDBRANCH  19  22
ENDBRANCH  18  19
ENDBRANCH  17  18
ENDBRANCH  16  17
ENDBRANCH  12  15
ENDBRANCH   1  11
BRANCH   7  24
HETATM   24  C16 UNL     1      20.526   2.183  52.752  1.00  0.00     0.098 C 
HETATM   25  C17 UNL     1      19.708   1.883  51.756  1.00  0.00     0.020 C 
BRANCH  25  26
HETATM   26  C18 UNL     1      19.600   0.519  51.276  1.00  0.00     0.031 C 
HETATM   27  C19 UNL     1      18.425  -0.080  51.272  1.00  0.00     0.188 C 
HETATM   28  F1  UNL     1      17.108  -0.017  51.538  1.00  0.00    -0.219 F 
ENDBRANCH  25  26
ENDBRANCH   7  24
TORSDOF 9
ENDMDL
MODEL 6
REMARK VINA RESULT:      -7.0      1.915      3.012
REMARK  9 active torsions:
REMARK  status: ('A' for Active; 'I' for Inactive)
REMARK    1  A    between atoms: C2_2  and  N1_3 
REMARK    2  A    between atoms: N1_3  and  C3_4 
REMARK    3  A    between atoms: N1_3  and  C5_6 
REMARK    4  A    between atoms: C5_6  and  C6_7 
REMARK    5  A    between atoms: C6_7  and  C7_8 
REMARK    6  A    between atoms: C8_9  and  C9_10 
REMARK       I    between atoms: C9_10  and  N2_12 
REMARK    7  A    between atoms: N2_12  and  C10_13 
REMARK    8  A    between atoms: N3_19  and  C16_20 
REMARK    9  A    between atoms: C17_21  and  C18_22 
ROOT
HETATM    1  C10 UNL     1      26.052   3.426  50.097  1.00  0.00     0.037 A 
HETATM    2  C11 UNL     1      24.823   3.517  49.440  1.00  0.00     0.030 A 
HETATM    3  C12 UNL     1      23.702   2.824  49.903  1.00  0.00     0.013 A 
HETATM    4  C13 UNL     1      23.807   2.037  51.028  1.00  0.00    -0.011 A 
HETATM    5  C14 UNL     1      25.023   1.951  51.668  1.00  0.00     0.050 A 
HETATM    6  C15 UNL     1      26.122   2.629  51.216  1.00  0.00     0.060 A 
HETATM    7  N3  UNL     1      25.150   1.147  52.826  1.00  0.00    -0.316 N 
HETATM    8  C20 UNL     1      23.965   0.471  53.242  1.00  0.00     0.208 A 
HETATM    9  N4  UNL     1      22.824   0.533  52.664  1.00  0.00    -0.280 NA
HETATM   10  C21 UNL     1      22.588   1.325  51.477  1.00  0.00     0.191 A 
ENDROOT
BRANCH   1  11
HETATM   11  N2  UNL     1      27.042   4.208  49.452  1.00  0.00    -0.316 N 
HETATM   12  C9  UNL     1      27.055   5.491  48.836  1.00  0.00     0.300 C 
HETATM   13  O1  UNL     1      26.050   6.234  48.759  1.00  0.00    -0.258 OA
HETATM   14  H15 UNL     1      27.934   3.634  49.482  1.00  0.00     0.170 HD
BRANCH  12  15
HETATM   15  C8  UNL     1      28.271   5.991  48.261  1.00  0.00    -0.005 C 
HETATM   16  C7  UNL     1      29.296   6.432  47.761  1.00  0.00    -0.095 C 
BRANCH  16  17
HETATM   17  C6  UNL     1      30.546   6.994  47.161  1.00  0.00     0.114 C 
BRANCH  17  18
HETATM   18  C5  UNL     1      30.102   8.182  46.352  1.00  0.00     0.129 C 
BRANCH  18  19
HETATM   19  N1  UNL     1      30.360   9.376  47.039  1.00  0.00    -0.412 N 
BRANCH  19  20
HETATM   20  C2  UNL     1      29.254  10.162  47.453  1.00  0.00     0.112 C 
HETATM   21  C1  UNL     1      27.937   9.828  46.828  1.00  0.00     0.026 C 
ENDBRANCH  19  20
BRANCH  19  22
HETATM   22  C3  UNL     1      31.582   9.612  47.667  1.00  0.00     0.112 C 
HETATM   23  C4  UNL     1      32.209  10.958  47.326  1.00  0.00     0.026 C 
ENDBRANCH  19  22
ENDBRANCH  18  19
ENDBRANCH  17  18
ENDBRANCH  16  17
ENDBRANCH  12  15
ENDBRANCH   1  11
BRANCH   7  24
HETATM   24  C16 UNL     1      26.393   1.033  53.519  1.00  0.00     0.098 C 
HETATM   25  C17 UNL     1      27.066  -0.096  53.367  1.00  0.00     0.020 C 
BRANCH  25  26
HETATM   26  C18 UNL     1      26.545  -1.159  52.529  1.00  0.00     0.031 C 
HETATM   27  C19 UNL     1      27.195  -2.304  52.448  1.00  0.00     0.188 C 
HETATM   28  F1  UNL     1      28.249  -3.050  52.825  1.00  0.00    -0.219 F 
ENDBRANCH  25  26
ENDBRANCH   7  24
TORSDOF 9
ENDMDL
MODEL 7
REMARK VINA RESULT:      -6.8      5.081     11.468
REMARK  9 active torsions:
REMARK  status: ('A' for Active; 'I' for Inactive)
REMARK    1  A    between atoms: C2_2  and  N1_3 
REMARK    2  A    between atoms: N1_3  and  C3_4 
REMARK    3  A    between atoms: N1_3  and  C5_6 
REMARK    4  A    between atoms: C5_6  and  C6_7 
REMARK    5  A    between atoms: C6_7  and  C7_8 
REMARK    6  A    between atoms: C8_9  and  C9_10 
REMARK       I    between atoms: C9_10  and  N2_12 
REMARK    7  A    between atoms: N2_12  and  C10_13 
REMARK    8  A    between atoms: N3_19  and  C16_20 
REMARK    9  A    between atoms: C17_21  and  C18_22 
ROOT
HETATM    1  C10 UNL     1      22.822   0.352  52.504  1.00  0.00     0.037 A 
HETATM    2  C11 UNL     1      23.695  -0.205  53.442  1.00  0.00     0.030 A 
HETATM    3  C12 UNL     1      25.038   0.174  53.495  1.00  0.00     0.013 A 
HETATM    4  C13 UNL     1      25.514   1.114  52.608  1.00  0.00    -0.011 A 
HETATM    5  C14 UNL     1      24.647   1.656  51.686  1.00  0.00     0.050 A 
HETATM    6  C15 UNL     1      23.331   1.287  51.633  1.00  0.00     0.060 A 
HETATM    7  N3  UNL     1      25.117   2.625  50.766  1.00  0.00    -0.316 N 
HETATM    8  C20 UNL     1      26.498   2.965  50.880  1.00  0.00     0.208 A 
HETATM    9  N4  UNL     1      27.324   2.475  51.726  1.00  0.00    -0.280 NA
HETATM   10  C21 UNL     1      26.946   1.482  52.708  1.00  0.00     0.191 A 
ENDROOT
BRANCH   1  11
HETATM   11  N2  UNL     1      21.516  -0.180  52.635  1.00  0.00    -0.316 N 
HETATM   12  C9  UNL     1      20.506  -0.112  53.635  1.00  0.00     0.300 C 
HETATM   13  O1  UNL     1      20.633   0.521  54.708  1.00  0.00    -0.258 OA
HETATM   14  H15 UNL     1      21.336  -0.736  51.748  1.00  0.00     0.170 HD
BRANCH  12  15
HETATM   15  C8  UNL     1      19.260  -0.796  53.436  1.00  0.00    -0.005 C 
HETATM   16  C7  UNL     1      18.196  -1.370  53.248  1.00  0.00    -0.095 C 
BRANCH  16  17
HETATM   17  C6  UNL     1      16.905  -2.081  52.996  1.00  0.00     0.114 C 
BRANCH  17  18
HETATM   18  C5  UNL     1      15.992  -1.050  52.389  1.00  0.00     0.129 C 
BRANCH  18  19
HETATM   19  N1  UNL     1      15.308  -1.579  51.286  1.00  0.00    -0.412 N 
BRANCH  19  20
HETATM   20  C2  UNL     1      15.518  -0.981  50.018  1.00  0.00     0.112 C 
HETATM   21  C1  UNL     1      16.831  -0.290  49.824  1.00  0.00     0.026 C 
ENDBRANCH  19  20
BRANCH  19  22
HETATM   22  C3  UNL     1      14.772  -2.867  51.304  1.00  0.00     0.112 C 
HETATM   23  C4  UNL     1      13.330  -2.935  51.793  1.00  0.00     0.026 C 
ENDBRANCH  19  22
ENDBRANCH  18  19
ENDBRANCH  17  18
ENDBRANCH  16  17
ENDBRANCH  12  15
ENDBRANCH   1  11
BRANCH   7  24
HETATM   24  C16 UNL     1      24.251   3.211  49.795  1.00  0.00     0.098 C 
HETATM   25  C17 UNL     1      23.656   4.345  50.124  1.00  0.00     0.020 C 
BRANCH  25  26
HETATM   26  C18 UNL     1      23.886   4.950  51.422  1.00  0.00     0.031 C 
HETATM   27  C19 UNL     1      22.933   4.921  52.334  1.00  0.00     0.188 C 
HETATM   28  F1  UNL     1      21.686   4.548  52.675  1.00  0.00    -0.219 F 
ENDBRANCH  25  26
ENDBRANCH   7  24
TORSDOF 9
ENDMDL
MODEL 8
REMARK VINA RESULT:      -6.7      2.884      4.470
REMARK  9 active torsions:
REMARK  status: ('A' for Active; 'I' for Inactive)
REMARK    1  A    between atoms: C2_2  and  N1_3 
REMARK    2  A    between atoms: N1_3  and  C3_4 
REMARK    3  A    between atoms: N1_3  and  C5_6 
REMARK    4  A    between atoms: C5_6  and  C6_7 
REMARK    5  A    between atoms: C6_7  and  C7_8 
REMARK    6  A    between atoms: C8_9  and  C9_10 
REMARK       I    between atoms: C9_10  and  N2_12 
REMARK    7  A    between atoms: N2_12  and  C10_13 
REMARK    8  A    between atoms: N3_19  and  C16_20 
REMARK    9  A    between atoms: C17_21  and  C18_22 
ROOT
HETATM    1  C10 UNL     1      25.959   3.189  50.172  1.00  0.00     0.037 A 
HETATM    2  C11 UNL     1      26.382   2.361  51.215  1.00  0.00     0.030 A 
HETATM    3  C12 UNL     1      25.471   1.591  51.943  1.00  0.00     0.013 A 
HETATM    4  C13 UNL     1      24.131   1.648  51.629  1.00  0.00    -0.011 A 
HETATM    5  C14 UNL     1      23.723   2.469  50.601  1.00  0.00     0.050 A 
HETATM    6  C15 UNL     1      24.614   3.222  49.887  1.00  0.00     0.060 A 
HETATM    7  N3  UNL     1      22.350   2.540  50.263  1.00  0.00    -0.316 N 
HETATM    8  C20 UNL     1      21.479   1.726  51.047  1.00  0.00     0.208 A 
HETATM    9  N4  UNL     1      21.832   0.957  52.007  1.00  0.00    -0.280 NA
HETATM   10  C21 UNL     1      23.208   0.811  52.430  1.00  0.00     0.191 A 
ENDROOT
BRANCH   1  11
HETATM   11  N2  UNL     1      27.050   3.872  49.580  1.00  0.00    -0.316 N 
HETATM   12  C9  UNL     1      27.186   5.064  48.815  1.00  0.00     0.300 C 
HETATM   13  O1  UNL     1      26.222   5.800  48.502  1.00  0.00    -0.258 OA
HETATM   14  H15 UNL     1      27.914   3.297  49.809  1.00  0.00     0.170 HD
BRANCH  12  15
HETATM   15  C8  UNL     1      28.484   5.472  48.359  1.00  0.00    -0.005 C 
HETATM   16  C7  UNL     1      29.598   5.808  47.985  1.00  0.00    -0.095 C 
BRANCH  16  17
HETATM   17  C6  UNL     1      30.968   6.195  47.523  1.00  0.00     0.114 C 
BRANCH  17  18
HETATM   18  C5  UNL     1      31.903   5.221  48.186  1.00  0.00     0.129 C 
BRANCH  18  19
HETATM   19  N1  UNL     1      33.134   5.828  48.471  1.00  0.00    -0.412 N 
BRANCH  19  20
HETATM   20  C2  UNL     1      34.319   5.158  48.072  1.00  0.00     0.112 C 
HETATM   21  C1  UNL     1      34.217   4.313  46.843  1.00  0.00     0.026 C 
ENDBRANCH  19  20
BRANCH  19  22
HETATM   22  C3  UNL     1      33.233   7.192  48.747  1.00  0.00     0.112 C 
HETATM   23  C4  UNL     1      34.585   7.801  48.399  1.00  0.00     0.026 C 
ENDBRANCH  19  22
ENDBRANCH  18  19
ENDBRANCH  17  18
ENDBRANCH  16  17
ENDBRANCH  12  15
ENDBRANCH   1  11
BRANCH   7  24
HETATM   24  C16 UNL     1      21.887   3.377  49.205  1.00  0.00     0.098 C 
HETATM   25  C17 UNL     1      21.418   4.569  49.539  1.00  0.00     0.020 C 
BRANCH  25  26
HETATM   26  C18 UNL     1      21.385   4.985  50.928  1.00  0.00     0.031 C 
HETATM   27  C19 UNL     1      21.752   6.210  51.252  1.00  0.00     0.188 C 
HETATM   28  F1  UNL     1      22.201   7.413  50.851  1.00  0.00    -0.219 F 
ENDBRANCH  25  26
ENDBRANCH   7  24
TORSDOF 9
ENDMDL
MODEL 9
REMARK VINA RESULT:      -6.7      5.417     11.895
REMARK  9 active torsions:
REMARK  status: ('A' for Active; 'I' for Inactive)
REMARK    1  A    between atoms: C2_2  and  N1_3 
REMARK    2  A    between atoms: N1_3  and  C3_4 
REMARK    3  A    between atoms: N1_3  and  C5_6 
REMARK    4  A    between atoms: C5_6  and  C6_7 
REMARK    5  A    between atoms: C6_7  and  C7_8 
REMARK    6  A    between atoms: C8_9  and  C9_10 
REMARK       I    between atoms: C9_10  and  N2_12 
REMARK    7  A    between atoms: N2_12  and  C10_13 
REMARK    8  A    between atoms: N3_19  and  C16_20 
REMARK    9  A    between atoms: C17_21  and  C18_22 
ROOT
HETATM    1  C10 UNL     1      22.696   0.759  52.119  1.00  0.00     0.037 A 
HETATM    2  C11 UNL     1      23.602   0.137  52.980  1.00  0.00     0.030 A 
HETATM    3  C12 UNL     1      24.955   0.486  52.983  1.00  0.00     0.013 A 
HETATM    4  C13 UNL     1      25.406   1.461  52.121  1.00  0.00    -0.011 A 
HETATM    5  C14 UNL     1      24.506   2.067  51.274  1.00  0.00     0.050 A 
HETATM    6  C15 UNL     1      23.181   1.728  51.271  1.00  0.00     0.060 A 
HETATM    7  N3  UNL     1      24.950   3.073  50.382  1.00  0.00    -0.316 N 
HETATM    8  C20 UNL     1      26.343   3.379  50.441  1.00  0.00     0.208 A 
HETATM    9  N4  UNL     1      27.199   2.829  51.217  1.00  0.00    -0.280 NA
HETATM   10  C21 UNL     1      26.849   1.794  52.165  1.00  0.00     0.191 A 
ENDROOT
BRANCH   1  11
HETATM   11  N2  UNL     1      21.386   0.248  52.290  1.00  0.00    -0.316 N 
HETATM   12  C9  UNL     1      20.169   0.352  51.559  1.00  0.00     0.300 C 
HETATM   13  O1  UNL     1      20.052   1.007  50.498  1.00  0.00    -0.258 OA
HETATM   14  H15 UNL     1      21.411  -0.327  53.183  1.00  0.00     0.170 HD
BRANCH  12  15
HETATM   15  C8  UNL     1      18.993  -0.315  52.038  1.00  0.00    -0.005 C 
HETATM   16  C7  UNL     1      17.980  -0.878  52.429  1.00  0.00    -0.095 C 
BRANCH  16  17
HETATM   17  C6  UNL     1      16.741  -1.580  52.886  1.00  0.00     0.114 C 
BRANCH  17  18
HETATM   18  C5  UNL     1      17.202  -2.924  53.380  1.00  0.00     0.129 C 
BRANCH  18  19
HETATM   19  N1  UNL     1      16.229  -3.904  53.136  1.00  0.00    -0.412 N 
BRANCH  19  20
HETATM   20  C2  UNL     1      16.328  -5.134  53.837  1.00  0.00     0.112 C 
HETATM   21  C1  UNL     1      15.242  -5.420  54.823  1.00  0.00     0.026 C 
ENDBRANCH  19  20
BRANCH  19  22
HETATM   22  C3  UNL     1      14.994  -3.587  52.573  1.00  0.00     0.112 C 
HETATM   23  C4  UNL     1      14.697  -4.319  51.269  1.00  0.00     0.026 C 
ENDBRANCH  19  22
ENDBRANCH  18  19
ENDBRANCH  17  18
ENDBRANCH  16  17
ENDBRANCH  12  15
ENDBRANCH   1  11
BRANCH   7  24
HETATM   24  C16 UNL     1      24.050   3.726  49.489  1.00  0.00     0.098 C 
HETATM   25  C17 UNL     1      23.623   4.929  49.835  1.00  0.00     0.020 C 
BRANCH  25  26
HETATM   26  C18 UNL     1      24.063   5.539  51.075  1.00  0.00     0.031 C 
HETATM   27  C19 UNL     1      24.031   6.852  51.203  1.00  0.00     0.188 C 
HETATM   28  F1  UNL     1      23.746   8.049  50.658  1.00  0.00    -0.219 F 
ENDBRANCH  25  26
ENDBRANCH   7  24
TORSDOF 9
ENDMDL
