MODEL 1
REMARK VINA RESULT:      -6.3      0.000      0.000
REMARK  6 active torsions:
REMARK  status: ('A' for Active; 'I' for Inactive)
REMARK    1  A    between atoms: C2_2  and  C3_4 
REMARK    2  A    between atoms: C10_13  and  C11_14 
REMARK    3  A    between atoms: C11_14  and  C12_15 
REMARK    4  A    between atoms: C12_15  and  C14_17 
REMARK    5  A    between atoms: C14_17  and  O2_18 
REMARK    6  A    between atoms: C16_20  and  N3_21 
ROOT
HETATM    1  C3  UNL     1      25.636   1.728  51.501  1.00  0.00     0.121 C 
HETATM    2  C4  UNL     1      26.145   0.346  51.821  1.00  0.00    -0.013 C 
HETATM    3  C5  UNL     1      26.095  -1.036  51.754  1.00  0.00    -0.027 C 
HETATM    4  C6  UNL     1      27.253  -1.552  52.616  1.00  0.00     0.068 C 
HETATM    5  C7  UNL     1      27.436  -0.364  53.596  1.00  0.00     0.119 A 
HETATM    6  N1  UNL     1      28.427   0.334  53.862  1.00  0.00    -0.264 NA
HETATM    7  C8  UNL     1      28.959   1.385  54.355  1.00  0.00     0.223 A 
HETATM    8  N2  UNL     1      27.684   1.830  54.697  1.00  0.00    -0.261 NA
HETATM    9  C9  UNL     1      26.675   0.986  54.369  1.00  0.00     0.132 A 
HETATM   10  C10 UNL     1      26.062  -0.115  53.881  1.00  0.00    -0.009 A 
HETATM   11  C15 UNL     1      25.823   2.270  54.225  1.00  0.00     0.034 C 
HETATM   12  C16 UNL     1      25.461   2.431  52.869  1.00  0.00    -0.003 C 
ENDROOT
BRANCH  10  13
HETATM   13  C11 UNL     1      24.700   0.147  54.177  1.00  0.00     0.013 C 
BRANCH  13  14
HETATM   14  C12 UNL     1      23.990  -0.839  54.684  1.00  0.00    -0.060 C 
HETATM   15  C13 UNL     1      24.491  -1.487  55.908  1.00  0.00     0.045 C 
BRANCH  14  16
HETATM   16  C14 UNL     1      22.664  -1.342  54.191  1.00  0.00     0.198 C 
BRANCH  16  17
HETATM   17  O2  UNL     1      21.850  -1.748  55.246  1.00  0.00    -0.397 OA
HETATM   18  H16 UNL     1      21.241  -0.959  55.446  1.00  0.00     0.209 HD
ENDBRANCH  16  17
ENDBRANCH  14  16
ENDBRANCH  13  14
ENDBRANCH  10  13
BRANCH  12  19
HETATM   19  N3  UNL     1      24.655   3.609  52.604  1.00  0.00    -0.305 N 
HETATM   20  H18 UNL     1      24.325   3.540  51.593  1.00  0.00     0.124 HD
HETATM   21  H19 UNL     1      24.351   3.509  51.607  1.00  0.00     0.124 HD
ENDBRANCH  12  19
BRANCH   1  22
HETATM   22  C2  UNL     1      26.446   2.539  50.638  1.00  0.00     0.136 C 
HETATM   23  C1  UNL     1      26.713   3.219  49.373  1.00  0.00     0.092 C 
HETATM   24  O1  UNL     1      27.478   2.827  51.306  1.00  0.00    -0.297 OA
ENDBRANCH   1  22
TORSDOF 6
ENDMDL
MODEL 2
REMARK VINA RESULT:      -6.2      8.551     11.075
REMARK  6 active torsions:
REMARK  status: ('A' for Active; 'I' for Inactive)
REMARK    1  A    between atoms: C2_2  and  C3_4 
REMARK    2  A    between atoms: C10_13  and  C11_14 
REMARK    3  A    between atoms: C11_14  and  C12_15 
REMARK    4  A    between atoms: C12_15  and  C14_17 
REMARK    5  A    between atoms: C14_17  and  O2_18 
REMARK    6  A    between atoms: C16_20  and  N3_21 
ROOT
HETATM    1  C3  UNL     1      30.454   6.060  48.415  1.00  0.00     0.121 C 
HETATM    2  C4  UNL     1      31.221   5.168  47.473  1.00  0.00    -0.013 C 
HETATM    3  C5  UNL     1      31.850   3.984  47.127  1.00  0.00    -0.027 C 
HETATM    4  C6  UNL     1      32.435   4.199  45.727  1.00  0.00     0.068 C 
HETATM    5  C7  UNL     1      32.603   5.741  45.716  1.00  0.00     0.119 A 
HETATM    6  N1  UNL     1      32.169   6.607  44.942  1.00  0.00    -0.264 NA
HETATM    7  C8  UNL     1      31.894   7.821  44.657  1.00  0.00     0.223 A 
HETATM    8  N2  UNL     1      32.363   8.187  45.917  1.00  0.00    -0.261 NA
HETATM    9  C9  UNL     1      32.824   7.165  46.678  1.00  0.00     0.132 A 
HETATM   10  C10 UNL     1      33.151   5.900  47.022  1.00  0.00    -0.009 A 
HETATM   11  C15 UNL     1      32.356   8.020  47.879  1.00  0.00     0.034 C 
HETATM   12  C16 UNL     1      31.286   7.360  48.524  1.00  0.00    -0.003 C 
ENDROOT
BRANCH  10  13
HETATM   13  C11 UNL     1      33.698   6.076  48.319  1.00  0.00     0.013 C 
BRANCH  13  14
HETATM   14  C12 UNL     1      34.898   5.582  48.543  1.00  0.00    -0.060 C 
HETATM   15  C13 UNL     1      35.117   4.155  48.255  1.00  0.00     0.045 C 
BRANCH  14  16
HETATM   16  C14 UNL     1      36.113   6.338  48.998  1.00  0.00     0.198 C 
BRANCH  16  17
HETATM   17  O2  UNL     1      36.636   5.798  50.172  1.00  0.00    -0.397 OA
HETATM   18  H16 UNL     1      37.151   4.968  49.891  1.00  0.00     0.209 HD
ENDBRANCH  16  17
ENDBRANCH  14  16
ENDBRANCH  13  14
ENDBRANCH  10  13
BRANCH  12  19
HETATM   19  N3  UNL     1      30.757   8.068  49.675  1.00  0.00    -0.305 N 
HETATM   20  H18 UNL     1      29.713   8.200  49.509  1.00  0.00     0.124 HD
HETATM   21  H19 UNL     1      29.735   8.181  49.477  1.00  0.00     0.124 HD
ENDBRANCH  12  19
BRANCH   1  22
HETATM   22  C2  UNL     1      29.101   6.377  48.059  1.00  0.00     0.136 C 
HETATM   23  C1  UNL     1      27.657   6.313  48.268  1.00  0.00     0.092 C 
HETATM   24  O1  UNL     1      29.177   7.084  47.016  1.00  0.00    -0.297 OA
ENDBRANCH   1  22
TORSDOF 6
ENDMDL
MODEL 3
REMARK VINA RESULT:      -6.1      3.659      5.109
REMARK  6 active torsions:
REMARK  status: ('A' for Active; 'I' for Inactive)
REMARK    1  A    between atoms: C2_2  and  C3_4 
REMARK    2  A    between atoms: C10_13  and  C11_14 
REMARK    3  A    between atoms: C11_14  and  C12_15 
REMARK    4  A    between atoms: C12_15  and  C14_17 
REMARK    5  A    between atoms: C14_17  and  O2_18 
REMARK    6  A    between atoms: C16_20  and  N3_21 
ROOT
HETATM    1  C3  UNL     1      22.456   1.809  49.443  1.00  0.00     0.121 C 
HETATM    2  C4  UNL     1      23.445   2.084  50.547  1.00  0.00    -0.013 C 
HETATM    3  C5  UNL     1      24.555   1.779  51.316  1.00  0.00    -0.027 C 
HETATM    4  C6  UNL     1      24.671   2.890  52.365  1.00  0.00     0.068 C 
HETATM    5  C7  UNL     1      23.196   3.364  52.449  1.00  0.00     0.119 A 
HETATM    6  N1  UNL     1      22.685   4.483  52.290  1.00  0.00    -0.264 NA
HETATM    7  C8  UNL     1      21.675   5.235  52.081  1.00  0.00     0.223 A 
HETATM    8  N2  UNL     1      20.877   4.094  52.033  1.00  0.00    -0.261 NA
HETATM    9  C9  UNL     1      21.535   2.925  52.229  1.00  0.00     0.132 A 
HETATM   10  C10 UNL     1      22.567   2.086  52.468  1.00  0.00    -0.009 A 
HETATM   11  C15 UNL     1      20.453   2.311  51.310  1.00  0.00     0.034 C 
HETATM   12  C16 UNL     1      21.061   1.876  50.111  1.00  0.00    -0.003 C 
ENDROOT
BRANCH  10  13
HETATM   13  C11 UNL     1      21.924   0.822  52.489  1.00  0.00     0.013 C 
BRANCH  13  14
HETATM   14  C12 UNL     1      22.116   0.061  53.547  1.00  0.00    -0.060 C 
HETATM   15  C13 UNL     1      23.420  -0.608  53.683  1.00  0.00     0.045 C 
BRANCH  14  16
HETATM   16  C14 UNL     1      21.165  -0.148  54.689  1.00  0.00     0.198 C 
BRANCH  16  17
HETATM   17  O2  UNL     1      21.070  -1.496  55.030  1.00  0.00    -0.397 OA
HETATM   18  H16 UNL     1      20.174  -1.812  54.668  1.00  0.00     0.209 HD
ENDBRANCH  16  17
ENDBRANCH  14  16
ENDBRANCH  13  14
ENDBRANCH  10  13
BRANCH  12  19
HETATM   19  N3  UNL     1      20.143   1.278  49.160  1.00  0.00    -0.305 N 
HETATM   20  H18 UNL     1      19.166   1.619  49.412  1.00  0.00     0.124 HD
HETATM   21  H19 UNL     1      19.198   1.631  49.438  1.00  0.00     0.124 HD
ENDBRANCH  12  19
BRANCH   1  22
HETATM   22  C2  UNL     1      22.490   2.681  48.303  1.00  0.00     0.136 C 
HETATM   23  C1  UNL     1      22.464   4.002  47.682  1.00  0.00     0.092 C 
HETATM   24  O1  UNL     1      22.601   1.926  47.297  1.00  0.00    -0.297 OA
ENDBRANCH   1  22
TORSDOF 6
ENDMDL
MODEL 4
REMARK VINA RESULT:      -6.1      3.801      5.612
REMARK  6 active torsions:
REMARK  status: ('A' for Active; 'I' for Inactive)
REMARK    1  A    between atoms: C2_2  and  C3_4 
REMARK    2  A    between atoms: C10_13  and  C11_14 
REMARK    3  A    between atoms: C11_14  and  C12_15 
REMARK    4  A    between atoms: C12_15  and  C14_17 
REMARK    5  A    between atoms: C14_17  and  O2_18 
REMARK    6  A    between atoms: C16_20  and  N3_21 
ROOT
HETATM    1  C3  UNL     1      22.269   5.104  51.972  1.00  0.00     0.121 C 
HETATM    2  C4  UNL     1      21.744   3.694  51.885  1.00  0.00    -0.013 C 
HETATM    3  C5  UNL     1      21.111   2.576  52.403  1.00  0.00    -0.027 C 
HETATM    4  C6  UNL     1      21.159   1.507  51.305  1.00  0.00     0.068 C 
HETATM    5  C7  UNL     1      22.407   1.967  50.507  1.00  0.00     0.119 A 
HETATM    6  N1  UNL     1      22.552   2.253  49.308  1.00  0.00    -0.264 NA
HETATM    7  C8  UNL     1      23.210   2.793  48.356  1.00  0.00     0.223 A 
HETATM    8  N2  UNL     1      24.162   3.199  49.288  1.00  0.00    -0.261 NA
HETATM    9  C9  UNL     1      23.909   2.826  50.567  1.00  0.00     0.132 A 
HETATM   10  C10 UNL     1      23.264   2.255  51.607  1.00  0.00    -0.009 A 
HETATM   11  C15 UNL     1      24.666   4.119  50.955  1.00  0.00     0.034 C 
HETATM   12  C16 UNL     1      23.759   5.016  51.565  1.00  0.00    -0.003 C 
ENDROOT
BRANCH  10  13
HETATM   13  C11 UNL     1      24.132   2.545  52.691  1.00  0.00     0.013 C 
BRANCH  13  14
HETATM   14  C12 UNL     1      24.725   1.529  53.282  1.00  0.00    -0.060 C 
HETATM   15  C13 UNL     1      24.010   0.242  53.316  1.00  0.00     0.045 C 
BRANCH  14  16
HETATM   16  C14 UNL     1      26.105   1.511  53.873  1.00  0.00     0.198 C 
BRANCH  16  17
HETATM   17  O2  UNL     1      26.671   2.784  53.882  1.00  0.00    -0.397 OA
HETATM   18  H16 UNL     1      27.573   2.691  53.424  1.00  0.00     0.209 HD
ENDBRANCH  16  17
ENDBRANCH  14  16
ENDBRANCH  13  14
ENDBRANCH  10  13
BRANCH  12  19
HETATM   19  N3  UNL     1      24.353   6.274  51.977  1.00  0.00    -0.305 N 
HETATM   20  H18 UNL     1      24.142   6.395  53.014  1.00  0.00     0.124 HD
HETATM   21  H19 UNL     1      24.125   6.360  52.994  1.00  0.00     0.124 HD
ENDBRANCH  12  19
BRANCH   1  22
HETATM   22  C2  UNL     1      21.607   6.099  51.178  1.00  0.00     0.136 C 
HETATM   23  C1  UNL     1      21.320   7.483  50.810  1.00  0.00     0.092 C 
HETATM   24  O1  UNL     1      20.888   5.462  50.359  1.00  0.00    -0.297 OA
ENDBRANCH   1  22
TORSDOF 6
ENDMDL
MODEL 5
REMARK VINA RESULT:      -6.0      3.745      7.172
REMARK  6 active torsions:
REMARK  status: ('A' for Active; 'I' for Inactive)
REMARK    1  A    between atoms: C2_2  and  C3_4 
REMARK    2  A    between atoms: C10_13  and  C11_14 
REMARK    3  A    between atoms: C11_14  and  C12_15 
REMARK    4  A    between atoms: C12_15  and  C14_17 
REMARK    5  A    between atoms: C14_17  and  O2_18 
REMARK    6  A    between atoms: C16_20  and  N3_21 
ROOT
HETATM    1  C3  UNL     1      23.696   2.297  51.409  1.00  0.00     0.121 C 
HETATM    2  C4  UNL     1      23.400   2.729  49.995  1.00  0.00    -0.013 C 
HETATM    3  C5  UNL     1      23.596   2.695  48.625  1.00  0.00    -0.027 C 
HETATM    4  C6  UNL     1      22.643   3.735  48.027  1.00  0.00     0.068 C 
HETATM    5  C7  UNL     1      22.472   4.698  49.231  1.00  0.00     0.119 A 
HETATM    6  N1  UNL     1      21.459   5.091  49.829  1.00  0.00    -0.264 NA
HETATM    7  C8  UNL     1      20.889   5.629  50.838  1.00  0.00     0.223 A 
HETATM    8  N2  UNL     1      22.142   5.761  51.432  1.00  0.00    -0.261 NA
HETATM    9  C9  UNL     1      23.181   5.309  50.689  1.00  0.00     0.132 A 
HETATM   10  C10 UNL     1      23.836   4.765  49.639  1.00  0.00    -0.009 A 
HETATM   11  C15 UNL     1      23.852   5.002  52.049  1.00  0.00     0.034 C 
HETATM   12  C16 UNL     1      23.989   3.602  52.187  1.00  0.00    -0.003 C 
ENDROOT
BRANCH  10  13
HETATM   13  C11 UNL     1      25.189   4.844  50.059  1.00  0.00     0.013 C 
BRANCH  13  14
HETATM   14  C12 UNL     1      26.080   5.220  49.165  1.00  0.00    -0.060 C 
HETATM   15  C13 UNL     1      25.863   6.504  48.478  1.00  0.00     0.045 C 
BRANCH  14  16
HETATM   16  C14 UNL     1      27.355   4.511  48.810  1.00  0.00     0.198 C 
BRANCH  16  17
HETATM   17  O2  UNL     1      28.471   5.258  49.180  1.00  0.00    -0.397 OA
HETATM   18  H16 UNL     1      29.267   4.633  49.086  1.00  0.00     0.209 HD
ENDBRANCH  16  17
ENDBRANCH  14  16
ENDBRANCH  13  14
ENDBRANCH  10  13
BRANCH  12  19
HETATM   19  N3  UNL     1      24.609   3.185  53.431  1.00  0.00    -0.305 N 
HETATM   20  H18 UNL     1      24.367   3.919  54.164  1.00  0.00     0.124 HD
HETATM   21  H19 UNL     1      24.353   3.927  54.123  1.00  0.00     0.124 HD
ENDBRANCH  12  19
BRANCH   1  22
HETATM   22  C2  UNL     1      22.681   1.544  52.088  1.00  0.00     0.136 C 
HETATM   23  C1  UNL     1      22.151   0.312  52.665  1.00  0.00     0.092 C 
HETATM   24  O1  UNL     1      21.744   2.358  52.316  1.00  0.00    -0.297 OA
ENDBRANCH   1  22
TORSDOF 6
ENDMDL
MODEL 6
REMARK VINA RESULT:      -6.0      3.524      6.360
REMARK  6 active torsions:
REMARK  status: ('A' for Active; 'I' for Inactive)
REMARK    1  A    between atoms: C2_2  and  C3_4 
REMARK    2  A    between atoms: C10_13  and  C11_14 
REMARK    3  A    between atoms: C11_14  and  C12_15 
REMARK    4  A    between atoms: C12_15  and  C14_17 
REMARK    5  A    between atoms: C14_17  and  O2_18 
REMARK    6  A    between atoms: C16_20  and  N3_21 
ROOT
HETATM    1  C3  UNL     1      21.569   1.065  50.926  1.00  0.00     0.121 C 
HETATM    2  C4  UNL     1      22.143   1.937  49.839  1.00  0.00    -0.013 C 
HETATM    3  C5  UNL     1      22.789   2.144  48.632  1.00  0.00    -0.027 C 
HETATM    4  C6  UNL     1      22.924   3.662  48.470  1.00  0.00     0.068 C 
HETATM    5  C7  UNL     1      22.892   4.116  49.954  1.00  0.00     0.119 A 
HETATM    6  N1  UNL     1      22.154   4.915  50.550  1.00  0.00    -0.264 NA
HETATM    7  C8  UNL     1      21.664   5.401  51.624  1.00  0.00     0.223 A 
HETATM    8  N2  UNL     1      22.421   4.481  52.347  1.00  0.00    -0.261 NA
HETATM    9  C9  UNL     1      23.199   3.663  51.597  1.00  0.00     0.132 A 
HETATM   10  C10 UNL     1      23.762   3.125  50.493  1.00  0.00    -0.009 A 
HETATM   11  C15 UNL     1      22.988   2.635  52.734  1.00  0.00     0.034 C 
HETATM   12  C16 UNL     1      22.232   1.549  52.238  1.00  0.00    -0.003 C 
ENDROOT
BRANCH  10  13
HETATM   13  C11 UNL     1      24.627   2.147  51.047  1.00  0.00     0.013 C 
BRANCH  13  14
HETATM   14  C12 UNL     1      25.923   2.360  50.954  1.00  0.00    -0.060 C 
HETATM   15  C13 UNL     1      26.403   3.193  49.838  1.00  0.00     0.045 C 
BRANCH  14  16
HETATM   16  C14 UNL     1      26.983   1.903  51.914  1.00  0.00     0.198 C 
BRANCH  16  17
HETATM   17  O2  UNL     1      27.916   2.909  52.157  1.00  0.00    -0.397 OA
HETATM   18  H16 UNL     1      28.628   2.491  52.749  1.00  0.00     0.209 HD
ENDBRANCH  16  17
ENDBRANCH  14  16
ENDBRANCH  13  14
ENDBRANCH  10  13
BRANCH  12  19
HETATM   19  N3  UNL     1      21.967   0.512  53.218  1.00  0.00    -0.305 N 
HETATM   20  H18 UNL     1      20.992   0.692  53.608  1.00  0.00     0.124 HD
HETATM   21  H19 UNL     1      21.007   0.721  53.580  1.00  0.00     0.124 HD
ENDBRANCH  12  19
BRANCH   1  22
HETATM   22  C2  UNL     1      20.142   1.060  51.077  1.00  0.00     0.136 C 
HETATM   23  C1  UNL     1      18.833   0.419  50.994  1.00  0.00     0.092 C 
HETATM   24  O1  UNL     1      19.838   2.208  51.505  1.00  0.00    -0.297 OA
ENDBRANCH   1  22
TORSDOF 6
ENDMDL
MODEL 7
REMARK VINA RESULT:      -6.0      4.054      5.657
REMARK  6 active torsions:
REMARK  status: ('A' for Active; 'I' for Inactive)
REMARK    1  A    between atoms: C2_2  and  C3_4 
REMARK    2  A    between atoms: C10_13  and  C11_14 
REMARK    3  A    between atoms: C11_14  and  C12_15 
REMARK    4  A    between atoms: C12_15  and  C14_17 
REMARK    5  A    between atoms: C14_17  and  O2_18 
REMARK    6  A    between atoms: C16_20  and  N3_21 
ROOT
HETATM    1  C3  UNL     1      24.572   4.821  49.582  1.00  0.00     0.121 C 
HETATM    2  C4  UNL     1      23.640   3.678  49.271  1.00  0.00    -0.013 C 
HETATM    3  C5  UNL     1      22.677   3.040  48.508  1.00  0.00    -0.027 C 
HETATM    4  C6  UNL     1      22.346   1.732  49.236  1.00  0.00     0.068 C 
HETATM    5  C7  UNL     1      22.725   2.108  50.693  1.00  0.00     0.119 A 
HETATM    6  N1  UNL     1      23.508   1.580  51.497  1.00  0.00    -0.264 NA
HETATM    7  C8  UNL     1      24.214   1.612  52.561  1.00  0.00     0.223 A 
HETATM    8  N2  UNL     1      23.779   2.918  52.770  1.00  0.00    -0.261 NA
HETATM    9  C9  UNL     1      22.919   3.394  51.837  1.00  0.00     0.132 A 
HETATM   10  C10 UNL     1      22.140   3.406  50.733  1.00  0.00    -0.009 A 
HETATM   11  C15 UNL     1      23.532   4.776  52.164  1.00  0.00     0.034 C 
HETATM   12  C16 UNL     1      24.237   5.245  51.032  1.00  0.00    -0.003 C 
ENDROOT
BRANCH  10  13
HETATM   13  C11 UNL     1      21.562   4.700  50.791  1.00  0.00     0.013 C 
BRANCH  13  14
HETATM   14  C12 UNL     1      20.289   4.810  50.474  1.00  0.00    -0.060 C 
HETATM   15  C13 UNL     1      19.869   6.005  49.723  1.00  0.00     0.045 C 
BRANCH  14  16
HETATM   16  C14 UNL     1      19.205   3.803  50.733  1.00  0.00     0.198 C 
BRANCH  16  17
HETATM   17  O2  UNL     1      18.930   3.693  52.094  1.00  0.00    -0.397 OA
HETATM   18  H16 UNL     1      18.662   2.724  52.246  1.00  0.00     0.209 HD
ENDBRANCH  16  17
ENDBRANCH  14  16
ENDBRANCH  13  14
ENDBRANCH  10  13
BRANCH  12  19
HETATM   19  N3  UNL     1      24.862   6.542  51.216  1.00  0.00    -0.305 N 
HETATM   20  H18 UNL     1      25.777   6.528  50.671  1.00  0.00     0.124 HD
HETATM   21  H19 UNL     1      25.754   6.491  50.671  1.00  0.00     0.124 HD
ENDBRANCH  12  19
BRANCH   1  22
HETATM   22  C2  UNL     1      25.979   4.569  49.463  1.00  0.00     0.136 C 
HETATM   23  C1  UNL     1      27.279   4.754  48.822  1.00  0.00     0.092 C 
HETATM   24  O1  UNL     1      26.264   3.764  50.392  1.00  0.00    -0.297 OA
ENDBRANCH   1  22
TORSDOF 6
ENDMDL
MODEL 8
REMARK VINA RESULT:      -6.0      3.625      5.810
REMARK  6 active torsions:
REMARK  status: ('A' for Active; 'I' for Inactive)
REMARK    1  A    between atoms: C2_2  and  C3_4 
REMARK    2  A    between atoms: C10_13  and  C11_14 
REMARK    3  A    between atoms: C11_14  and  C12_15 
REMARK    4  A    between atoms: C12_15  and  C14_17 
REMARK    5  A    between atoms: C14_17  and  O2_18 
REMARK    6  A    between atoms: C16_20  and  N3_21 
ROOT
HETATM    1  C3  UNL     1      23.114   2.636  48.606  1.00  0.00     0.121 C 
HETATM    2  C4  UNL     1      24.141   3.568  49.197  1.00  0.00    -0.013 C 
HETATM    3  C5  UNL     1      25.436   4.017  49.391  1.00  0.00    -0.027 C 
HETATM    4  C6  UNL     1      25.343   5.193  50.370  1.00  0.00     0.068 C 
HETATM    5  C7  UNL     1      24.026   4.847  51.113  1.00  0.00     0.119 A 
HETATM    6  N1  UNL     1      22.981   5.496  51.273  1.00  0.00    -0.264 NA
HETATM    7  C8  UNL     1      21.742   5.571  51.575  1.00  0.00     0.223 A 
HETATM    8  N2  UNL     1      21.745   4.194  51.787  1.00  0.00    -0.261 NA
HETATM    9  C9  UNL     1      22.941   3.586  51.594  1.00  0.00     0.132 A 
HETATM   10  C10 UNL     1      24.254   3.454  51.303  1.00  0.00    -0.009 A 
HETATM   11  C15 UNL     1      22.101   2.353  51.183  1.00  0.00     0.034 C 
HETATM   12  C16 UNL     1      22.308   2.091  49.810  1.00  0.00    -0.003 C 
ENDROOT
BRANCH  10  13
HETATM   13  C11 UNL     1      24.465   2.065  51.502  1.00  0.00     0.013 C 
BRANCH  13  14
HETATM   14  C12 UNL     1      25.454   1.709  52.294  1.00  0.00    -0.060 C 
HETATM   15  C13 UNL     1      26.506   0.845  51.732  1.00  0.00     0.045 C 
BRANCH  14  16
HETATM   16  C14 UNL     1      25.677   2.150  53.712  1.00  0.00     0.198 C 
BRANCH  16  17
HETATM   17  O2  UNL     1      26.949   2.693  53.881  1.00  0.00    -0.397 OA
HETATM   18  H16 UNL     1      26.810   3.595  54.327  1.00  0.00     0.209 HD
ENDBRANCH  16  17
ENDBRANCH  14  16
ENDBRANCH  13  14
ENDBRANCH  10  13
BRANCH  12  19
HETATM   19  N3  UNL     1      21.569   0.951  49.303  1.00  0.00    -0.305 N 
HETATM   20  H18 UNL     1      22.228   0.114  49.327  1.00  0.00     0.124 HD
HETATM   21  H19 UNL     1      22.245   0.153  49.339  1.00  0.00     0.124 HD
ENDBRANCH  12  19
BRANCH   1  22
HETATM   22  C2  UNL     1      22.216   3.187  47.631  1.00  0.00     0.136 C 
HETATM   23  C1  UNL     1      21.781   3.418  46.256  1.00  0.00     0.092 C 
HETATM   24  O1  UNL     1      21.328   3.797  48.288  1.00  0.00    -0.297 OA
ENDBRANCH   1  22
TORSDOF 6
ENDMDL
MODEL 9
REMARK VINA RESULT:      -5.9      8.203     11.993
REMARK  6 active torsions:
REMARK  status: ('A' for Active; 'I' for Inactive)
REMARK    1  A    between atoms: C2_2  and  C3_4 
REMARK    2  A    between atoms: C10_13  and  C11_14 
REMARK    3  A    between atoms: C11_14  and  C12_15 
REMARK    4  A    between atoms: C12_15  and  C14_17 
REMARK    5  A    between atoms: C14_17  and  O2_18 
REMARK    6  A    between atoms: C16_20  and  N3_21 
ROOT
HETATM    1  C3  UNL     1      30.487   6.415  47.807  1.00  0.00     0.121 C 
HETATM    2  C4  UNL     1      30.729   7.404  46.695  1.00  0.00    -0.013 C 
HETATM    3  C5  UNL     1      31.188   7.764  45.440  1.00  0.00    -0.027 C 
HETATM    4  C6  UNL     1      30.943   9.271  45.307  1.00  0.00     0.068 C 
HETATM    5  C7  UNL     1      30.948   9.698  46.799  1.00  0.00     0.119 A 
HETATM    6  N1  UNL     1      30.103  10.295  47.483  1.00  0.00    -0.264 NA
HETATM    7  C8  UNL     1      29.617  10.646  48.610  1.00  0.00     0.223 A 
HETATM    8  N2  UNL     1      30.637   9.930  49.234  1.00  0.00    -0.261 NA
HETATM    9  C9  UNL     1      31.510   9.324  48.394  1.00  0.00     0.132 A 
HETATM   10  C10 UNL     1      32.076   8.941  47.228  1.00  0.00    -0.009 A 
HETATM   11  C15 UNL     1      31.660   8.272  49.517  1.00  0.00     0.034 C 
HETATM   12  C16 UNL     1      31.140   7.039  49.065  1.00  0.00    -0.003 C 
ENDROOT
BRANCH  10  13
HETATM   13  C11 UNL     1      33.198   8.195  47.673  1.00  0.00     0.013 C 
BRANCH  13  14
HETATM   14  C12 UNL     1      34.384   8.567  47.239  1.00  0.00    -0.060 C 
HETATM   15  C13 UNL     1      35.550   8.267  48.087  1.00  0.00     0.045 C 
BRANCH  14  16
HETATM   16  C14 UNL     1      34.700   9.211  45.920  1.00  0.00     0.198 C 
BRANCH  16  17
HETATM   17  O2  UNL     1      36.075   9.316  45.723  1.00  0.00    -0.397 OA
HETATM   18  H16 UNL     1      36.194   9.699  44.789  1.00  0.00     0.209 HD
ENDBRANCH  16  17
ENDBRANCH  14  16
ENDBRANCH  13  14
ENDBRANCH  10  13
BRANCH  12  19
HETATM   19  N3  UNL     1      31.223   5.964  50.036  1.00  0.00    -0.305 N 
HETATM   20  H18 UNL     1      32.228   5.609  50.025  1.00  0.00     0.124 HD
HETATM   21  H19 UNL     1      32.217   5.640  49.996  1.00  0.00     0.124 HD
ENDBRANCH  12  19
BRANCH   1  22
HETATM   22  C2  UNL     1      29.123   6.070  48.089  1.00  0.00     0.136 C 
HETATM   23  C1  UNL     1      27.719   6.410  48.309  1.00  0.00     0.092 C 
HETATM   24  O1  UNL     1      29.106   4.814  48.220  1.00  0.00    -0.297 OA
ENDBRANCH   1  22
TORSDOF 6
ENDMDL
