MODEL 1
REMARK VINA RESULT:      -6.5      0.000      0.000
REMARK  7 active torsions:
REMARK  status: ('A' for Active; 'I' for Inactive)
REMARK    1  A    between atoms: C2_2  and  N1_3 
REMARK    2  A    between atoms: N1_3  and  C3_4 
REMARK    3  A    between atoms: N1_3  and  C5_6 
REMARK    4  A    between atoms: C5_6  and  C6_7 
REMARK    5  A    between atoms: C6_7  and  N2_8 
REMARK       I    between atoms: N2_8  and  C7_9 
REMARK    6  A    between atoms: C7_9  and  C8_11 
REMARK    7  A    between atoms: C15_20  and  C16_21 
ROOT
HETATM    1  C8  UNL     1      24.000   5.589  50.618  1.00  0.00     0.340 C 
HETATM    2  N3  UNL     1      24.377   5.047  51.881  1.00  0.00     0.105 N 
HETATM    3  C9  UNL     1      23.213   4.551  52.644  1.00  0.00     0.307 C 
HETATM    4  C10 UNL     1      22.608   3.361  51.995  1.00  0.00    -0.030 C 
HETATM    5  C11 UNL     1      22.131   3.823  50.911  1.00  0.00     0.023 C 
HETATM    6  C12 UNL     1      21.630   4.266  49.687  1.00  0.00     0.172 C 
HETATM    7  O2  UNL     1      20.894   5.149  49.189  1.00  0.00    -0.291 OA
HETATM    8  C13 UNL     1      22.292   3.240  48.877  1.00  0.00     0.117 C 
HETATM    9  C14 UNL     1      23.692   3.769  48.596  1.00  0.00    -0.004 C 
HETATM   10  C15 UNL     1      24.181   4.714  49.435  1.00  0.00    -0.041 C 
HETATM   11  C18 UNL     1      22.576   2.605  50.271  1.00  0.00    -0.032 C 
HETATM   12  C19 UNL     1      23.192   1.524  50.835  1.00  0.00    -0.009 C 
HETATM   13  C20 UNL     1      22.387   1.867  52.091  1.00  0.00     0.036 C 
HETATM   14  C21 UNL     1      22.957   1.257  53.315  1.00  0.00     0.019 C 
HETATM   15  H15 UNL     1      25.095   4.298  51.808  1.00  0.00     0.317 HD
ENDROOT
BRANCH   1  16
HETATM   16  C7  UNL     1      24.795   6.869  50.419  1.00  0.00     0.255 C 
HETATM   17  N2  UNL     1      26.074   7.327  50.720  1.00  0.00    -0.357 N 
HETATM   18  H13 UNL     1      26.559   6.526  51.213  1.00  0.00     0.162 HD
HETATM   19  O1  UNL     1      23.820   7.410  49.843  1.00  0.00    -0.271 OA
BRANCH  17  20
HETATM   20  C6  UNL     1      26.436   8.672  50.327  1.00  0.00     0.142 C 
BRANCH  20  21
HETATM   21  C5  UNL     1      27.673   8.619  49.497  1.00  0.00     0.141 C 
BRANCH  21  22
HETATM   22  N1  UNL     1      27.451   8.166  48.137  1.00  0.00    -0.392 N 
BRANCH  22  23
HETATM   23  C2  UNL     1      28.246   7.162  47.503  1.00  0.00     0.058 C 
HETATM   24  C1  UNL     1      28.905   6.226  48.188  1.00  0.00     0.049 C 
ENDBRANCH  22  23
BRANCH  22  25
HETATM   25  C3  UNL     1      26.311   8.918  47.602  1.00  0.00     0.117 C 
HETATM   26  C4  UNL     1      25.423   8.016  46.787  1.00  0.00     0.026 C 
ENDBRANCH  22  25
ENDBRANCH  21  22
ENDBRANCH  20  21
ENDBRANCH  17  20
ENDBRANCH   1  16
BRANCH  10  27
HETATM   27  C16 UNL     1      25.629   4.868  49.116  1.00  0.00     0.032 C 
HETATM   28  C17 UNL     1      26.458   3.642  49.443  1.00  0.00     0.010 C 
ENDBRANCH  10  27
TORSDOF 7
ENDMDL
MODEL 2
REMARK VINA RESULT:      -6.3      2.183      3.169
REMARK  7 active torsions:
REMARK  status: ('A' for Active; 'I' for Inactive)
REMARK    1  A    between atoms: C2_2  and  N1_3 
REMARK    2  A    between atoms: N1_3  and  C3_4 
REMARK    3  A    between atoms: N1_3  and  C5_6 
REMARK    4  A    between atoms: C5_6  and  C6_7 
REMARK    5  A    between atoms: C6_7  and  N2_8 
REMARK       I    between atoms: N2_8  and  C7_9 
REMARK    6  A    between atoms: C7_9  and  C8_11 
REMARK    7  A    between atoms: C15_20  and  C16_21 
ROOT
HETATM    1  C8  UNL     1      25.490   3.785  50.742  1.00  0.00     0.340 C 
HETATM    2  N3  UNL     1      26.314   2.624  50.778  1.00  0.00     0.105 N 
HETATM    3  C9  UNL     1      26.589   2.178  52.160  1.00  0.00     0.307 C 
HETATM    4  C10 UNL     1      25.359   1.673  52.819  1.00  0.00    -0.030 C 
HETATM    5  C11 UNL     1      24.635   2.712  52.936  1.00  0.00     0.023 C 
HETATM    6  C12 UNL     1      23.780   3.809  53.047  1.00  0.00     0.172 C 
HETATM    7  O2  UNL     1      23.748   4.991  53.462  1.00  0.00    -0.291 OA
HETATM    8  C13 UNL     1      22.623   3.156  52.430  1.00  0.00     0.117 C 
HETATM    9  C14 UNL     1      22.796   3.331  50.927  1.00  0.00    -0.004 C 
HETATM   10  C15 UNL     1      24.049   3.574  50.470  1.00  0.00    -0.041 C 
HETATM   11  C18 UNL     1      23.500   1.880  52.603  1.00  0.00    -0.032 C 
HETATM   12  C19 UNL     1      23.474   0.537  52.356  1.00  0.00    -0.009 C 
HETATM   13  C20 UNL     1      24.639   0.450  53.344  1.00  0.00     0.036 C 
HETATM   14  C21 UNL     1      25.413  -0.805  53.200  1.00  0.00     0.019 C 
HETATM   15  H15 UNL     1      25.931   1.832  50.222  1.00  0.00     0.317 HD
ENDROOT
BRANCH   1  16
HETATM   16  C7  UNL     1      26.067   4.717  49.689  1.00  0.00     0.255 C 
HETATM   17  N2  UNL     1      25.830   6.013  49.241  1.00  0.00    -0.357 N 
HETATM   18  H13 UNL     1      25.030   6.381  49.829  1.00  0.00     0.162 HD
HETATM   19  O1  UNL     1      26.896   3.843  49.338  1.00  0.00    -0.271 OA
BRANCH  17  20
HETATM   20  C6  UNL     1      26.652   6.535  48.171  1.00  0.00     0.142 C 
BRANCH  20  21
HETATM   21  C5  UNL     1      27.675   7.454  48.748  1.00  0.00     0.141 C 
BRANCH  21  22
HETATM   22  N1  UNL     1      29.043   7.086  48.432  1.00  0.00    -0.392 N 
BRANCH  22  23
HETATM   23  C2  UNL     1      29.451   5.746  48.146  1.00  0.00     0.058 C 
HETATM   24  C1  UNL     1      30.698   5.433  47.794  1.00  0.00     0.049 C 
ENDBRANCH  22  23
BRANCH  22  25
HETATM   25  C3  UNL     1      29.849   8.310  48.470  1.00  0.00     0.117 C 
HETATM   26  C4  UNL     1      29.184   9.350  49.331  1.00  0.00     0.026 C 
ENDBRANCH  22  25
ENDBRANCH  21  22
ENDBRANCH  20  21
ENDBRANCH  17  20
ENDBRANCH   1  16
BRANCH  10  27
HETATM   27  C16 UNL     1      23.998   3.442  48.985  1.00  0.00     0.032 C 
HETATM   28  C17 UNL     1      22.900   2.521  48.493  1.00  0.00     0.010 C 
ENDBRANCH  10  27
TORSDOF 7
ENDMDL
MODEL 3
REMARK VINA RESULT:      -6.2      4.657      6.007
REMARK  7 active torsions:
REMARK  status: ('A' for Active; 'I' for Inactive)
REMARK    1  A    between atoms: C2_2  and  N1_3 
REMARK    2  A    between atoms: N1_3  and  C3_4 
REMARK    3  A    between atoms: N1_3  and  C5_6 
REMARK    4  A    between atoms: C5_6  and  C6_7 
REMARK    5  A    between atoms: C6_7  and  N2_8 
REMARK       I    between atoms: N2_8  and  C7_9 
REMARK    6  A    between atoms: C7_9  and  C8_11 
REMARK    7  A    between atoms: C15_20  and  C16_21 
ROOT
HETATM    1  C8  UNL     1      22.742   2.706  51.403  1.00  0.00     0.340 C 
HETATM    2  N3  UNL     1      21.851   3.460  52.219  1.00  0.00     0.105 N 
HETATM    3  C9  UNL     1      21.058   4.427  51.433  1.00  0.00     0.307 C 
HETATM    4  C10 UNL     1      20.100   3.736  50.533  1.00  0.00    -0.030 C 
HETATM    5  C11 UNL     1      20.852   3.150  49.692  1.00  0.00     0.023 C 
HETATM    6  C12 UNL     1      21.629   2.449  48.770  1.00  0.00     0.172 C 
HETATM    7  O2  UNL     1      22.573   2.605  47.961  1.00  0.00    -0.291 OA
HETATM    8  C13 UNL     1      20.966   1.157  48.971  1.00  0.00     0.117 C 
HETATM    9  C14 UNL     1      21.652   0.518  50.171  1.00  0.00    -0.004 C 
HETATM   10  C15 UNL     1      22.309   1.341  51.024  1.00  0.00    -0.041 C 
HETATM   11  C18 UNL     1      19.938   2.031  49.750  1.00  0.00    -0.032 C 
HETATM   12  C19 UNL     1      18.778   1.917  50.463  1.00  0.00    -0.009 C 
HETATM   13  C20 UNL     1      18.644   3.429  50.264  1.00  0.00     0.036 C 
HETATM   14  C21 UNL     1      17.713   4.049  51.236  1.00  0.00     0.019 C 
HETATM   15  H15 UNL     1      21.217   2.866  52.791  1.00  0.00     0.317 HD
ENDROOT
BRANCH   1  16
HETATM   16  C7  UNL     1      24.070   2.624  52.138  1.00  0.00     0.255 C 
HETATM   17  N2  UNL     1      24.496   2.555  53.461  1.00  0.00    -0.357 N 
HETATM   18  H13 UNL     1      23.616   2.570  54.048  1.00  0.00     0.162 HD
HETATM   19  O1  UNL     1      24.698   2.639  51.050  1.00  0.00    -0.271 OA
BRANCH  17  20
HETATM   20  C6  UNL     1      25.916   2.481  53.726  1.00  0.00     0.142 C 
BRANCH  20  21
HETATM   21  C5  UNL     1      26.285   1.064  54.007  1.00  0.00     0.141 C 
BRANCH  21  22
HETATM   22  N1  UNL     1      27.384   0.570  53.200  1.00  0.00    -0.392 N 
BRANCH  22  23
HETATM   23  C2  UNL     1      28.758   0.817  53.505  1.00  0.00     0.058 C 
HETATM   24  C1  UNL     1      29.644  -0.164  53.680  1.00  0.00     0.049 C 
ENDBRANCH  22  23
BRANCH  22  25
HETATM   25  C3  UNL     1      26.806  -0.183  52.082  1.00  0.00     0.117 C 
HETATM   26  C4  UNL     1      26.533  -1.605  52.492  1.00  0.00     0.026 C 
ENDBRANCH  22  25
ENDBRANCH  21  22
ENDBRANCH  20  21
ENDBRANCH  17  20
ENDBRANCH   1  16
BRANCH  10  27
HETATM   27  C16 UNL     1      22.656   0.528  52.225  1.00  0.00     0.032 C 
HETATM   28  C17 UNL     1      21.460  -0.136  52.877  1.00  0.00     0.010 C 
ENDBRANCH  10  27
TORSDOF 7
ENDMDL
MODEL 4
REMARK VINA RESULT:      -6.2      3.218      6.397
REMARK  7 active torsions:
REMARK  status: ('A' for Active; 'I' for Inactive)
REMARK    1  A    between atoms: C2_2  and  N1_3 
REMARK    2  A    between atoms: N1_3  and  C3_4 
REMARK    3  A    between atoms: N1_3  and  C5_6 
REMARK    4  A    between atoms: C5_6  and  C6_7 
REMARK    5  A    between atoms: C6_7  and  N2_8 
REMARK       I    between atoms: N2_8  and  C7_9 
REMARK    6  A    between atoms: C7_9  and  C8_11 
REMARK    7  A    between atoms: C15_20  and  C16_21 
ROOT
HETATM    1  C8  UNL     1      24.961   4.752  49.648  1.00  0.00     0.340 C 
HETATM    2  N3  UNL     1      24.170   4.236  48.581  1.00  0.00     0.105 N 
HETATM    3  C9  UNL     1      22.883   4.948  48.445  1.00  0.00     0.307 C 
HETATM    4  C10 UNL     1      23.086   6.348  47.995  1.00  0.00    -0.030 C 
HETATM    5  C11 UNL     1      23.675   6.895  48.979  1.00  0.00     0.023 C 
HETATM    6  C12 UNL     1      24.363   7.536  50.010  1.00  0.00     0.172 C 
HETATM    7  O2  UNL     1      24.315   7.738  51.246  1.00  0.00    -0.291 OA
HETATM    8  C13 UNL     1      25.433   8.070  49.163  1.00  0.00     0.117 C 
HETATM    9  C14 UNL     1      26.466   6.958  49.043  1.00  0.00    -0.004 C 
HETATM   10  C15 UNL     1      26.047   5.691  49.280  1.00  0.00    -0.041 C 
HETATM   11  C18 UNL     1      24.484   7.609  48.016  1.00  0.00    -0.032 C 
HETATM   12  C19 UNL     1      24.413   7.572  46.653  1.00  0.00    -0.009 C 
HETATM   13  C20 UNL     1      22.915   7.326  46.853  1.00  0.00     0.036 C 
HETATM   14  C21 UNL     1      22.271   6.739  45.655  1.00  0.00     0.019 C 
HETATM   15  H15 UNL     1      24.668   4.230  47.667  1.00  0.00     0.317 HD
ENDROOT
BRANCH   1  16
HETATM   16  C7  UNL     1      25.555   3.565  50.387  1.00  0.00     0.255 C 
HETATM   17  N2  UNL     1      26.668   3.320  51.185  1.00  0.00    -0.357 N 
HETATM   18  H13 UNL     1      27.187   4.240  51.248  1.00  0.00     0.162 HD
HETATM   19  O1  UNL     1      24.618   2.825  49.999  1.00  0.00    -0.271 OA
BRANCH  17  20
HETATM   20  C6  UNL     1      26.860   1.986  51.714  1.00  0.00     0.142 C 
BRANCH  20  21
HETATM   21  C5  UNL     1      27.681   2.069  52.955  1.00  0.00     0.141 C 
BRANCH  21  22
HETATM   22  N1  UNL     1      28.082   0.778  53.483  1.00  0.00    -0.392 N 
BRANCH  22  23
HETATM   23  C2  UNL     1      29.437   0.438  53.783  1.00  0.00     0.058 C 
HETATM   24  C1  UNL     1      29.951  -0.766  53.528  1.00  0.00     0.049 C 
ENDBRANCH  22  23
BRANCH  22  25
HETATM   25  C3  UNL     1      26.870  -0.036  53.625  1.00  0.00     0.117 C 
HETATM   26  C4  UNL     1      26.312   0.093  55.017  1.00  0.00     0.026 C 
ENDBRANCH  22  25
ENDBRANCH  21  22
ENDBRANCH  20  21
ENDBRANCH  17  20
ENDBRANCH   1  16
BRANCH  10  27
HETATM   27  C16 UNL     1      27.149   4.784  48.848  1.00  0.00     0.032 C 
HETATM   28  C17 UNL     1      28.375   5.516  48.339  1.00  0.00     0.010 C 
ENDBRANCH  10  27
TORSDOF 7
ENDMDL
MODEL 5
REMARK VINA RESULT:      -6.0      1.632      2.703
REMARK  7 active torsions:
REMARK  status: ('A' for Active; 'I' for Inactive)
REMARK    1  A    between atoms: C2_2  and  N1_3 
REMARK    2  A    between atoms: N1_3  and  C3_4 
REMARK    3  A    between atoms: N1_3  and  C5_6 
REMARK    4  A    between atoms: C5_6  and  C6_7 
REMARK    5  A    between atoms: C6_7  and  N2_8 
REMARK       I    between atoms: N2_8  and  C7_9 
REMARK    6  A    between atoms: C7_9  and  C8_11 
REMARK    7  A    between atoms: C15_20  and  C16_21 
ROOT
HETATM    1  C8  UNL     1      23.181   3.609  50.933  1.00  0.00     0.340 C 
HETATM    2  N3  UNL     1      24.261   2.927  51.563  1.00  0.00     0.105 N 
HETATM    3  C9  UNL     1      23.959   2.583  52.968  1.00  0.00     0.307 C 
HETATM    4  C10 UNL     1      22.888   1.559  53.056  1.00  0.00    -0.030 C 
HETATM    5  C11 UNL     1      21.858   2.168  52.627  1.00  0.00     0.023 C 
HETATM    6  C12 UNL     1      20.706   2.772  52.122  1.00  0.00     0.172 C 
HETATM    7  O2  UNL     1      20.000   3.799  52.248  1.00  0.00    -0.291 OA
HETATM    8  C13 UNL     1      20.389   1.707  51.166  1.00  0.00     0.117 C 
HETATM    9  C14 UNL     1      21.204   2.010  49.916  1.00  0.00    -0.004 C 
HETATM   10  C15 UNL     1      22.296   2.800  50.062  1.00  0.00    -0.041 C 
HETATM   11  C18 UNL     1      21.487   0.939  51.961  1.00  0.00    -0.032 C 
HETATM   12  C19 UNL     1      22.130  -0.266  51.982  1.00  0.00    -0.009 C 
HETATM   13  C20 UNL     1      22.564   0.121  53.398  1.00  0.00     0.036 C 
HETATM   14  C21 UNL     1      23.734  -0.659  53.866  1.00  0.00     0.019 C 
HETATM   15  H15 UNL     1      24.563   2.074  51.049  1.00  0.00     0.317 HD
ENDROOT
BRANCH   1  16
HETATM   16  C7  UNL     1      23.776   4.748  50.121  1.00  0.00     0.255 C 
HETATM   17  N2  UNL     1      24.963   4.995  49.438  1.00  0.00    -0.357 N 
HETATM   18  H13 UNL     1      25.553   4.125  49.559  1.00  0.00     0.162 HD
HETATM   19  O1  UNL     1      22.744   5.440  50.294  1.00  0.00    -0.271 OA
BRANCH  17  20
HETATM   20  C6  UNL     1      25.121   6.267  48.767  1.00  0.00     0.142 C 
BRANCH  20  21
HETATM   21  C5  UNL     1      26.118   7.089  49.511  1.00  0.00     0.141 C 
BRANCH  21  22
HETATM   22  N1  UNL     1      27.423   7.147  48.878  1.00  0.00    -0.392 N 
BRANCH  22  23
HETATM   23  C2  UNL     1      28.024   6.036  48.212  1.00  0.00     0.058 C 
HETATM   24  C1  UNL     1      29.343   5.837  48.188  1.00  0.00     0.049 C 
ENDBRANCH  22  23
BRANCH  22  25
HETATM   25  C3  UNL     1      27.944   8.505  49.066  1.00  0.00     0.117 C 
HETATM   26  C4  UNL     1      27.234   9.187  50.205  1.00  0.00     0.026 C 
ENDBRANCH  22  25
ENDBRANCH  21  22
ENDBRANCH  20  21
ENDBRANCH  17  20
ENDBRANCH   1  16
BRANCH  10  27
HETATM   27  C16 UNL     1      23.054   2.729  48.779  1.00  0.00     0.032 C 
HETATM   28  C17 UNL     1      22.317   1.994  47.677  1.00  0.00     0.010 C 
ENDBRANCH  10  27
TORSDOF 7
ENDMDL
MODEL 6
REMARK VINA RESULT:      -5.8      2.180      3.366
REMARK  7 active torsions:
REMARK  status: ('A' for Active; 'I' for Inactive)
REMARK    1  A    between atoms: C2_2  and  N1_3 
REMARK    2  A    between atoms: N1_3  and  C3_4 
REMARK    3  A    between atoms: N1_3  and  C5_6 
REMARK    4  A    between atoms: C5_6  and  C6_7 
REMARK    5  A    between atoms: C6_7  and  N2_8 
REMARK       I    between atoms: N2_8  and  C7_9 
REMARK    6  A    between atoms: C7_9  and  C8_11 
REMARK    7  A    between atoms: C15_20  and  C16_21 
ROOT
HETATM    1  C8  UNL     1      23.995   3.609  50.068  1.00  0.00     0.340 C 
HETATM    2  N3  UNL     1      22.753   3.382  49.408  1.00  0.00     0.105 N 
HETATM    3  C9  UNL     1      22.461   1.943  49.247  1.00  0.00     0.307 C 
HETATM    4  C10 UNL     1      22.208   1.294  50.558  1.00  0.00    -0.030 C 
HETATM    5  C11 UNL     1      23.336   1.349  51.141  1.00  0.00     0.023 C 
HETATM    6  C12 UNL     1      24.538   1.423  51.846  1.00  0.00     0.172 C 
HETATM    7  O2  UNL     1      25.758   1.162  51.737  1.00  0.00    -0.291 OA
HETATM    8  C13 UNL     1      23.962   2.017  53.056  1.00  0.00     0.117 C 
HETATM    9  C14 UNL     1      23.914   3.517  52.803  1.00  0.00    -0.004 C 
HETATM   10  C15 UNL     1      23.934   3.932  51.513  1.00  0.00    -0.041 C 
HETATM   11  C18 UNL     1      22.619   1.637  52.363  1.00  0.00    -0.032 C 
HETATM   12  C19 UNL     1      21.269   1.715  52.559  1.00  0.00    -0.009 C 
HETATM   13  C20 UNL     1      21.166   0.661  51.454  1.00  0.00     0.036 C 
HETATM   14  C21 UNL     1      19.814   0.603  50.849  1.00  0.00     0.019 C 
HETATM   15  H15 UNL     1      21.950   3.855  49.871  1.00  0.00     0.317 HD
ENDROOT
BRANCH   1  16
HETATM   16  C7  UNL     1      24.700   4.737  49.332  1.00  0.00     0.255 C 
HETATM   17  N2  UNL     1      24.349   5.968  48.785  1.00  0.00    -0.357 N 
HETATM   18  H13 UNL     1      23.311   6.078  48.964  1.00  0.00     0.162 HD
HETATM   19  O1  UNL     1      25.794   4.125  49.397  1.00  0.00    -0.271 OA
BRANCH  17  20
HETATM   20  C6  UNL     1      25.379   6.761  48.152  1.00  0.00     0.142 C 
BRANCH  20  21
HETATM   21  C5  UNL     1      26.155   7.479  49.204  1.00  0.00     0.141 C 
BRANCH  21  22
HETATM   22  N1  UNL     1      27.541   7.724  48.850  1.00  0.00    -0.392 N 
BRANCH  22  23
HETATM   23  C2  UNL     1      28.282   6.896  47.952  1.00  0.00     0.058 C 
HETATM   24  C1  UNL     1      28.761   5.702  48.303  1.00  0.00     0.049 C 
ENDBRANCH  22  23
BRANCH  22  25
HETATM   25  C3  UNL     1      27.973   8.927  49.570  1.00  0.00     0.117 C 
HETATM   26  C4  UNL     1      27.726  10.155  48.738  1.00  0.00     0.026 C 
ENDBRANCH  22  25
ENDBRANCH  21  22
ENDBRANCH  20  21
ENDBRANCH  17  20
ENDBRANCH   1  16
BRANCH  10  27
HETATM   27  C16 UNL     1      23.616   5.389  51.523  1.00  0.00     0.032 C 
HETATM   28  C17 UNL     1      22.153   5.690  51.781  1.00  0.00     0.010 C 
ENDBRANCH  10  27
TORSDOF 7
ENDMDL
MODEL 7
REMARK VINA RESULT:      -5.8      4.521      8.918
REMARK  7 active torsions:
REMARK  status: ('A' for Active; 'I' for Inactive)
REMARK    1  A    between atoms: C2_2  and  N1_3 
REMARK    2  A    between atoms: N1_3  and  C3_4 
REMARK    3  A    between atoms: N1_3  and  C5_6 
REMARK    4  A    between atoms: C5_6  and  C6_7 
REMARK    5  A    between atoms: C6_7  and  N2_8 
REMARK       I    between atoms: N2_8  and  C7_9 
REMARK    6  A    between atoms: C7_9  and  C8_11 
REMARK    7  A    between atoms: C15_20  and  C16_21 
ROOT
HETATM    1  C8  UNL     1      30.727   6.556  47.775  1.00  0.00     0.340 C 
HETATM    2  N3  UNL     1      31.361   5.681  48.702  1.00  0.00     0.105 N 
HETATM    3  C9  UNL     1      32.507   4.966  48.101  1.00  0.00     0.307 C 
HETATM    4  C10 UNL     1      33.619   5.898  47.786  1.00  0.00    -0.030 C 
HETATM    5  C11 UNL     1      33.145   6.623  46.855  1.00  0.00     0.023 C 
HETATM    6  C12 UNL     1      32.661   7.478  45.865  1.00  0.00     0.172 C 
HETATM    7  O2  UNL     1      32.099   7.466  44.745  1.00  0.00    -0.291 OA
HETATM    8  C13 UNL     1      33.027   8.720  46.552  1.00  0.00     0.117 C 
HETATM    9  C14 UNL     1      31.878   9.026  47.503  1.00  0.00    -0.004 C 
HETATM   10  C15 UNL     1      31.078   7.993  47.865  1.00  0.00    -0.041 C 
HETATM   11  C18 UNL     1      33.818   7.744  47.474  1.00  0.00    -0.032 C 
HETATM   12  C19 UNL     1      34.619   7.749  48.580  1.00  0.00    -0.009 C 
HETATM   13  C20 UNL     1      35.020   6.335  48.153  1.00  0.00     0.036 C 
HETATM   14  C21 UNL     1      35.616   5.555  49.263  1.00  0.00     0.019 C 
HETATM   15  H15 UNL     1      31.663   6.158  49.576  1.00  0.00     0.317 HD
ENDROOT
BRANCH   1  16
HETATM   16  C7  UNL     1      29.226   6.395  47.953  1.00  0.00     0.255 C 
HETATM   17  N2  UNL     1      28.371   5.818  48.886  1.00  0.00    -0.357 N 
HETATM   18  H13 UNL     1      28.996   5.403  49.633  1.00  0.00     0.162 HD
HETATM   19  O1  UNL     1      29.011   7.014  46.882  1.00  0.00    -0.271 OA
BRANCH  17  20
HETATM   20  C6  UNL     1      26.944   5.902  48.661  1.00  0.00     0.142 C 
BRANCH  20  21
HETATM   21  C5  UNL     1      26.420   7.130  49.325  1.00  0.00     0.141 C 
BRANCH  21  22
HETATM   22  N1  UNL     1      26.088   8.201  48.404  1.00  0.00    -0.392 N 
BRANCH  22  23
HETATM   23  C2  UNL     1      25.412   7.991  47.163  1.00  0.00     0.058 C 
HETATM   24  C1  UNL     1      25.880   8.448  46.001  1.00  0.00     0.049 C 
ENDBRANCH  22  23
BRANCH  22  25
HETATM   25  C3  UNL     1      26.571   9.455  48.994  1.00  0.00     0.117 C 
HETATM   26  C4  UNL     1      27.032   9.226  50.408  1.00  0.00     0.026 C 
ENDBRANCH  22  25
ENDBRANCH  21  22
ENDBRANCH  20  21
ENDBRANCH  17  20
ENDBRANCH   1  16
BRANCH  10  27
HETATM   27  C16 UNL     1      30.217   8.484  48.979  1.00  0.00     0.032 C 
HETATM   28  C17 UNL     1      30.563   9.885  49.444  1.00  0.00     0.010 C 
ENDBRANCH  10  27
TORSDOF 7
ENDMDL
MODEL 8
REMARK VINA RESULT:      -5.7      4.121      9.022
REMARK  7 active torsions:
REMARK  status: ('A' for Active; 'I' for Inactive)
REMARK    1  A    between atoms: C2_2  and  N1_3 
REMARK    2  A    between atoms: N1_3  and  C3_4 
REMARK    3  A    between atoms: N1_3  and  C5_6 
REMARK    4  A    between atoms: C5_6  and  C6_7 
REMARK    5  A    between atoms: C6_7  and  N2_8 
REMARK       I    between atoms: N2_8  and  C7_9 
REMARK    6  A    between atoms: C7_9  and  C8_11 
REMARK    7  A    between atoms: C15_20  and  C16_21 
ROOT
HETATM    1  C8  UNL     1      30.546   6.703  47.765  1.00  0.00     0.340 C 
HETATM    2  N3  UNL     1      31.140   5.764  48.656  1.00  0.00     0.105 N 
HETATM    3  C9  UNL     1      32.235   5.005  48.018  1.00  0.00     0.307 C 
HETATM    4  C10 UNL     1      33.395   5.881  47.716  1.00  0.00    -0.030 C 
HETATM    5  C11 UNL     1      32.952   6.661  46.815  1.00  0.00     0.023 C 
HETATM    6  C12 UNL     1      32.507   7.573  45.858  1.00  0.00     0.172 C 
HETATM    7  O2  UNL     1      31.931   7.628  44.746  1.00  0.00    -0.291 OA
HETATM    8  C13 UNL     1      32.951   8.770  46.577  1.00  0.00     0.117 C 
HETATM    9  C14 UNL     1      31.833   9.111  47.553  1.00  0.00    -0.004 C 
HETATM   10  C15 UNL     1      30.980   8.115  47.894  1.00  0.00    -0.041 C 
HETATM   11  C18 UNL     1      33.696   7.722  47.458  1.00  0.00    -0.032 C 
HETATM   12  C19 UNL     1      34.510   7.647  48.552  1.00  0.00    -0.009 C 
HETATM   13  C20 UNL     1      34.823   6.226  48.077  1.00  0.00     0.036 C 
HETATM   14  C21 UNL     1      35.387   5.379  49.154  1.00  0.00     0.019 C 
HETATM   15  H15 UNL     1      31.479   6.196  49.540  1.00  0.00     0.317 HD
ENDROOT
BRANCH   1  16
HETATM   16  C7  UNL     1      29.041   6.623  47.959  1.00  0.00     0.255 C 
HETATM   17  N2  UNL     1      28.166   6.134  48.925  1.00  0.00    -0.357 N 
HETATM   18  H13 UNL     1      28.777   5.727  49.688  1.00  0.00     0.162 HD
HETATM   19  O1  UNL     1      28.846   7.198  46.860  1.00  0.00    -0.271 OA
BRANCH  17  20
HETATM   20  C6  UNL     1      26.744   6.275  48.703  1.00  0.00     0.142 C 
BRANCH  20  21
HETATM   21  C5  UNL     1      26.027   5.203  49.451  1.00  0.00     0.141 C 
BRANCH  21  22
HETATM   22  N1  UNL     1      24.864   5.671  50.181  1.00  0.00    -0.392 N 
BRANCH  22  23
HETATM   23  C2  UNL     1      24.803   6.941  50.833  1.00  0.00     0.058 C 
HETATM   24  C1  UNL     1      23.792   7.794  50.656  1.00  0.00     0.049 C 
ENDBRANCH  22  23
BRANCH  22  25
HETATM   25  C3  UNL     1      23.842   4.621  50.104  1.00  0.00     0.117 C 
HETATM   26  C4  UNL     1      24.404   3.389  49.447  1.00  0.00     0.026 C 
ENDBRANCH  22  25
ENDBRANCH  21  22
ENDBRANCH  20  21
ENDBRANCH  17  20
ENDBRANCH   1  16
BRANCH  10  27
HETATM   27  C16 UNL     1      30.163   8.619  49.035  1.00  0.00     0.032 C 
HETATM   28  C17 UNL     1      30.440  10.066  49.390  1.00  0.00     0.010 C 
ENDBRANCH  10  27
TORSDOF 7
ENDMDL
MODEL 9
REMARK VINA RESULT:      -5.7      5.905      7.412
REMARK  7 active torsions:
REMARK  status: ('A' for Active; 'I' for Inactive)
REMARK    1  A    between atoms: C2_2  and  N1_3 
REMARK    2  A    between atoms: N1_3  and  C3_4 
REMARK    3  A    between atoms: N1_3  and  C5_6 
REMARK    4  A    between atoms: C5_6  and  C6_7 
REMARK    5  A    between atoms: C6_7  and  N2_8 
REMARK       I    between atoms: N2_8  and  C7_9 
REMARK    6  A    between atoms: C7_9  and  C8_11 
REMARK    7  A    between atoms: C15_20  and  C16_21 
ROOT
HETATM    1  C8  UNL     1      20.224   0.904  52.004  1.00  0.00     0.340 C 
HETATM    2  N3  UNL     1      19.766  -0.401  52.342  1.00  0.00     0.105 N 
HETATM    3  C9  UNL     1      18.416  -0.382  52.941  1.00  0.00     0.307 C 
HETATM    4  C10 UNL     1      17.391   0.028  51.949  1.00  0.00    -0.030 C 
HETATM    5  C11 UNL     1      17.675   1.245  51.713  1.00  0.00     0.023 C 
HETATM    6  C12 UNL     1      17.969   2.567  51.381  1.00  0.00     0.172 C 
HETATM    7  O2  UNL     1      18.188   3.685  51.903  1.00  0.00    -0.291 OA
HETATM    8  C13 UNL     1      17.975   2.358  49.931  1.00  0.00     0.117 C 
HETATM    9  C14 UNL     1      19.374   1.866  49.585  1.00  0.00    -0.004 C 
HETATM   10  C15 UNL     1      20.102   1.308  50.583  1.00  0.00    -0.041 C 
HETATM   11  C18 UNL     1      17.354   0.984  50.327  1.00  0.00    -0.032 C 
HETATM   12  C19 UNL     1      16.902  -0.175  49.763  1.00  0.00    -0.009 C 
HETATM   13  C20 UNL     1      16.218  -0.427  51.109  1.00  0.00     0.036 C 
HETATM   14  C21 UNL     1      15.860  -1.851  51.306  1.00  0.00     0.019 C 
HETATM   15  H15 UNL     1      19.786  -1.063  51.540  1.00  0.00     0.317 HD
ENDROOT
BRANCH   1  16
HETATM   16  C7  UNL     1      21.680   0.999  52.428  1.00  0.00     0.255 C 
HETATM   17  N2  UNL     1      22.720   0.112  52.692  1.00  0.00    -0.357 N 
HETATM   18  H13 UNL     1      22.320  -0.856  52.540  1.00  0.00     0.162 HD
HETATM   19  O1  UNL     1      21.614   2.252  52.457  1.00  0.00    -0.271 OA
BRANCH  17  20
HETATM   20  C6  UNL     1      24.006   0.651  53.078  1.00  0.00     0.142 C 
BRANCH  20  21
HETATM   21  C5  UNL     1      24.736  -0.365  53.889  1.00  0.00     0.141 C 
BRANCH  21  22
HETATM   22  N1  UNL     1      26.159  -0.426  53.614  1.00  0.00    -0.392 N 
BRANCH  22  23
HETATM   23  C2  UNL     1      26.713  -1.080  52.471  1.00  0.00     0.058 C 
HETATM   24  C1  UNL     1      27.143  -2.342  52.502  1.00  0.00     0.049 C 
ENDBRANCH  22  23
BRANCH  22  25
HETATM   25  C3  UNL     1      26.847   0.284  54.698  1.00  0.00     0.117 C 
HETATM   26  C4  UNL     1      27.967   1.125  54.146  1.00  0.00     0.026 C 
ENDBRANCH  22  25
ENDBRANCH  21  22
ENDBRANCH  20  21
ENDBRANCH  17  20
ENDBRANCH   1  16
BRANCH  10  27
HETATM   27  C16 UNL     1      21.296   0.681  49.948  1.00  0.00     0.032 C 
HETATM   28  C17 UNL     1      21.685   1.314  48.627  1.00  0.00     0.010 C 
ENDBRANCH  10  27
TORSDOF 7
ENDMDL
