MODEL 1
REMARK VINA RESULT:      -9.0      0.000      0.000
REMARK  2 active torsions:
REMARK  status: ('A' for Active; 'I' for Inactive)
REMARK    1  A    between atoms: C6_6  and  O1_7 
REMARK    2  A    between atoms: C8_9  and  O2_10 
ROOT
HETATM    1  C1  UNL     1      28.301   5.099  48.176  1.00  0.00     0.017 C 
HETATM    2  C2  UNL     1      27.305   4.861  48.809  1.00  0.00    -0.082 C 
HETATM    3  C3  UNL     1      26.110   4.569  49.542  1.00  0.00     0.003 C 
HETATM    4  C4  UNL     1      26.730   3.752  50.365  1.00  0.00     0.065 C 
HETATM    5  C5  UNL     1      26.873   2.848  51.448  1.00  0.00     0.019 C 
HETATM    6  C6  UNL     1      26.832   2.047  52.466  1.00  0.00     0.071 C 
HETATM    7  C8  UNL     1      25.826   1.601  53.396  1.00  0.00     0.174 C 
HETATM    8  C9  UNL     1      24.894   0.528  52.996  1.00  0.00     0.040 C 
HETATM    9  C10 UNL     1      23.893   0.843  51.942  1.00  0.00     0.023 C 
HETATM   10  C11 UNL     1      22.973   1.970  52.324  1.00  0.00     0.123 C 
HETATM   11  N1  UNL     1      21.884   2.058  51.384  1.00  0.00    -0.381 N 
HETATM   12  C12 UNL     1      21.047   3.244  51.625  1.00  0.00     0.149 C 
HETATM   13  C13 UNL     1      19.727   2.670  52.135  1.00  0.00     0.187 C 
HETATM   14  O3  UNL     1      19.156   1.751  51.303  1.00  0.00    -0.384 OA
HETATM   15  C14 UNL     1      20.006   0.743  50.880  1.00  0.00     0.224 C 
HETATM   16  C15 UNL     1      21.198   1.430  50.260  1.00  0.00     0.027 C 
HETATM   17  C16 UNL     1      21.736   1.592  49.023  1.00  0.00     0.004 C 
HETATM   18  C17 UNL     1      22.233   1.710  47.679  1.00  0.00     0.061 C 
HETATM   19  C18 UNL     1      22.114   3.156  47.292  1.00  0.00     0.038 C 
HETATM   20  C19 UNL     1      21.983   4.459  47.009  1.00  0.00     0.180 C 
HETATM   21  F1  UNL     1      22.119   5.500  46.112  1.00  0.00    -0.187 F 
HETATM   22  N2  UNL     1      21.453   5.199  48.148  1.00  0.00    -0.364 N 
HETATM   23  C20 UNL     1      22.493   6.043  48.736  1.00  0.00     0.149 C 
HETATM   24  C21 UNL     1      23.575   5.275  49.371  1.00  0.00    -0.006 C 
HETATM   25  C22 UNL     1      24.858   5.182  49.137  1.00  0.00     0.014 C 
HETATM   26  H25 UNL     1      20.456   4.901  48.204  1.00  0.00     0.162 HD
ENDROOT
BRANCH   6  27
HETATM   27  O1  UNL     1      28.098   1.465  52.738  1.00  0.00    -0.358 OA
HETATM   28  C7  UNL     1      28.490   1.032  54.005  1.00  0.00     0.209 C 
ENDBRANCH   6  27
BRANCH   7  29
HETATM   29  O2  UNL     1      25.110   2.774  53.780  1.00  0.00    -0.389 OA
HETATM   30  H8  UNL     1      25.628   3.330  54.391  1.00  0.00     0.210 HD
ENDBRANCH   7  29
TORSDOF 2
ENDMDL
MODEL 2
REMARK VINA RESULT:      -7.9      1.912      2.392
REMARK  2 active torsions:
REMARK  status: ('A' for Active; 'I' for Inactive)
REMARK    1  A    between atoms: C6_6  and  O1_7 
REMARK    2  A    between atoms: C8_9  and  O2_10 
ROOT
HETATM    1  C1  UNL     1      28.183   5.029  48.467  1.00  0.00     0.017 C 
HETATM    2  C2  UNL     1      27.028   5.006  48.807  1.00  0.00    -0.082 C 
HETATM    3  C3  UNL     1      25.648   4.977  49.188  1.00  0.00     0.003 C 
HETATM    4  C4  UNL     1      25.803   3.903  49.930  1.00  0.00     0.065 C 
HETATM    5  C5  UNL     1      25.423   2.849  50.800  1.00  0.00     0.019 C 
HETATM    6  C6  UNL     1      24.914   1.956  51.590  1.00  0.00     0.071 C 
HETATM    7  C8  UNL     1      23.619   1.698  52.166  1.00  0.00     0.174 C 
HETATM    8  C9  UNL     1      22.588   1.018  51.357  1.00  0.00     0.040 C 
HETATM    9  C10 UNL     1      22.014   1.766  50.206  1.00  0.00     0.023 C 
HETATM   10  C11 UNL     1      21.339   3.046  50.615  1.00  0.00     0.123 C 
HETATM   11  N1  UNL     1      20.596   3.589  49.505  1.00  0.00    -0.381 N 
HETATM   12  C12 UNL     1      20.050   4.921  49.811  1.00  0.00     0.149 C 
HETATM   13  C13 UNL     1      18.542   4.695  49.892  1.00  0.00     0.187 C 
HETATM   14  O3  UNL     1      18.000   4.117  48.781  1.00  0.00    -0.384 OA
HETATM   15  C14 UNL     1      18.650   2.976  48.343  1.00  0.00     0.224 C 
HETATM   16  C15 UNL     1      20.097   3.362  48.153  1.00  0.00     0.027 C 
HETATM   17  C16 UNL     1      20.966   3.536  47.123  1.00  0.00     0.004 C 
HETATM   18  C17 UNL     1      21.814   3.697  45.974  1.00  0.00     0.061 C 
HETATM   19  C18 UNL     1      22.168   5.153  45.889  1.00  0.00     0.038 C 
HETATM   20  C19 UNL     1      22.449   6.464  45.870  1.00  0.00     0.180 C 
HETATM   21  F1  UNL     1      23.074   7.537  45.267  1.00  0.00    -0.187 F 
HETATM   22  N2  UNL     1      21.839   7.153  47.001  1.00  0.00    -0.364 N 
HETATM   23  C20 UNL     1      22.864   7.556  47.964  1.00  0.00     0.149 C 
HETATM   24  C21 UNL     1      23.510   6.419  48.636  1.00  0.00    -0.006 C 
HETATM   25  C22 UNL     1      24.743   5.986  48.667  1.00  0.00     0.014 C 
HETATM   26  H25 UNL     1      20.821   7.158  46.778  1.00  0.00     0.162 HD
ENDROOT
BRANCH   6  27
HETATM   27  O1  UNL     1      25.875   0.993  51.995  1.00  0.00    -0.358 OA
HETATM   28  C7  UNL     1      25.950   0.478  53.288  1.00  0.00     0.209 C 
ENDBRANCH   6  27
BRANCH   7  29
HETATM   29  O2  UNL     1      23.145   2.961  52.630  1.00  0.00    -0.389 OA
HETATM   30  H8  UNL     1      23.567   3.219  53.470  1.00  0.00     0.210 HD
ENDBRANCH   7  29
TORSDOF 2
ENDMDL
MODEL 3
REMARK VINA RESULT:      -7.9      4.377      7.159
REMARK  2 active torsions:
REMARK  status: ('A' for Active; 'I' for Inactive)
REMARK    1  A    between atoms: C6_6  and  O1_7 
REMARK    2  A    between atoms: C8_9  and  O2_10 
ROOT
HETATM    1  C1  UNL     1      22.133  -1.424  54.832  1.00  0.00     0.017 C 
HETATM    2  C2  UNL     1      21.479  -0.639  54.197  1.00  0.00    -0.082 C 
HETATM    3  C3  UNL     1      20.718   0.296  53.423  1.00  0.00     0.003 C 
HETATM    4  C4  UNL     1      19.683  -0.510  53.338  1.00  0.00     0.065 C 
HETATM    5  C5  UNL     1      18.383  -0.934  52.958  1.00  0.00     0.019 C 
HETATM    6  C6  UNL     1      17.179  -1.162  52.536  1.00  0.00     0.071 C 
HETATM    7  C8  UNL     1      16.182  -0.430  51.798  1.00  0.00     0.174 C 
HETATM    8  C9  UNL     1      16.277  -0.357  50.326  1.00  0.00     0.040 C 
HETATM    9  C10 UNL     1      17.397   0.433  49.747  1.00  0.00     0.023 C 
HETATM   10  C11 UNL     1      17.373   1.878  50.161  1.00  0.00     0.123 C 
HETATM   11  N1  UNL     1      18.321   2.631  49.379  1.00  0.00    -0.381 N 
HETATM   12  C12 UNL     1      18.447   4.018  49.857  1.00  0.00     0.149 C 
HETATM   13  C13 UNL     1      17.821   4.853  48.742  1.00  0.00     0.187 C 
HETATM   14  O3  UNL     1      18.366   4.642  47.509  1.00  0.00    -0.384 OA
HETATM   15  C14 UNL     1      18.466   3.312  47.137  1.00  0.00     0.224 C 
HETATM   16  C15 UNL     1      19.232   2.623  48.239  1.00  0.00     0.027 C 
HETATM   17  C16 UNL     1      20.452   2.050  48.412  1.00  0.00     0.004 C 
HETATM   18  C17 UNL     1      21.763   1.467  48.504  1.00  0.00     0.061 C 
HETATM   19  C18 UNL     1      22.550   2.305  49.469  1.00  0.00     0.038 C 
HETATM   20  C19 UNL     1      23.197   3.090  50.341  1.00  0.00     0.180 C 
HETATM   21  F1  UNL     1      24.352   3.400  51.033  1.00  0.00    -0.187 F 
HETATM   22  N2  UNL     1      22.329   4.145  50.851  1.00  0.00    -0.364 N 
HETATM   23  C20 UNL     1      21.986   3.890  52.250  1.00  0.00     0.149 C 
HETATM   24  C21 UNL     1      21.136   2.705  52.434  1.00  0.00    -0.006 C 
HETATM   25  C22 UNL     1      21.307   1.575  53.070  1.00  0.00     0.014 C 
HETATM   26  H25 UNL     1      22.210   4.791  50.042  1.00  0.00     0.162 HD
ENDROOT
BRANCH   6  27
HETATM   27  O1  UNL     1      16.726  -2.459  52.893  1.00  0.00    -0.358 OA
HETATM   28  C7  UNL     1      17.475  -3.350  53.661  1.00  0.00     0.209 C 
ENDBRANCH   6  27
BRANCH   7  29
HETATM   29  O2  UNL     1      16.165   0.878  52.369  1.00  0.00    -0.389 OA
HETATM   30  H8  UNL     1      16.627   0.905  53.226  1.00  0.00     0.210 HD
ENDBRANCH   7  29
TORSDOF 2
ENDMDL
MODEL 4
REMARK VINA RESULT:      -7.9      2.331      5.507
REMARK  2 active torsions:
REMARK  status: ('A' for Active; 'I' for Inactive)
REMARK    1  A    between atoms: C6_6  and  O1_7 
REMARK    2  A    between atoms: C8_9  and  O2_10 
ROOT
HETATM    1  C1  UNL     1      18.401  -0.339  51.512  1.00  0.00     0.017 C 
HETATM    2  C2  UNL     1      19.421   0.210  51.184  1.00  0.00    -0.082 C 
HETATM    3  C3  UNL     1      20.623   0.884  50.794  1.00  0.00     0.003 C 
HETATM    4  C4  UNL     1      21.289   0.450  51.842  1.00  0.00     0.065 C 
HETATM    5  C5  UNL     1      22.399   0.287  52.709  1.00  0.00     0.019 C 
HETATM    6  C6  UNL     1      23.503   0.237  53.387  1.00  0.00     0.071 C 
HETATM    7  C8  UNL     1      24.837   0.757  53.235  1.00  0.00     0.174 C 
HETATM    8  C9  UNL     1      25.116   2.158  53.610  1.00  0.00     0.040 C 
HETATM    9  C10 UNL     1      24.519   3.228  52.764  1.00  0.00     0.023 C 
HETATM   10  C11 UNL     1      24.966   3.161  51.330  1.00  0.00     0.123 C 
HETATM   11  N1  UNL     1      24.559   4.354  50.630  1.00  0.00    -0.381 N 
HETATM   12  C12 UNL     1      24.833   4.263  49.188  1.00  0.00     0.149 C 
HETATM   13  C13 UNL     1      25.955   5.273  48.959  1.00  0.00     0.187 C 
HETATM   14  O3  UNL     1      25.670   6.537  49.389  1.00  0.00    -0.384 OA
HETATM   15  C14 UNL     1      25.187   6.615  50.684  1.00  0.00     0.224 C 
HETATM   16  C15 UNL     1      23.994   5.694  50.745  1.00  0.00     0.027 C 
HETATM   17  C16 UNL     1      22.644   5.800  50.868  1.00  0.00     0.004 C 
HETATM   18  C17 UNL     1      21.228   6.008  51.001  1.00  0.00     0.061 C 
HETATM   19  C18 UNL     1      20.595   5.560  49.715  1.00  0.00     0.038 C 
HETATM   20  C19 UNL     1      20.092   5.141  48.546  1.00  0.00     0.180 C 
HETATM   21  F1  UNL     1      19.000   4.945  47.724  1.00  0.00    -0.187 F 
HETATM   22  N2  UNL     1      21.139   4.627  47.672  1.00  0.00    -0.364 N 
HETATM   23  C20 UNL     1      21.036   3.172  47.555  1.00  0.00     0.149 C 
HETATM   24  C21 UNL     1      21.337   2.465  48.809  1.00  0.00    -0.006 C 
HETATM   25  C22 UNL     1      20.631   1.684  49.583  1.00  0.00     0.014 C 
HETATM   26  H25 UNL     1      21.665   5.477  47.376  1.00  0.00     0.162 HD
ENDROOT
BRANCH   6  27
HETATM   27  O1  UNL     1      23.365  -0.526  54.575  1.00  0.00    -0.358 OA
HETATM   28  C7  UNL     1      22.248  -1.312  54.859  1.00  0.00     0.209 C 
ENDBRANCH   6  27
BRANCH   7  29
HETATM   29  O2  UNL     1      25.192   0.518  51.874  1.00  0.00    -0.389 OA
HETATM   30  H8  UNL     1      25.998  -0.026  51.801  1.00  0.00     0.210 HD
ENDBRANCH   7  29
TORSDOF 2
ENDMDL
MODEL 5
REMARK VINA RESULT:      -7.8      6.441     10.626
REMARK  2 active torsions:
REMARK  status: ('A' for Active; 'I' for Inactive)
REMARK    1  A    between atoms: C6_6  and  O1_7 
REMARK    2  A    between atoms: C8_9  and  O2_10 
ROOT
HETATM    1  C1  UNL     1      26.903   4.555  49.374  1.00  0.00     0.017 C 
HETATM    2  C2  UNL     1      27.591   5.254  48.677  1.00  0.00    -0.082 C 
HETATM    3  C3  UNL     1      28.406   6.105  47.862  1.00  0.00     0.003 C 
HETATM    4  C4  UNL     1      29.459   5.325  47.978  1.00  0.00     0.065 C 
HETATM    5  C5  UNL     1      30.794   4.893  47.776  1.00  0.00     0.019 C 
HETATM    6  C6  UNL     1      32.034   4.642  47.490  1.00  0.00     0.071 C 
HETATM    7  C8  UNL     1      33.061   5.264  46.695  1.00  0.00     0.174 C 
HETATM    8  C9  UNL     1      33.817   6.405  47.250  1.00  0.00     0.040 C 
HETATM    9  C10 UNL     1      33.085   7.685  47.446  1.00  0.00     0.023 C 
HETATM   10  C11 UNL     1      32.518   8.239  46.167  1.00  0.00     0.123 C 
HETATM   11  N1  UNL     1      32.046   9.585  46.379  1.00  0.00    -0.381 N 
HETATM   12  C12 UNL     1      31.340  10.109  45.200  1.00  0.00     0.149 C 
HETATM   13  C13 UNL     1      32.270  11.194  44.662  1.00  0.00     0.187 C 
HETATM   14  O3  UNL     1      32.604  12.151  45.577  1.00  0.00    -0.384 OA
HETATM   15  C14 UNL     1      33.060  11.662  46.789  1.00  0.00     0.224 C 
HETATM   16  C15 UNL     1      31.992  10.721  47.292  1.00  0.00     0.027 C 
HETATM   17  C16 UNL     1      31.077  10.681  48.295  1.00  0.00     0.004 C 
HETATM   18  C17 UNL     1      30.140  10.725  49.384  1.00  0.00     0.061 C 
HETATM   19  C18 UNL     1      28.767  10.801  48.781  1.00  0.00     0.038 C 
HETATM   20  C19 UNL     1      27.570  10.865  48.180  1.00  0.00     0.180 C 
HETATM   21  F1  UNL     1      26.196  10.952  48.276  1.00  0.00    -0.187 F 
HETATM   22  N2  UNL     1      27.702  10.821  46.729  1.00  0.00    -0.364 N 
HETATM   23  C20 UNL     1      27.226   9.538  46.212  1.00  0.00     0.149 C 
HETATM   24  C21 UNL     1      28.070   8.401  46.611  1.00  0.00    -0.006 C 
HETATM   25  C22 UNL     1      27.842   7.328  47.322  1.00  0.00     0.014 C 
HETATM   26  H25 UNL     1      28.106  11.750  46.481  1.00  0.00     0.162 HD
ENDROOT
BRANCH   6  27
HETATM   27  O1  UNL     1      32.494   3.453  48.113  1.00  0.00    -0.358 OA
HETATM   28  C7  UNL     1      33.197   2.454  47.439  1.00  0.00     0.209 C 
ENDBRANCH   6  27
BRANCH   7  29
HETATM   29  O2  UNL     1      32.432   5.625  45.466  1.00  0.00    -0.389 OA
HETATM   30  H8  UNL     1      31.478   5.784  45.582  1.00  0.00     0.210 HD
ENDBRANCH   7  29
TORSDOF 2
ENDMDL
MODEL 6
REMARK VINA RESULT:      -7.5      5.912      8.995
REMARK  2 active torsions:
REMARK  status: ('A' for Active; 'I' for Inactive)
REMARK    1  A    between atoms: C6_6  and  O1_7 
REMARK    2  A    between atoms: C8_9  and  O2_10 
ROOT
HETATM    1  C1  UNL     1      31.889   4.072  47.368  1.00  0.00     0.017 C 
HETATM    2  C2  UNL     1      31.221   5.038  47.631  1.00  0.00    -0.082 C 
HETATM    3  C3  UNL     1      30.430   6.196  47.922  1.00  0.00     0.003 C 
HETATM    4  C4  UNL     1      29.362   5.483  48.202  1.00  0.00     0.065 C 
HETATM    5  C5  UNL     1      28.020   5.234  48.587  1.00  0.00     0.019 C 
HETATM    6  C6  UNL     1      26.778   5.183  48.957  1.00  0.00     0.071 C 
HETATM    7  C8  UNL     1      25.770   6.136  49.343  1.00  0.00     0.174 C 
HETATM    8  C9  UNL     1      25.032   6.874  48.298  1.00  0.00     0.040 C 
HETATM    9  C10 UNL     1      25.788   7.878  47.501  1.00  0.00     0.023 C 
HETATM   10  C11 UNL     1      26.377   8.975  48.345  1.00  0.00     0.123 C 
HETATM   11  N1  UNL     1      26.873  10.033  47.501  1.00  0.00    -0.381 N 
HETATM   12  C12 UNL     1      27.600  11.054  48.273  1.00  0.00     0.149 C 
HETATM   13  C13 UNL     1      26.697  12.283  48.208  1.00  0.00     0.187 C 
HETATM   14  O3  UNL     1      26.373  12.675  46.941  1.00  0.00    -0.384 OA
HETATM   15  C14 UNL     1      25.897  11.664  46.123  1.00  0.00     0.224 C 
HETATM   16  C15 UNL     1      26.941  10.575  46.148  1.00  0.00     0.027 C 
HETATM   17  C16 UNL     1      27.847  10.028  45.295  1.00  0.00     0.004 C 
HETATM   18  C17 UNL     1      28.775   9.512  44.326  1.00  0.00     0.061 C 
HETATM   19  C18 UNL     1      30.154   9.845  44.818  1.00  0.00     0.038 C 
HETATM   20  C19 UNL     1      31.357  10.169  45.312  1.00  0.00     0.180 C 
HETATM   21  F1  UNL     1      32.732  10.169  45.189  1.00  0.00    -0.187 F 
HETATM   22  N2  UNL     1      31.237  10.846  46.598  1.00  0.00    -0.364 N 
HETATM   23  C20 UNL     1      31.693   9.971  47.679  1.00  0.00     0.149 C 
HETATM   24  C21 UNL     1      30.823   8.804  47.887  1.00  0.00    -0.006 C 
HETATM   25  C22 UNL     1      31.023   7.515  47.794  1.00  0.00     0.014 C 
HETATM   26  H25 UNL     1      30.854  11.785  46.358  1.00  0.00     0.162 HD
ENDROOT
BRANCH   6  27
HETATM   27  O1  UNL     1      26.289   3.851  48.997  1.00  0.00    -0.358 OA
HETATM   28  C7  UNL     1      26.418   3.017  50.107  1.00  0.00     0.209 C 
ENDBRANCH   6  27
BRANCH   7  29
HETATM   29  O2  UNL     1      26.417   7.040  50.238  1.00  0.00    -0.389 OA
HETATM   30  H8  UNL     1      26.550   7.917  49.834  1.00  0.00     0.210 HD
ENDBRANCH   7  29
TORSDOF 2
ENDMDL
MODEL 7
REMARK VINA RESULT:      -7.4      3.636      6.815
REMARK  2 active torsions:
REMARK  status: ('A' for Active; 'I' for Inactive)
REMARK    1  A    between atoms: C6_6  and  O1_7 
REMARK    2  A    between atoms: C8_9  and  O2_10 
ROOT
HETATM    1  C1  UNL     1      22.293  -1.483  53.524  1.00  0.00     0.017 C 
HETATM    2  C2  UNL     1      21.971  -0.384  53.154  1.00  0.00    -0.082 C 
HETATM    3  C3  UNL     1      21.606   0.923  52.696  1.00  0.00     0.003 C 
HETATM    4  C4  UNL     1      20.377   0.556  52.409  1.00  0.00     0.065 C 
HETATM    5  C5  UNL     1      19.041   0.702  51.955  1.00  0.00     0.019 C 
HETATM    6  C6  UNL     1      17.861   1.005  51.513  1.00  0.00     0.071 C 
HETATM    7  C8  UNL     1      17.205   2.197  51.038  1.00  0.00     0.174 C 
HETATM    8  C9  UNL     1      17.423   2.638  49.646  1.00  0.00     0.040 C 
HETATM    9  C10 UNL     1      18.776   3.146  49.290  1.00  0.00     0.023 C 
HETATM   10  C11 UNL     1      19.185   4.346  50.098  1.00  0.00     0.123 C 
HETATM   11  N1  UNL     1      20.378   4.934  49.540  1.00  0.00    -0.381 N 
HETATM   12  C12 UNL     1      20.905   6.014  50.390  1.00  0.00     0.149 C 
HETATM   13  C13 UNL     1      20.660   7.281  49.574  1.00  0.00     0.187 C 
HETATM   14  O3  UNL     1      21.196   7.253  48.319  1.00  0.00    -0.384 OA
HETATM   15  C14 UNL     1      20.892   6.121  47.582  1.00  0.00     0.224 C 
HETATM   16  C15 UNL     1      21.317   4.943  48.424  1.00  0.00     0.027 C 
HETATM   17  C16 UNL     1      22.275   3.979  48.398  1.00  0.00     0.004 C 
HETATM   18  C17 UNL     1      23.320   2.999  48.290  1.00  0.00     0.061 C 
HETATM   19  C18 UNL     1      24.263   3.232  49.435  1.00  0.00     0.038 C 
HETATM   20  C19 UNL     1      25.063   3.490  50.479  1.00  0.00     0.180 C 
HETATM   21  F1  UNL     1      26.203   3.202  51.203  1.00  0.00    -0.187 F 
HETATM   22  N2  UNL     1      24.542   4.586  51.287  1.00  0.00    -0.364 N 
HETATM   23  C20 UNL     1      24.037   4.081  52.565  1.00  0.00     0.149 C 
HETATM   24  C21 UNL     1      22.841   3.237  52.423  1.00  0.00    -0.006 C 
HETATM   25  C22 UNL     1      22.596   1.984  52.707  1.00  0.00     0.014 C 
HETATM   26  H25 UNL     1      24.694   5.433  50.699  1.00  0.00     0.162 HD
ENDROOT
BRANCH   6  27
HETATM   27  O1  UNL     1      16.993  -0.117  51.498  1.00  0.00    -0.358 OA
HETATM   28  C7  UNL     1      16.717  -0.893  52.624  1.00  0.00     0.209 C 
ENDBRANCH   6  27
BRANCH   7  29
HETATM   29  O2  UNL     1      17.566   3.227  51.957  1.00  0.00    -0.389 OA
HETATM   30  H8  UNL     1      16.832   3.447  52.560  1.00  0.00     0.210 HD
ENDBRANCH   7  29
TORSDOF 2
ENDMDL
MODEL 8
REMARK VINA RESULT:      -7.2      7.841     12.534
REMARK  2 active torsions:
REMARK  status: ('A' for Active; 'I' for Inactive)
REMARK    1  A    between atoms: C6_6  and  O1_7 
REMARK    2  A    between atoms: C8_9  and  O2_10 
ROOT
HETATM    1  C1  UNL     1      27.936   4.815  48.606  1.00  0.00     0.017 C 
HETATM    2  C2  UNL     1      28.816   5.536  48.213  1.00  0.00    -0.082 C 
HETATM    3  C3  UNL     1      29.873   6.375  47.734  1.00  0.00     0.003 C 
HETATM    4  C4  UNL     1      29.041   7.209  47.150  1.00  0.00     0.065 C 
HETATM    5  C5  UNL     1      28.639   8.343  46.400  1.00  0.00     0.019 C 
HETATM    6  C6  UNL     1      28.444   9.419  45.704  1.00  0.00     0.071 C 
HETATM    7  C8  UNL     1      29.271  10.451  45.135  1.00  0.00     0.174 C 
HETATM    8  C9  UNL     1      29.959  10.204  43.852  1.00  0.00     0.040 C 
HETATM    9  C10 UNL     1      31.063   9.206  43.845  1.00  0.00     0.023 C 
HETATM   10  C11 UNL     1      32.189   9.569  44.773  1.00  0.00     0.123 C 
HETATM   11  N1  UNL     1      33.321   8.707  44.536  1.00  0.00    -0.381 N 
HETATM   12  C12 UNL     1      34.388   8.920  45.527  1.00  0.00     0.149 C 
HETATM   13  C13 UNL     1      35.515   9.568  44.726  1.00  0.00     0.187 C 
HETATM   14  O3  UNL     1      35.910   8.852  43.633  1.00  0.00    -0.384 OA
HETATM   15  C14 UNL     1      34.881   8.444  42.802  1.00  0.00     0.224 C 
HETATM   16  C15 UNL     1      33.909   7.688  43.674  1.00  0.00     0.027 C 
HETATM   17  C16 UNL     1      33.490   6.406  43.838  1.00  0.00     0.004 C 
HETATM   18  C17 UNL     1      33.107   5.024  43.941  1.00  0.00     0.061 C 
HETATM   19  C18 UNL     1      33.569   4.539  45.285  1.00  0.00     0.038 C 
HETATM   20  C19 UNL     1      34.004   4.168  46.497  1.00  0.00     0.180 C 
HETATM   21  F1  UNL     1      34.154   3.188  47.458  1.00  0.00    -0.187 F 
HETATM   22  N2  UNL     1      34.623   5.285  47.202  1.00  0.00    -0.364 N 
HETATM   23  C20 UNL     1      33.767   5.729  48.303  1.00  0.00     0.149 C 
HETATM   24  C21 UNL     1      32.508   6.339  47.851  1.00  0.00    -0.006 C 
HETATM   25  C22 UNL     1      31.251   6.019  48.020  1.00  0.00     0.014 C 
HETATM   26  H25 UNL     1      35.523   5.437  46.700  1.00  0.00     0.162 HD
ENDROOT
BRANCH   6  27
HETATM   27  O1  UNL     1      27.067   9.640  45.440  1.00  0.00    -0.358 OA
HETATM   28  C7  UNL     1      26.467  10.899  45.482  1.00  0.00     0.209 C 
ENDBRANCH   6  27
BRANCH   7  29
HETATM   29  O2  UNL     1      30.210  10.798  46.152  1.00  0.00    -0.389 OA
HETATM   30  H8  UNL     1      30.334  11.762  46.216  1.00  0.00     0.210 HD
ENDBRANCH   7  29
TORSDOF 2
ENDMDL
MODEL 9
REMARK VINA RESULT:      -7.0      8.654     12.057
REMARK  2 active torsions:
REMARK  status: ('A' for Active; 'I' for Inactive)
REMARK    1  A    between atoms: C6_6  and  O1_7 
REMARK    2  A    between atoms: C8_9  and  O2_10 
ROOT
HETATM    1  C1  UNL     1      31.013  14.094  44.399  1.00  0.00     0.017 C 
HETATM    2  C2  UNL     1      31.408  13.116  44.980  1.00  0.00    -0.082 C 
HETATM    3  C3  UNL     1      31.856  11.946  45.673  1.00  0.00     0.003 C 
HETATM    4  C4  UNL     1      32.577  11.532  44.654  1.00  0.00     0.065 C 
HETATM    5  C5  UNL     1      33.451  10.682  43.931  1.00  0.00     0.019 C 
HETATM    6  C6  UNL     1      34.255   9.805  43.416  1.00  0.00     0.071 C 
HETATM    7  C8  UNL     1      34.891   8.592  43.862  1.00  0.00     0.174 C 
HETATM    8  C9  UNL     1      34.125   7.329  43.861  1.00  0.00     0.040 C 
HETATM    9  C10 UNL     1      33.012   7.199  44.841  1.00  0.00     0.023 C 
HETATM   10  C11 UNL     1      33.469   7.322  46.268  1.00  0.00     0.123 C 
HETATM   11  N1  UNL     1      32.403   6.942  47.162  1.00  0.00    -0.381 N 
HETATM   12  C12 UNL     1      32.751   7.198  48.569  1.00  0.00     0.149 C 
HETATM   13  C13 UNL     1      32.903   5.804  49.173  1.00  0.00     0.187 C 
HETATM   14  O3  UNL     1      31.813   4.999  49.011  1.00  0.00    -0.384 OA
HETATM   15  C14 UNL     1      31.330   4.929  47.715  1.00  0.00     0.224 C 
HETATM   16  C15 UNL     1      31.075   6.352  47.283  1.00  0.00     0.027 C 
HETATM   17  C16 UNL     1      30.006   7.144  47.006  1.00  0.00     0.004 C 
HETATM   18  C17 UNL     1      28.818   7.907  46.734  1.00  0.00     0.061 C 
HETATM   19  C18 UNL     1      28.733   8.977  47.784  1.00  0.00     0.038 C 
HETATM   20  C19 UNL     1      28.716   9.910  48.747  1.00  0.00     0.180 C 
HETATM   21  F1  UNL     1      28.096  10.988  49.346  1.00  0.00    -0.187 F 
HETATM   22  N2  UNL     1      29.883   9.799  49.613  1.00  0.00    -0.364 N 
HETATM   23  C20 UNL     1      30.800  10.915  49.377  1.00  0.00     0.149 C 
HETATM   24  C21 UNL     1      31.426  10.882  48.047  1.00  0.00    -0.006 C 
HETATM   25  C22 UNL     1      31.391  11.697  47.025  1.00  0.00     0.014 C 
HETATM   26  H25 UNL     1      29.711   8.932  50.165  1.00  0.00     0.162 HD
ENDROOT
BRANCH   6  27
HETATM   27  O1  UNL     1      34.601  10.121  42.076  1.00  0.00    -0.358 OA
HETATM   28  C7  UNL     1      35.817   9.767  41.491  1.00  0.00     0.209 C 
ENDBRANCH   6  27
BRANCH   7  29
HETATM   29  O2  UNL     1      35.392   8.877  45.167  1.00  0.00    -0.389 OA
HETATM   30  H8  UNL     1      36.171   8.331  45.382  1.00  0.00     0.210 HD
ENDBRANCH   7  29
TORSDOF 2
ENDMDL
