MODEL 1
REMARK VINA RESULT:      -9.6      0.000      0.000
REMARK  5 active torsions:
REMARK  status: ('A' for Active; 'I' for Inactive)
REMARK    1  A    between atoms: O1_2  and  C2_3 
REMARK    2  A    between atoms: C4_5  and  O2_6 
REMARK    3  A    between atoms: O2_6  and  C5_7 
REMARK       I    between atoms: N1_10  and  C8_11 
REMARK    4  A    between atoms: C12_17  and  N2_18 
REMARK    5  A    between atoms: N2_18  and  C13_19 
ROOT
HETATM    1  C2  UNL     1      19.686  -0.115  52.554  1.00  0.00     0.073 A 
HETATM    2  C3  UNL     1      20.631   0.613  51.826  1.00  0.00     0.074 A 
HETATM    3  C4  UNL     1      21.969   0.641  52.152  1.00  0.00     0.089 A 
HETATM    4  C11 UNL     1      22.375  -0.087  53.246  1.00  0.00     0.072 A 
HETATM    5  C12 UNL     1      23.682  -0.090  53.603  1.00  0.00     0.144 A 
HETATM    6  N3  UNL     1      24.012  -0.821  54.677  1.00  0.00    -0.223 NA
HETATM    7  C19 UNL     1      23.152  -1.530  55.400  1.00  0.00     0.236 A 
HETATM    8  N4  UNL     1      21.847  -1.512  55.022  1.00  0.00    -0.241 NA
HETATM    9  C20 UNL     1      21.434  -0.806  53.959  1.00  0.00     0.077 A 
HETATM   10  C21 UNL     1      20.105  -0.856  53.666  1.00  0.00     0.069 A 
ENDROOT
BRANCH   3  11
HETATM   11  O2  UNL     1      22.843   1.377  51.397  1.00  0.00    -0.334 OA
BRANCH  11  12
HETATM   12  C5  UNL     1      22.776   2.725  51.087  1.00  0.00     0.193 C 
HETATM   13  C6  UNL     1      23.014   3.619  52.297  1.00  0.00     0.063 C 
HETATM   14  C7  UNL     1      22.761   5.041  51.910  1.00  0.00     0.130 C 
HETATM   15  N1  UNL     1      23.594   5.514  50.851  1.00  0.00    -0.343 N 
HETATM   16  C8  UNL     1      23.270   6.699  50.135  1.00  0.00     0.216 C 
HETATM   17  C10 UNL     1      24.796   4.743  50.523  1.00  0.00     0.202 C 
HETATM   18  C9  UNL     1      22.055   7.451  50.492  1.00  0.00     0.117 C 
HETATM   19  O3  UNL     1      24.046   7.078  49.200  1.00  0.00    -0.274 OA
HETATM   20  S1  UNL     1      24.162   3.119  49.949  1.00  0.00    -0.117 SA
ENDBRANCH  11  12
ENDBRANCH   3  11
BRANCH   1  21
HETATM   21  O1  UNL     1      18.339  -0.159  52.247  1.00  0.00    -0.356 OA
HETATM   22  C1  UNL     1      17.460  -1.130  52.811  1.00  0.00     0.210 C 
ENDBRANCH   1  21
BRANCH   5  23
HETATM   23  N2  UNL     1      24.717   0.627  52.952  1.00  0.00    -0.340 N 
HETATM   24  H15 UNL     1      24.821   1.428  52.307  1.00  0.00     0.167 HD
BRANCH  23  25
HETATM   25  C13 UNL     1      26.096   0.274  53.119  1.00  0.00     0.035 A 
HETATM   26  C14 UNL     1      26.712  -0.947  52.817  1.00  0.00     0.032 A 
HETATM   27  C15 UNL     1      28.020  -1.246  53.006  1.00  0.00     0.046 A 
HETATM   28  C16 UNL     1      28.838  -0.295  53.535  1.00  0.00     0.138 A 
HETATM   29  F1  UNL     1      30.141  -0.616  53.714  1.00  0.00    -0.204 F 
HETATM   30  C17 UNL     1      28.338   0.950  53.871  1.00  0.00     0.074 A 
HETATM   31 CL1  UNL     1      29.469   2.078  54.536  1.00  0.00    -0.081 Cl
HETATM   32  C18 UNL     1      26.994   1.196  53.656  1.00  0.00     0.056 A 
ENDBRANCH  23  25
ENDBRANCH   5  23
TORSDOF 5
ENDMDL
MODEL 2
REMARK VINA RESULT:      -9.0      3.996      6.379
REMARK  5 active torsions:
REMARK  status: ('A' for Active; 'I' for Inactive)
REMARK    1  A    between atoms: O1_2  and  C2_3 
REMARK    2  A    between atoms: C4_5  and  O2_6 
REMARK    3  A    between atoms: O2_6  and  C5_7 
REMARK       I    between atoms: N1_10  and  C8_11 
REMARK    4  A    between atoms: C12_17  and  N2_18 
REMARK    5  A    between atoms: N2_18  and  C13_19 
ROOT
HETATM    1  C2  UNL     1      25.956  -0.173  54.530  1.00  0.00     0.073 A 
HETATM    2  C3  UNL     1      25.629   0.446  53.320  1.00  0.00     0.074 A 
HETATM    3  C4  UNL     1      24.365   0.402  52.773  1.00  0.00     0.089 A 
HETATM    4  C11 UNL     1      23.394  -0.286  53.465  1.00  0.00     0.072 A 
HETATM    5  C12 UNL     1      22.136  -0.353  52.966  1.00  0.00     0.144 A 
HETATM    6  N3  UNL     1      21.238  -1.037  53.688  1.00  0.00    -0.223 NA
HETATM    7  C19 UNL     1      21.499  -1.641  54.842  1.00  0.00     0.236 A 
HETATM    8  N4  UNL     1      22.768  -1.558  55.322  1.00  0.00    -0.241 NA
HETATM    9  C20 UNL     1      23.727  -0.892  54.661  1.00  0.00     0.077 A 
HETATM   10  C21 UNL     1      24.964  -0.870  55.229  1.00  0.00     0.069 A 
ENDROOT
BRANCH   3  11
HETATM   11  O2  UNL     1      24.111   1.029  51.583  1.00  0.00    -0.334 OA
BRANCH  11  12
HETATM   12  C5  UNL     1      24.488   2.304  51.194  1.00  0.00     0.193 C 
HETATM   13  C6  UNL     1      23.827   2.743  49.894  1.00  0.00     0.063 C 
HETATM   14  C7  UNL     1      24.412   4.050  49.466  1.00  0.00     0.130 C 
HETATM   15  N1  UNL     1      24.242   5.104  50.416  1.00  0.00    -0.343 N 
HETATM   16  C8  UNL     1      25.014   6.296  50.337  1.00  0.00     0.216 C 
HETATM   17  C10 UNL     1      23.248   4.922  51.476  1.00  0.00     0.202 C 
HETATM   18  C9  UNL     1      26.005   6.446  49.257  1.00  0.00     0.117 C 
HETATM   19  O3  UNL     1      24.824   7.204  51.208  1.00  0.00    -0.274 OA
HETATM   20  S1  UNL     1      23.862   3.491  52.448  1.00  0.00    -0.117 SA
ENDBRANCH  11  12
ENDBRANCH   3  11
BRANCH   1  21
HETATM   21  O1  UNL     1      27.216  -0.143  55.098  1.00  0.00    -0.356 OA
HETATM   22  C1  UNL     1      28.406  -0.139  54.311  1.00  0.00     0.210 C 
ENDBRANCH   1  21
BRANCH   5  23
HETATM   23  N2  UNL     1      21.702   0.215  51.742  1.00  0.00    -0.340 N 
HETATM   24  H15 UNL     1      21.981   0.225  50.747  1.00  0.00     0.167 HD
BRANCH  23  25
HETATM   25  C13 UNL     1      20.547   1.062  51.675  1.00  0.00     0.035 A 
HETATM   26  C14 UNL     1      20.455   2.415  52.020  1.00  0.00     0.032 A 
HETATM   27  C15 UNL     1      19.336   3.178  51.957  1.00  0.00     0.046 A 
HETATM   28  C16 UNL     1      18.180   2.606  51.523  1.00  0.00     0.138 A 
HETATM   29  F1  UNL     1      17.075   3.387  51.467  1.00  0.00    -0.204 F 
HETATM   30  C17 UNL     1      18.153   1.274  51.154  1.00  0.00     0.074 A 
HETATM   31 CL1  UNL     1      16.628   0.655  50.619  1.00  0.00    -0.081 Cl
HETATM   32  C18 UNL     1      19.326   0.547  51.241  1.00  0.00     0.056 A 
ENDBRANCH  23  25
ENDBRANCH   5  23
TORSDOF 5
ENDMDL
MODEL 3
REMARK VINA RESULT:      -8.9      3.664      8.128
REMARK  5 active torsions:
REMARK  status: ('A' for Active; 'I' for Inactive)
REMARK    1  A    between atoms: O1_2  and  C2_3 
REMARK    2  A    between atoms: C4_5  and  O2_6 
REMARK    3  A    between atoms: O2_6  and  C5_7 
REMARK       I    between atoms: N1_10  and  C8_11 
REMARK    4  A    between atoms: C12_17  and  N2_18 
REMARK    5  A    between atoms: N2_18  and  C13_19 
ROOT
HETATM    1  C2  UNL     1      26.800   4.905  48.991  1.00  0.00     0.073 A 
HETATM    2  C3  UNL     1      26.632   3.806  49.837  1.00  0.00     0.074 A 
HETATM    3  C4  UNL     1      25.567   3.682  50.703  1.00  0.00     0.089 A 
HETATM    4  C11 UNL     1      24.638   4.696  50.719  1.00  0.00     0.072 A 
HETATM    5  C12 UNL     1      23.573   4.616  51.554  1.00  0.00     0.144 A 
HETATM    6  N3  UNL     1      22.704   5.636  51.521  1.00  0.00    -0.223 NA
HETATM    7  C19 UNL     1      22.819   6.700  50.734  1.00  0.00     0.236 A 
HETATM    8  N4  UNL     1      23.895   6.757  49.905  1.00  0.00    -0.241 NA
HETATM    9  C20 UNL     1      24.812   5.778  49.877  1.00  0.00     0.077 A 
HETATM   10  C21 UNL     1      25.851   5.933  49.011  1.00  0.00     0.069 A 
ENDROOT
BRANCH   3  11
HETATM   11  O2  UNL     1      25.463   2.579  51.507  1.00  0.00    -0.334 OA
BRANCH  11  12
HETATM   12  C5  UNL     1      26.476   1.739  51.938  1.00  0.00     0.193 C 
HETATM   13  C6  UNL     1      27.012   2.119  53.312  1.00  0.00     0.063 C 
HETATM   14  C7  UNL     1      28.204   1.271  53.623  1.00  0.00     0.130 C 
HETATM   15  N1  UNL     1      27.934  -0.131  53.635  1.00  0.00    -0.343 N 
HETATM   16  C8  UNL     1      28.989  -1.083  53.572  1.00  0.00     0.216 C 
HETATM   17  C10 UNL     1      26.536  -0.564  53.716  1.00  0.00     0.202 C 
HETATM   18  C9  UNL     1      30.383  -0.614  53.492  1.00  0.00     0.117 C 
HETATM   19  O3  UNL     1      28.695  -2.321  53.586  1.00  0.00    -0.274 OA
HETATM   20  S1  UNL     1      25.767   0.061  52.172  1.00  0.00    -0.117 SA
ENDBRANCH  11  12
ENDBRANCH   3  11
BRANCH   1  21
HETATM   21  O1  UNL     1      27.859   5.051  48.114  1.00  0.00    -0.356 OA
HETATM   22  C1  UNL     1      29.041   5.772  48.460  1.00  0.00     0.210 C 
ENDBRANCH   1  21
BRANCH   5  23
HETATM   23  N2  UNL     1      23.317   3.563  52.466  1.00  0.00    -0.340 N 
HETATM   24  H15 UNL     1      23.659   3.227  53.383  1.00  0.00     0.167 HD
BRANCH  23  25
HETATM   25  C13 UNL     1      22.320   2.567  52.205  1.00  0.00     0.035 A 
HETATM   26  C14 UNL     1      21.310   2.598  51.236  1.00  0.00     0.032 A 
HETATM   27  C15 UNL     1      20.373   1.639  51.031  1.00  0.00     0.046 A 
HETATM   28  C16 UNL     1      20.390   0.532  51.822  1.00  0.00     0.138 A 
HETATM   29  F1  UNL     1      19.446  -0.412  51.599  1.00  0.00    -0.204 F 
HETATM   30  C17 UNL     1      21.344   0.393  52.814  1.00  0.00     0.074 A 
HETATM   31 CL1  UNL     1      21.266  -1.055  53.758  1.00  0.00    -0.081 Cl
HETATM   32  C18 UNL     1      22.272   1.405  52.975  1.00  0.00     0.056 A 
ENDBRANCH  23  25
ENDBRANCH   5  23
TORSDOF 5
ENDMDL
MODEL 4
REMARK VINA RESULT:      -8.8      2.202      6.190
REMARK  5 active torsions:
REMARK  status: ('A' for Active; 'I' for Inactive)
REMARK    1  A    between atoms: O1_2  and  C2_3 
REMARK    2  A    between atoms: C4_5  and  O2_6 
REMARK    3  A    between atoms: O2_6  and  C5_7 
REMARK       I    between atoms: N1_10  and  C8_11 
REMARK    4  A    between atoms: C12_17  and  N2_18 
REMARK    5  A    between atoms: N2_18  and  C13_19 
ROOT
HETATM    1  C2  UNL     1      23.132   6.323  50.795  1.00  0.00     0.073 A 
HETATM    2  C3  UNL     1      22.878   5.118  51.456  1.00  0.00     0.074 A 
HETATM    3  C4  UNL     1      23.722   4.031  51.383  1.00  0.00     0.089 A 
HETATM    4  C11 UNL     1      24.861   4.158  50.624  1.00  0.00     0.072 A 
HETATM    5  C12 UNL     1      25.722   3.116  50.526  1.00  0.00     0.144 A 
HETATM    6  N3  UNL     1      26.813   3.304  49.771  1.00  0.00    -0.223 NA
HETATM    7  C19 UNL     1      27.099   4.430  49.125  1.00  0.00     0.236 A 
HETATM    8  N4  UNL     1      26.221   5.461  49.240  1.00  0.00    -0.241 NA
HETATM    9  C20 UNL     1      25.105   5.354  49.976  1.00  0.00     0.077 A 
HETATM   10  C21 UNL     1      24.293   6.447  50.024  1.00  0.00     0.069 A 
ENDROOT
BRANCH   3  11
HETATM   11  O2  UNL     1      23.413   2.878  52.055  1.00  0.00    -0.334 OA
BRANCH  11  12
HETATM   12  C5  UNL     1      22.196   2.220  52.102  1.00  0.00     0.193 C 
HETATM   13  C6  UNL     1      21.876   1.480  50.810  1.00  0.00     0.063 C 
HETATM   14  C7  UNL     1      20.484   0.941  50.887  1.00  0.00     0.130 C 
HETATM   15  N1  UNL     1      20.269   0.035  51.970  1.00  0.00    -0.343 N 
HETATM   16  C8  UNL     1      18.955  -0.301  52.397  1.00  0.00     0.216 C 
HETATM   17  C10 UNL     1      21.444  -0.542  52.629  1.00  0.00     0.202 C 
HETATM   18  C9  UNL     1      17.796   0.296  51.711  1.00  0.00     0.117 C 
HETATM   19  O3  UNL     1      18.818  -1.114  53.367  1.00  0.00    -0.274 OA
HETATM   20  S1  UNL     1      22.312   0.896  53.369  1.00  0.00    -0.117 SA
ENDBRANCH  11  12
ENDBRANCH   3  11
BRANCH   1  21
HETATM   21  O1  UNL     1      22.300   7.427  50.852  1.00  0.00    -0.356 OA
HETATM   22  C1  UNL     1      21.723   8.007  49.684  1.00  0.00     0.210 C 
ENDBRANCH   1  21
BRANCH   5  23
HETATM   23  N2  UNL     1      25.553   1.846  51.132  1.00  0.00    -0.340 N 
HETATM   24  H15 UNL     1      24.846   1.093  51.174  1.00  0.00     0.167 HD
BRANCH  23  25
HETATM   25  C13 UNL     1      26.559   1.277  51.979  1.00  0.00     0.035 A 
HETATM   26  C14 UNL     1      27.461   1.951  52.812  1.00  0.00     0.032 A 
HETATM   27  C15 UNL     1      28.412   1.375  53.587  1.00  0.00     0.046 A 
HETATM   28  C16 UNL     1      28.527   0.018  53.577  1.00  0.00     0.138 A 
HETATM   29  F1  UNL     1      29.484  -0.536  54.359  1.00  0.00    -0.204 F 
HETATM   30  C17 UNL     1      27.689  -0.751  52.791  1.00  0.00     0.074 A 
HETATM   31 CL1  UNL     1      27.928  -2.463  52.858  1.00  0.00    -0.081 Cl
HETATM   32  C18 UNL     1      26.739  -0.105  52.021  1.00  0.00     0.056 A 
ENDBRANCH  23  25
ENDBRANCH   5  23
TORSDOF 5
ENDMDL
MODEL 5
REMARK VINA RESULT:      -8.6      3.759      5.958
REMARK  5 active torsions:
REMARK  status: ('A' for Active; 'I' for Inactive)
REMARK    1  A    between atoms: O1_2  and  C2_3 
REMARK    2  A    between atoms: C4_5  and  O2_6 
REMARK    3  A    between atoms: O2_6  and  C5_7 
REMARK       I    between atoms: N1_10  and  C8_11 
REMARK    4  A    between atoms: C12_17  and  N2_18 
REMARK    5  A    between atoms: N2_18  and  C13_19 
ROOT
HETATM    1  C2  UNL     1      25.718  -0.111  54.236  1.00  0.00     0.073 A 
HETATM    2  C3  UNL     1      25.405   1.103  53.619  1.00  0.00     0.074 A 
HETATM    3  C4  UNL     1      24.121   1.451  53.259  1.00  0.00     0.089 A 
HETATM    4  C11 UNL     1      23.117   0.551  53.529  1.00  0.00     0.072 A 
HETATM    5  C12 UNL     1      21.839   0.853  53.194  1.00  0.00     0.144 A 
HETATM    6  N3  UNL     1      20.907  -0.066  53.485  1.00  0.00    -0.223 NA
HETATM    7  C19 UNL     1      21.154  -1.232  54.071  1.00  0.00     0.236 A 
HETATM    8  N4  UNL     1      22.444  -1.511  54.398  1.00  0.00    -0.241 NA
HETATM    9  C20 UNL     1      23.436  -0.646  54.141  1.00  0.00     0.077 A 
HETATM   10  C21 UNL     1      24.692  -1.023  54.509  1.00  0.00     0.069 A 
ENDROOT
BRANCH   3  11
HETATM   11  O2  UNL     1      23.883   2.657  52.656  1.00  0.00    -0.334 OA
BRANCH  11  12
HETATM   12  C5  UNL     1      24.690   3.336  51.759  1.00  0.00     0.193 C 
HETATM   13  C6  UNL     1      24.766   2.652  50.400  1.00  0.00     0.063 C 
HETATM   14  C7  UNL     1      25.780   3.354  49.555  1.00  0.00     0.130 C 
HETATM   15  N1  UNL     1      25.495   4.735  49.330  1.00  0.00    -0.343 N 
HETATM   16  C8  UNL     1      26.498   5.623  48.852  1.00  0.00     0.216 C 
HETATM   17  C10 UNL     1      24.137   5.212  49.604  1.00  0.00     0.202 C 
HETATM   18  C9  UNL     1      27.853   5.109  48.586  1.00  0.00     0.117 C 
HETATM   19  O3  UNL     1      26.193   6.845  48.668  1.00  0.00    -0.274 OA
HETATM   20  S1  UNL     1      23.914   4.963  51.408  1.00  0.00    -0.117 SA
ENDBRANCH  11  12
ENDBRANCH   3  11
BRANCH   1  21
HETATM   21  O1  UNL     1      26.998  -0.483  54.606  1.00  0.00    -0.356 OA
HETATM   22  C1  UNL     1      28.133  -0.235  53.779  1.00  0.00     0.210 C 
ENDBRANCH   1  21
BRANCH   5  23
HETATM   23  N2  UNL     1      21.413   2.040  52.548  1.00  0.00    -0.340 N 
HETATM   24  H15 UNL     1      21.167   3.014  52.793  1.00  0.00     0.167 HD
BRANCH  23  25
HETATM   25  C13 UNL     1      21.205   2.091  51.131  1.00  0.00     0.035 A 
HETATM   26  C14 UNL     1      21.419   1.072  50.195  1.00  0.00     0.032 A 
HETATM   27  C15 UNL     1      21.225   1.166  48.857  1.00  0.00     0.046 A 
HETATM   28  C16 UNL     1      20.781   2.346  48.343  1.00  0.00     0.138 A 
HETATM   29  F1  UNL     1      20.594   2.417  47.004  1.00  0.00    -0.204 F 
HETATM   30  C17 UNL     1      20.536   3.424  49.175  1.00  0.00     0.074 A 
HETATM   31 CL1  UNL     1      19.977   4.872  48.411  1.00  0.00    -0.081 Cl
HETATM   32  C18 UNL     1      20.753   3.267  50.531  1.00  0.00     0.056 A 
ENDBRANCH  23  25
ENDBRANCH   5  23
TORSDOF 5
ENDMDL
MODEL 6
REMARK VINA RESULT:      -8.6      3.649      5.454
REMARK  5 active torsions:
REMARK  status: ('A' for Active; 'I' for Inactive)
REMARK    1  A    between atoms: O1_2  and  C2_3 
REMARK    2  A    between atoms: C4_5  and  O2_6 
REMARK    3  A    between atoms: O2_6  and  C5_7 
REMARK       I    between atoms: N1_10  and  C8_11 
REMARK    4  A    between atoms: C12_17  and  N2_18 
REMARK    5  A    between atoms: N2_18  and  C13_19 
ROOT
HETATM    1  C2  UNL     1      23.672  -0.256  53.722  1.00  0.00     0.073 A 
HETATM    2  C3  UNL     1      23.072   0.369  52.626  1.00  0.00     0.074 A 
HETATM    3  C4  UNL     1      23.749   1.234  51.794  1.00  0.00     0.089 A 
HETATM    4  C11 UNL     1      25.074   1.479  52.071  1.00  0.00     0.072 A 
HETATM    5  C12 UNL     1      25.780   2.322  51.278  1.00  0.00     0.144 A 
HETATM    6  N3  UNL     1      27.066   2.517  51.601  1.00  0.00    -0.223 NA
HETATM    7  C19 UNL     1      27.681   1.946  52.631  1.00  0.00     0.236 A 
HETATM    8  N4  UNL     1      26.952   1.104  53.410  1.00  0.00    -0.241 NA
HETATM    9  C20 UNL     1      25.659   0.855  53.156  1.00  0.00     0.077 A 
HETATM   10  C21 UNL     1      25.021  -0.004  53.999  1.00  0.00     0.069 A 
ENDROOT
BRANCH   3  11
HETATM   11  O2  UNL     1      23.102   1.815  50.736  1.00  0.00    -0.334 OA
BRANCH  11  12
HETATM   12  C5  UNL     1      21.822   2.344  50.707  1.00  0.00     0.193 C 
HETATM   13  C6  UNL     1      21.655   3.534  51.642  1.00  0.00     0.063 C 
HETATM   14  C7  UNL     1      20.215   3.933  51.672  1.00  0.00     0.130 C 
HETATM   15  N1  UNL     1      19.687   4.306  50.398  1.00  0.00    -0.343 N 
HETATM   16  C8  UNL     1      18.284   4.380  50.177  1.00  0.00     0.216 C 
HETATM   17  C10 UNL     1      20.634   4.611  49.322  1.00  0.00     0.202 C 
HETATM   18  C9  UNL     1      17.360   4.068  51.281  1.00  0.00     0.117 C 
HETATM   19  O3  UNL     1      17.865   4.717  49.024  1.00  0.00    -0.274 OA
HETATM   20  S1  UNL     1      21.528   3.035  49.031  1.00  0.00    -0.117 SA
ENDBRANCH  11  12
ENDBRANCH   3  11
BRANCH   1  21
HETATM   21  O1  UNL     1      23.014  -1.127  54.571  1.00  0.00    -0.356 OA
HETATM   22  C1  UNL     1      21.604  -1.333  54.507  1.00  0.00     0.210 C 
ENDBRANCH   1  21
BRANCH   5  23
HETATM   23  N2  UNL     1      25.269   3.024  50.158  1.00  0.00    -0.340 N 
HETATM   24  H15 UNL     1      24.527   2.918  49.446  1.00  0.00     0.167 HD
BRANCH  23  25
HETATM   25  C13 UNL     1      25.827   4.275  49.737  1.00  0.00     0.035 A 
HETATM   26  C14 UNL     1      26.965   4.485  48.948  1.00  0.00     0.032 A 
HETATM   27  C15 UNL     1      27.471   5.689  48.584  1.00  0.00     0.046 A 
HETATM   28  C16 UNL     1      26.838   6.817  49.008  1.00  0.00     0.138 A 
HETATM   29  F1  UNL     1      27.360   8.008  48.632  1.00  0.00    -0.204 F 
HETATM   30  C17 UNL     1      25.703   6.731  49.793  1.00  0.00     0.074 A 
HETATM   31 CL1  UNL     1      24.985   8.230  50.273  1.00  0.00    -0.081 Cl
HETATM   32  C18 UNL     1      25.235   5.475  50.132  1.00  0.00     0.056 A 
ENDBRANCH  23  25
ENDBRANCH   5  23
TORSDOF 5
ENDMDL
MODEL 7
REMARK VINA RESULT:      -8.5      3.767      6.372
REMARK  5 active torsions:
REMARK  status: ('A' for Active; 'I' for Inactive)
REMARK    1  A    between atoms: O1_2  and  C2_3 
REMARK    2  A    between atoms: C4_5  and  O2_6 
REMARK    3  A    between atoms: O2_6  and  C5_7 
REMARK       I    between atoms: N1_10  and  C8_11 
REMARK    4  A    between atoms: C12_17  and  N2_18 
REMARK    5  A    between atoms: N2_18  and  C13_19 
ROOT
HETATM    1  C2  UNL     1      27.151   0.603  53.246  1.00  0.00     0.073 A 
HETATM    2  C3  UNL     1      26.278   1.215  52.342  1.00  0.00     0.074 A 
HETATM    3  C4  UNL     1      24.911   1.044  52.388  1.00  0.00     0.089 A 
HETATM    4  C11 UNL     1      24.403   0.232  53.375  1.00  0.00     0.072 A 
HETATM    5  C12 UNL     1      23.064   0.037  53.460  1.00  0.00     0.144 A 
HETATM    6  N3  UNL     1      22.633  -0.764  54.444  1.00  0.00    -0.223 NA
HETATM    7  C19 UNL     1      23.422  -1.366  55.327  1.00  0.00     0.236 A 
HETATM    8  N4  UNL     1      24.761  -1.154  55.222  1.00  0.00    -0.241 NA
HETATM    9  C20 UNL     1      25.274  -0.366  54.265  1.00  0.00     0.077 A 
HETATM   10  C21 UNL     1      26.628  -0.221  54.249  1.00  0.00     0.069 A 
ENDROOT
BRANCH   3  11
HETATM   11  O2  UNL     1      24.111   1.672  51.471  1.00  0.00    -0.334 OA
BRANCH  11  12
HETATM   12  C5  UNL     1      24.253   2.947  50.948  1.00  0.00     0.193 C 
HETATM   13  C6  UNL     1      23.435   3.158  49.681  1.00  0.00     0.063 C 
HETATM   14  C7  UNL     1      23.774   4.492  49.098  1.00  0.00     0.130 C 
HETATM   15  N1  UNL     1      23.513   5.592  49.969  1.00  0.00    -0.343 N 
HETATM   16  C8  UNL     1      24.080   6.873  49.725  1.00  0.00     0.216 C 
HETATM   17  C10 UNL     1      22.643   5.364  51.126  1.00  0.00     0.202 C 
HETATM   18  C9  UNL     1      24.950   7.068  48.552  1.00  0.00     0.117 C 
HETATM   19  O3  UNL     1      23.817   7.821  50.533  1.00  0.00    -0.274 OA
HETATM   20  S1  UNL     1      23.546   4.140  52.152  1.00  0.00    -0.117 SA
ENDBRANCH  11  12
ENDBRANCH   3  11
BRANCH   1  21
HETATM   21  O1  UNL     1      28.525   0.759  53.220  1.00  0.00    -0.356 OA
HETATM   22  C1  UNL     1      29.253   1.281  54.330  1.00  0.00     0.210 C 
ENDBRANCH   1  21
BRANCH   5  23
HETATM   23  N2  UNL     1      22.093   0.587  52.586  1.00  0.00    -0.340 N 
HETATM   24  H15 UNL     1      22.025   1.325  51.865  1.00  0.00     0.167 HD
BRANCH  23  25
HETATM   25  C13 UNL     1      20.745   0.103  52.561  1.00  0.00     0.035 A 
HETATM   26  C14 UNL     1      20.091  -0.668  53.530  1.00  0.00     0.032 A 
HETATM   27  C15 UNL     1      18.816  -1.121  53.460  1.00  0.00     0.046 A 
HETATM   28  C16 UNL     1      18.075  -0.816  52.359  1.00  0.00     0.138 A 
HETATM   29  F1  UNL     1      16.803  -1.278  52.311  1.00  0.00    -0.204 F 
HETATM   30  C17 UNL     1      18.617  -0.059  51.337  1.00  0.00     0.074 A 
HETATM   31 CL1  UNL     1      17.583   0.265  49.988  1.00  0.00    -0.081 Cl
HETATM   32  C18 UNL     1      19.924   0.374  51.466  1.00  0.00     0.056 A 
ENDBRANCH  23  25
ENDBRANCH   5  23
TORSDOF 5
ENDMDL
MODEL 8
REMARK VINA RESULT:      -7.6      4.537      8.949
REMARK  5 active torsions:
REMARK  status: ('A' for Active; 'I' for Inactive)
REMARK    1  A    between atoms: O1_2  and  C2_3 
REMARK    2  A    between atoms: C4_5  and  O2_6 
REMARK    3  A    between atoms: O2_6  and  C5_7 
REMARK       I    between atoms: N1_10  and  C8_11 
REMARK    4  A    between atoms: C12_17  and  N2_18 
REMARK    5  A    between atoms: N2_18  and  C13_19 
ROOT
HETATM    1  C2  UNL     1      27.756   5.576  48.559  1.00  0.00     0.073 A 
HETATM    2  C3  UNL     1      27.114   4.427  49.029  1.00  0.00     0.074 A 
HETATM    3  C4  UNL     1      25.912   4.462  49.701  1.00  0.00     0.089 A 
HETATM    4  C11 UNL     1      25.333   5.693  49.908  1.00  0.00     0.072 A 
HETATM    5  C12 UNL     1      24.149   5.775  50.563  1.00  0.00     0.144 A 
HETATM    6  N3  UNL     1      23.638   7.003  50.732  1.00  0.00    -0.223 NA
HETATM    7  C19 UNL     1      24.209   8.123  50.303  1.00  0.00     0.236 A 
HETATM    8  N4  UNL     1      25.395   8.014  49.648  1.00  0.00    -0.241 NA
HETATM    9  C20 UNL     1      25.975   6.823  49.438  1.00  0.00     0.077 A 
HETATM   10  C21 UNL     1      27.162   6.826  48.772  1.00  0.00     0.069 A 
ENDROOT
BRANCH   3  11
HETATM   11  O2  UNL     1      25.336   3.299  50.136  1.00  0.00    -0.334 OA
BRANCH  11  12
HETATM   12  C5  UNL     1      25.920   2.282  50.874  1.00  0.00     0.193 C 
HETATM   13  C6  UNL     1      26.844   2.804  51.967  1.00  0.00     0.063 C 
HETATM   14  C7  UNL     1      27.553   1.650  52.598  1.00  0.00     0.130 C 
HETATM   15  N1  UNL     1      26.684   0.684  53.190  1.00  0.00    -0.343 N 
HETATM   16  C8  UNL     1      27.150  -0.618  53.523  1.00  0.00     0.216 C 
HETATM   17  C10 UNL     1      25.294   1.072  53.445  1.00  0.00     0.202 C 
HETATM   18  C9  UNL     1      28.554  -0.975  53.254  1.00  0.00     0.117 C 
HETATM   19  O3  UNL     1      26.334  -1.442  54.049  1.00  0.00    -0.274 OA
HETATM   20  S1  UNL     1      24.591   1.398  51.781  1.00  0.00    -0.117 SA
ENDBRANCH  11  12
ENDBRANCH   3  11
BRANCH   1  21
HETATM   21  O1  UNL     1      28.962   5.566  47.883  1.00  0.00    -0.356 OA
HETATM   22  C1  UNL     1      29.731   6.751  47.678  1.00  0.00     0.210 C 
ENDBRANCH   1  21
BRANCH   5  23
HETATM   23  N2  UNL     1      23.425   4.682  51.099  1.00  0.00    -0.340 N 
HETATM   24  H15 UNL     1      23.482   4.029  51.899  1.00  0.00     0.167 HD
BRANCH  23  25
HETATM   25  C13 UNL     1      22.230   4.193  50.476  1.00  0.00     0.035 A 
HETATM   26  C14 UNL     1      22.093   3.646  49.195  1.00  0.00     0.032 A 
HETATM   27  C15 UNL     1      20.938   3.209  48.635  1.00  0.00     0.046 A 
HETATM   28  C16 UNL     1      19.789   3.296  49.359  1.00  0.00     0.138 A 
HETATM   29  F1  UNL     1      18.648   2.854  48.780  1.00  0.00    -0.204 F 
HETATM   30  C17 UNL     1      19.804   3.821  50.638  1.00  0.00     0.074 A 
HETATM   31 CL1  UNL     1      18.284   3.884  51.462  1.00  0.00    -0.081 Cl
HETATM   32  C18 UNL     1      21.013   4.251  51.155  1.00  0.00     0.056 A 
ENDBRANCH  23  25
ENDBRANCH   5  23
TORSDOF 5
ENDMDL
MODEL 9
REMARK VINA RESULT:      -7.3      4.534      7.848
REMARK  5 active torsions:
REMARK  status: ('A' for Active; 'I' for Inactive)
REMARK    1  A    between atoms: O1_2  and  C2_3 
REMARK    2  A    between atoms: C4_5  and  O2_6 
REMARK    3  A    between atoms: O2_6  and  C5_7 
REMARK       I    between atoms: N1_10  and  C8_11 
REMARK    4  A    between atoms: C12_17  and  N2_18 
REMARK    5  A    between atoms: N2_18  and  C13_19 
ROOT
HETATM    1  C2  UNL     1      25.058   0.768  52.452  1.00  0.00     0.073 A 
HETATM    2  C3  UNL     1      23.759   1.198  52.170  1.00  0.00     0.074 A 
HETATM    3  C4  UNL     1      23.482   2.213  51.280  1.00  0.00     0.089 A 
HETATM    4  C11 UNL     1      24.545   2.817  50.651  1.00  0.00     0.072 A 
HETATM    5  C12 UNL     1      24.320   3.818  49.766  1.00  0.00     0.144 A 
HETATM    6  N3  UNL     1      25.398   4.365  49.187  1.00  0.00    -0.223 NA
HETATM    7  C19 UNL     1      26.651   3.991  49.421  1.00  0.00     0.236 A 
HETATM    8  N4  UNL     1      26.851   2.983  50.312  1.00  0.00    -0.241 NA
HETATM    9  C20 UNL     1      25.826   2.384  50.936  1.00  0.00     0.077 A 
HETATM   10  C21 UNL     1      26.137   1.386  51.809  1.00  0.00     0.069 A 
ENDROOT
BRANCH   3  11
HETATM   11  O2  UNL     1      22.185   2.586  51.049  1.00  0.00    -0.334 OA
BRANCH  11  12
HETATM   12  C5  UNL     1      21.047   1.798  51.112  1.00  0.00     0.193 C 
HETATM   13  C6  UNL     1      19.935   2.435  51.935  1.00  0.00     0.063 C 
HETATM   14  C7  UNL     1      18.818   1.453  52.088  1.00  0.00     0.130 C 
HETATM   15  N1  UNL     1      18.249   1.021  50.852  1.00  0.00    -0.343 N 
HETATM   16  C8  UNL     1      17.431  -0.140  50.785  1.00  0.00     0.216 C 
HETATM   17  C10 UNL     1      18.532   1.810  49.649  1.00  0.00     0.202 C 
HETATM   18  C9  UNL     1      17.166  -0.910  52.013  1.00  0.00     0.117 C 
HETATM   19  O3  UNL     1      16.948  -0.483  49.659  1.00  0.00    -0.274 OA
HETATM   20  S1  UNL     1      20.347   1.670  49.420  1.00  0.00    -0.117 SA
ENDBRANCH  11  12
ENDBRANCH   3  11
BRANCH   1  21
HETATM   21  O1  UNL     1      25.361  -0.248  53.341  1.00  0.00    -0.356 OA
HETATM   22  C1  UNL     1      24.442  -0.684  54.341  1.00  0.00     0.210 C 
ENDBRANCH   1  21
BRANCH   5  23
HETATM   23  N2  UNL     1      23.050   4.346  49.423  1.00  0.00    -0.340 N 
HETATM   24  H15 UNL     1      22.195   4.684  49.896  1.00  0.00     0.167 HD
BRANCH  23  25
HETATM   25  C13 UNL     1      22.659   4.535  48.058  1.00  0.00     0.035 A 
HETATM   26  C14 UNL     1      22.272   3.557  47.133  1.00  0.00     0.032 A 
HETATM   27  C15 UNL     1      21.924   3.776  45.841  1.00  0.00     0.046 A 
HETATM   28  C16 UNL     1      21.941   5.052  45.369  1.00  0.00     0.138 A 
HETATM   29  F1  UNL     1      21.588   5.247  44.076  1.00  0.00    -0.204 F 
HETATM   30  C17 UNL     1      22.306   6.100  46.193  1.00  0.00     0.074 A 
HETATM   31 CL1  UNL     1      22.292   7.678  45.484  1.00  0.00    -0.081 Cl
HETATM   32  C18 UNL     1      22.652   5.814  47.501  1.00  0.00     0.056 A 
ENDBRANCH  23  25
ENDBRANCH   5  23
TORSDOF 5
ENDMDL
