MODEL 1
REMARK VINA RESULT:      -8.8      0.000      0.000
REMARK  0 active torsions:
REMARK  status: ('A' for Active; 'I' for Inactive)
ROOT
HETATM    1  O1  UNL     1      25.098  -0.217  54.230  1.00  0.00    -0.273 OA
HETATM    2  C1  UNL     1      23.894  -0.277  53.776  1.00  0.00     0.223 C 
HETATM    3  C2  UNL     1      22.411  -0.279  53.631  1.00  0.00     0.118 C 
HETATM    4  C3  UNL     1      21.668  -0.110  54.747  1.00  0.00    -0.014 C 
HETATM    5  C4  UNL     1      20.349  -0.187  54.037  1.00  0.00     0.002 C 
HETATM    6  C5  UNL     1      20.530  -0.337  52.526  1.00  0.00     0.006 C 
HETATM    7  C6  UNL     1      19.163  -0.422  51.910  1.00  0.00    -0.002 C 
HETATM    8  C7  UNL     1      18.825   0.517  51.052  1.00  0.00     0.020 C 
HETATM    9  C8  UNL     1      18.217   1.416  50.090  1.00  0.00    -0.025 C 
HETATM   10  C9  UNL     1      19.004   2.450  49.727  1.00  0.00    -0.029 C 
HETATM   11  C10 UNL     1      20.114   3.400  49.588  1.00  0.00     0.046 C 
HETATM   12  C11 UNL     1      21.260   2.959  50.482  1.00  0.00     0.124 C 
HETATM   13  N1  UNL     1      22.399   3.887  50.301  1.00  0.00    -0.376 N 
HETATM   14  C12 UNL     1      22.384   5.211  50.736  1.00  0.00     0.129 C 
HETATM   15  C13 UNL     1      22.766   5.024  52.017  1.00  0.00     0.146 A 
HETATM   16  C14 UNL     1      24.078   5.406  51.955  1.00  0.00     0.072 A 
HETATM   17  N2  UNL     1      24.339   6.811  51.679  1.00  0.00    -0.347 N 
HETATM   18  C15 UNL     1      23.241   7.426  50.946  1.00  0.00     0.209 C 
HETATM   19  N3  UNL     1      22.234   6.605  50.678  1.00  0.00    -0.229 NA
HETATM   20  S1  UNL     1      24.127   3.682  52.291  1.00  0.00    -0.122 SA
HETATM   21  C16 UNL     1      25.403   2.768  51.503  1.00  0.00     0.038 C 
HETATM   22  C17 UNL     1      26.282   1.816  51.753  1.00  0.00    -0.019 C 
HETATM   23  C18 UNL     1      26.770   0.911  52.844  1.00  0.00     0.047 C 
HETATM   24  C19 UNL     1      26.256  -0.499  52.567  1.00  0.00     0.126 C 
HETATM   25  N4  UNL     1      24.781  -0.493  52.687  1.00  0.00    -0.360 N 
HETATM   26  H15 UNL     1      23.340   3.907  49.874  1.00  0.00     0.160 HD
HETATM   27  H16 UNL     1      25.273   6.700  52.178  1.00  0.00     0.167 HD
HETATM   28  H24 UNL     1      24.265  -0.693  51.773  1.00  0.00     0.162 HD
ENDROOT
TORSDOF 0
ENDMDL
MODEL 2
REMARK VINA RESULT:      -8.7      2.784      6.085
REMARK  0 active torsions:
REMARK  status: ('A' for Active; 'I' for Inactive)
ROOT
HETATM    1  O1  UNL     1      20.513   1.368  53.489  1.00  0.00    -0.273 OA
HETATM    2  C1  UNL     1      20.985   2.232  52.660  1.00  0.00     0.223 C 
HETATM    3  C2  UNL     1      21.444   3.483  51.993  1.00  0.00     0.118 C 
HETATM    4  C3  UNL     1      21.287   4.648  52.661  1.00  0.00    -0.014 C 
HETATM    5  C4  UNL     1      21.890   5.497  51.583  1.00  0.00     0.002 C 
HETATM    6  C5  UNL     1      22.389   4.651  50.410  1.00  0.00     0.006 C 
HETATM    7  C6  UNL     1      22.956   5.587  49.381  1.00  0.00    -0.002 C 
HETATM    8  C7  UNL     1      24.231   5.459  49.083  1.00  0.00     0.020 C 
HETATM    9  C8  UNL     1      25.591   5.525  48.582  1.00  0.00    -0.025 C 
HETATM   10  C9  UNL     1      26.427   4.620  49.134  1.00  0.00    -0.029 C 
HETATM   11  C10 UNL     1      27.004   3.534  49.935  1.00  0.00     0.046 C 
HETATM   12  C11 UNL     1      25.922   2.942  50.822  1.00  0.00     0.124 C 
HETATM   13  N1  UNL     1      26.492   1.812  51.589  1.00  0.00    -0.376 N 
HETATM   14  C12 UNL     1      27.433   1.974  52.605  1.00  0.00     0.129 C 
HETATM   15  C13 UNL     1      26.599   2.227  53.636  1.00  0.00     0.146 A 
HETATM   16  C14 UNL     1      26.604   1.019  54.276  1.00  0.00     0.072 A 
HETATM   17  N2  UNL     1      27.856   0.607  54.891  1.00  0.00    -0.347 N 
HETATM   18  C15 UNL     1      29.002   1.225  54.236  1.00  0.00     0.209 C 
HETATM   19  N3  UNL     1      28.690   2.027  53.228  1.00  0.00    -0.229 NA
HETATM   20  S1  UNL     1      24.968   1.195  53.659  1.00  0.00    -0.122 SA
HETATM   21  C16 UNL     1      24.199  -0.264  53.055  1.00  0.00     0.038 C 
HETATM   22  C17 UNL     1      23.040  -0.895  53.082  1.00  0.00    -0.019 C 
HETATM   23  C18 UNL     1      21.650  -0.795  53.634  1.00  0.00     0.047 C 
HETATM   24  C19 UNL     1      20.706  -0.411  52.498  1.00  0.00     0.126 C 
HETATM   25  N4  UNL     1      21.051   0.954  52.041  1.00  0.00    -0.360 N 
HETATM   26  H15 UNL     1      26.450   0.779  51.623  1.00  0.00     0.160 HD
HETATM   27  H16 UNL     1      27.290   0.010  55.566  1.00  0.00     0.167 HD
HETATM   28  H24 UNL     1      21.426   1.002  51.042  1.00  0.00     0.162 HD
ENDROOT
TORSDOF 0
ENDMDL
MODEL 3
REMARK VINA RESULT:      -8.3      2.167      5.646
REMARK  0 active torsions:
REMARK  status: ('A' for Active; 'I' for Inactive)
ROOT
HETATM    1  O1  UNL     1      21.190   5.130  49.437  1.00  0.00    -0.273 OA
HETATM    2  C1  UNL     1      20.623   4.096  49.955  1.00  0.00     0.223 C 
HETATM    3  C2  UNL     1      19.986   2.768  50.181  1.00  0.00     0.118 C 
HETATM    4  C3  UNL     1      19.807   1.963  49.109  1.00  0.00    -0.014 C 
HETATM    5  C4  UNL     1      19.179   0.848  49.890  1.00  0.00     0.002 C 
HETATM    6  C5  UNL     1      19.136   1.159  51.386  1.00  0.00     0.006 C 
HETATM    7  C6  UNL     1      18.478  -0.002  52.075  1.00  0.00    -0.002 C 
HETATM    8  C7  UNL     1      19.190  -0.662  52.964  1.00  0.00     0.020 C 
HETATM    9  C8  UNL     1      19.750  -1.542  53.971  1.00  0.00    -0.025 C 
HETATM   10  C9  UNL     1      21.026  -1.256  54.306  1.00  0.00    -0.029 C 
HETATM   11  C10 UNL     1      22.362  -0.656  54.398  1.00  0.00     0.046 C 
HETATM   12  C11 UNL     1      22.447   0.517  53.436  1.00  0.00     0.124 C 
HETATM   13  N1  UNL     1      23.775   1.155  53.568  1.00  0.00    -0.376 N 
HETATM   14  C12 UNL     1      24.961   0.549  53.155  1.00  0.00     0.129 C 
HETATM   15  C13 UNL     1      24.943   0.902  51.852  1.00  0.00     0.146 A 
HETATM   16  C14 UNL     1      25.852   1.923  51.849  1.00  0.00     0.072 A 
HETATM   17  N2  UNL     1      27.236   1.572  52.130  1.00  0.00    -0.347 N 
HETATM   18  C15 UNL     1      27.326   0.359  52.931  1.00  0.00     0.209 C 
HETATM   19  N3  UNL     1      26.156  -0.182  53.243  1.00  0.00    -0.229 NA
HETATM   20  S1  UNL     1      24.313   2.689  51.484  1.00  0.00    -0.122 SA
HETATM   21  C16 UNL     1      24.043   4.276  52.188  1.00  0.00     0.038 C 
HETATM   22  C17 UNL     1      23.559   5.463  51.875  1.00  0.00    -0.019 C 
HETATM   23  C18 UNL     1      22.940   6.231  50.746  1.00  0.00     0.047 C 
HETATM   24  C19 UNL     1      21.449   6.388  51.029  1.00  0.00     0.126 C 
HETATM   25  N4  UNL     1      20.820   5.049  50.991  1.00  0.00    -0.360 N 
HETATM   26  H15 UNL     1      24.202   2.019  53.944  1.00  0.00     0.160 HD
HETATM   27  H16 UNL     1      27.532   2.433  51.579  1.00  0.00     0.167 HD
HETATM   28  H24 UNL     1      20.427   4.721  51.928  1.00  0.00     0.162 HD
ENDROOT
TORSDOF 0
ENDMDL
MODEL 4
REMARK VINA RESULT:      -8.2      2.824      7.029
REMARK  0 active torsions:
REMARK  status: ('A' for Active; 'I' for Inactive)
ROOT
HETATM    1  O1  UNL     1      19.757   3.964  51.180  1.00  0.00    -0.273 OA
HETATM    2  C1  UNL     1      20.616   4.739  50.615  1.00  0.00     0.223 C 
HETATM    3  C2  UNL     1      21.541   5.859  50.281  1.00  0.00     0.118 C 
HETATM    4  C3  UNL     1      21.591   6.910  51.131  1.00  0.00    -0.014 C 
HETATM    5  C4  UNL     1      22.620   7.664  50.342  1.00  0.00     0.002 C 
HETATM    6  C5  UNL     1      23.084   6.873  49.118  1.00  0.00     0.006 C 
HETATM    7  C6  UNL     1      24.093   7.713  48.389  1.00  0.00    -0.002 C 
HETATM    8  C7  UNL     1      25.311   7.230  48.269  1.00  0.00     0.020 C 
HETATM    9  C8  UNL     1      26.705   6.929  48.004  1.00  0.00    -0.025 C 
HETATM   10  C9  UNL     1      27.115   5.739  48.491  1.00  0.00    -0.029 C 
HETATM   11  C10 UNL     1      27.181   4.426  49.144  1.00  0.00     0.046 C 
HETATM   12  C11 UNL     1      25.817   4.092  49.724  1.00  0.00     0.124 C 
HETATM   13  N1  UNL     1      25.869   2.745  50.336  1.00  0.00    -0.376 N 
HETATM   14  C12 UNL     1      26.589   2.458  51.495  1.00  0.00     0.129 C 
HETATM   15  C13 UNL     1      25.670   2.819  52.416  1.00  0.00     0.146 A 
HETATM   16  C14 UNL     1      25.197   1.595  52.803  1.00  0.00     0.072 A 
HETATM   17  N2  UNL     1      26.126   0.726  53.510  1.00  0.00    -0.347 N 
HETATM   18  C15 UNL     1      27.509   1.032  53.169  1.00  0.00     0.209 C 
HETATM   19  N3  UNL     1      27.653   2.024  52.300  1.00  0.00    -0.229 NA
HETATM   20  S1  UNL     1      23.843   2.365  51.989  1.00  0.00    -0.122 SA
HETATM   21  C16 UNL     1      22.828   1.323  51.004  1.00  0.00     0.038 C 
HETATM   22  C17 UNL     1      21.558   1.095  50.731  1.00  0.00    -0.019 C 
HETATM   23  C18 UNL     1      20.172   1.554  51.073  1.00  0.00     0.047 C 
HETATM   24  C19 UNL     1      19.631   2.370  49.903  1.00  0.00     0.126 C 
HETATM   25  N4  UNL     1      20.439   3.604  49.778  1.00  0.00    -0.360 N 
HETATM   26  H15 UNL     1      25.527   1.785  50.161  1.00  0.00     0.160 HD
HETATM   27  H16 UNL     1      25.287   0.253  53.962  1.00  0.00     0.167 HD
HETATM   28  H24 UNL     1      21.008   3.668  48.876  1.00  0.00     0.162 HD
ENDROOT
TORSDOF 0
ENDMDL
MODEL 5
REMARK VINA RESULT:      -8.1      2.366      5.962
REMARK  0 active torsions:
REMARK  status: ('A' for Active; 'I' for Inactive)
ROOT
HETATM    1  O1  UNL     1      26.621   1.441  51.425  1.00  0.00    -0.273 OA
HETATM    2  C1  UNL     1      26.412   2.662  51.072  1.00  0.00     0.223 C 
HETATM    3  C2  UNL     1      26.321   3.946  50.322  1.00  0.00     0.118 C 
HETATM    4  C3  UNL     1      26.785   3.969  49.052  1.00  0.00    -0.014 C 
HETATM    5  C4  UNL     1      26.449   5.411  48.818  1.00  0.00     0.002 C 
HETATM    6  C5  UNL     1      25.749   6.031  50.028  1.00  0.00     0.006 C 
HETATM    7  C6  UNL     1      25.472   7.472  49.705  1.00  0.00    -0.002 C 
HETATM    8  C7  UNL     1      24.213   7.857  49.684  1.00  0.00     0.020 C 
HETATM    9  C8  UNL     1      22.928   8.525  49.598  1.00  0.00    -0.025 C 
HETATM   10  C9  UNL     1      21.871   7.723  49.840  1.00  0.00    -0.029 C 
HETATM   11  C10 UNL     1      21.010   6.575  50.151  1.00  0.00     0.046 C 
HETATM   12  C11 UNL     1      21.879   5.352  50.390  1.00  0.00     0.124 C 
HETATM   13  N1  UNL     1      21.013   4.209  50.757  1.00  0.00    -0.376 N 
HETATM   14  C12 UNL     1      20.142   3.590  49.861  1.00  0.00     0.129 C 
HETATM   15  C13 UNL     1      21.003   2.726  49.282  1.00  0.00     0.146 A 
HETATM   16  C14 UNL     1      20.661   1.560  49.908  1.00  0.00     0.072 A 
HETATM   17  N2  UNL     1      19.337   1.027  49.625  1.00  0.00    -0.347 N 
HETATM   18  C15 UNL     1      18.412   2.079  49.225  1.00  0.00     0.209 C 
HETATM   19  N3  UNL     1      18.942   3.294  49.196  1.00  0.00    -0.229 NA
HETATM   20  S1  UNL     1      22.288   1.912  50.471  1.00  0.00    -0.122 SA
HETATM   21  C16 UNL     1      22.633   1.536  52.151  1.00  0.00     0.038 C 
HETATM   22  C17 UNL     1      23.574   1.001  52.906  1.00  0.00    -0.019 C 
HETATM   23  C18 UNL     1      24.933   0.371  52.838  1.00  0.00     0.047 C 
HETATM   24  C19 UNL     1      25.957   1.376  53.359  1.00  0.00     0.126 C 
HETATM   25  N4  UNL     1      26.005   2.525  52.427  1.00  0.00    -0.360 N 
HETATM   26  H15 UNL     1      20.770   3.636  51.582  1.00  0.00     0.160 HD
HETATM   27  H16 UNL     1      19.710   0.060  49.867  1.00  0.00     0.167 HD
HETATM   28  H24 UNL     1      25.667   3.447  52.848  1.00  0.00     0.162 HD
ENDROOT
TORSDOF 0
ENDMDL
MODEL 6
REMARK VINA RESULT:      -7.6      7.136     10.694
REMARK  0 active torsions:
REMARK  status: ('A' for Active; 'I' for Inactive)
ROOT
HETATM    1  O1  UNL     1      28.261  12.543  47.045  1.00  0.00    -0.273 OA
HETATM    2  C1  UNL     1      27.315  11.675  47.143  1.00  0.00     0.223 C 
HETATM    3  C2  UNL     1      26.216  10.708  46.861  1.00  0.00     0.118 C 
HETATM    4  C3  UNL     1      25.832  10.548  45.575  1.00  0.00    -0.014 C 
HETATM    5  C4  UNL     1      24.779   9.525  45.882  1.00  0.00     0.002 C 
HETATM    6  C5  UNL     1      24.745   9.180  47.371  1.00  0.00     0.006 C 
HETATM    7  C6  UNL     1      23.654   8.169  47.580  1.00  0.00    -0.002 C 
HETATM    8  C7  UNL     1      24.003   6.989  48.049  1.00  0.00     0.020 C 
HETATM    9  C8  UNL     1      24.121   5.633  48.550  1.00  0.00    -0.025 C 
HETATM   10  C9  UNL     1      25.383   5.265  48.853  1.00  0.00    -0.029 C 
HETATM   11  C10 UNL     1      26.836   5.237  49.060  1.00  0.00     0.046 C 
HETATM   12  C11 UNL     1      27.420   6.582  48.661  1.00  0.00     0.124 C 
HETATM   13  N1  UNL     1      28.877   6.572  48.921  1.00  0.00    -0.376 N 
HETATM   14  C12 UNL     1      29.780   5.804  48.188  1.00  0.00     0.129 C 
HETATM   15  C13 UNL     1      29.991   6.644  47.153  1.00  0.00     0.146 A 
HETATM   16  C14 UNL     1      31.212   7.163  47.485  1.00  0.00     0.072 A 
HETATM   17  N2  UNL     1      32.341   6.247  47.469  1.00  0.00    -0.347 N 
HETATM   18  C15 UNL     1      31.917   4.871  47.689  1.00  0.00     0.209 C 
HETATM   19  N3  UNL     1      30.610   4.721  47.857  1.00  0.00    -0.229 NA
HETATM   20  S1  UNL     1      30.097   8.516  47.612  1.00  0.00    -0.122 SA
HETATM   21  C16 UNL     1      30.384   9.646  48.926  1.00  0.00     0.038 C 
HETATM   22  C17 UNL     1      30.398  10.941  49.175  1.00  0.00    -0.019 C 
HETATM   23  C18 UNL     1      30.193  12.276  48.524  1.00  0.00     0.047 C 
HETATM   24  C19 UNL     1      28.850  12.836  48.983  1.00  0.00     0.126 C 
HETATM   25  N4  UNL     1      27.774  11.967  48.456  1.00  0.00    -0.360 N 
HETATM   26  H15 UNL     1      29.565   6.979  49.577  1.00  0.00     0.160 HD
HETATM   27  H16 UNL     1      32.976   7.084  47.296  1.00  0.00     0.167 HD
HETATM   28  H24 UNL     1      27.219  11.449  49.207  1.00  0.00     0.162 HD
ENDROOT
TORSDOF 0
ENDMDL
MODEL 7
REMARK VINA RESULT:      -7.6      3.390      7.993
REMARK  0 active torsions:
REMARK  status: ('A' for Active; 'I' for Inactive)
ROOT
HETATM    1  O1  UNL     1      19.573   6.896  48.766  1.00  0.00    -0.273 OA
HETATM    2  C1  UNL     1      20.840   7.057  48.607  1.00  0.00     0.223 C 
HETATM    3  C2  UNL     1      22.257   7.508  48.714  1.00  0.00     0.118 C 
HETATM    4  C3  UNL     1      22.542   8.486  49.601  1.00  0.00    -0.014 C 
HETATM    5  C4  UNL     1      24.009   8.515  49.294  1.00  0.00     0.002 C 
HETATM    6  C5  UNL     1      24.391   7.454  48.262  1.00  0.00     0.006 C 
HETATM    7  C6  UNL     1      25.866   7.574  48.009  1.00  0.00    -0.002 C 
HETATM    8  C7  UNL     1      26.618   6.532  48.298  1.00  0.00     0.020 C 
HETATM    9  C8  UNL     1      27.651   5.540  48.528  1.00  0.00    -0.025 C 
HETATM   10  C9  UNL     1      27.195   4.377  49.037  1.00  0.00    -0.029 C 
HETATM   11  C10 UNL     1      26.348   3.302  49.569  1.00  0.00     0.046 C 
HETATM   12  C11 UNL     1      24.904   3.775  49.594  1.00  0.00     0.124 C 
HETATM   13  N1  UNL     1      24.044   2.673  50.079  1.00  0.00    -0.376 N 
HETATM   14  C12 UNL     1      24.062   2.209  51.394  1.00  0.00     0.129 C 
HETATM   15  C13 UNL     1      23.207   3.094  51.949  1.00  0.00     0.146 A 
HETATM   16  C14 UNL     1      22.075   2.334  52.046  1.00  0.00     0.072 A 
HETATM   17  N2  UNL     1      22.116   1.212  52.971  1.00  0.00    -0.347 N 
HETATM   18  C15 UNL     1      23.477   0.735  53.173  1.00  0.00     0.209 C 
HETATM   19  N3  UNL     1      24.398   1.402  52.492  1.00  0.00    -0.229 NA
HETATM   20  S1  UNL     1      21.685   3.573  50.862  1.00  0.00    -0.122 SA
HETATM   21  C16 UNL     1      20.693   3.070  49.502  1.00  0.00     0.038 C 
HETATM   22  C17 UNL     1      19.671   3.482  48.776  1.00  0.00    -0.019 C 
HETATM   23  C18 UNL     1      18.699   4.614  48.632  1.00  0.00     0.047 C 
HETATM   24  C19 UNL     1      19.096   5.439  47.411  1.00  0.00     0.126 C 
HETATM   25  N4  UNL     1      20.407   6.072  47.678  1.00  0.00    -0.360 N 
HETATM   26  H15 UNL     1      23.342   2.003  49.721  1.00  0.00     0.160 HD
HETATM   27  H16 UNL     1      21.057   1.285  53.055  1.00  0.00     0.167 HD
HETATM   28  H24 UNL     1      21.198   5.728  47.049  1.00  0.00     0.162 HD
ENDROOT
TORSDOF 0
ENDMDL
MODEL 8
REMARK VINA RESULT:      -7.4      4.264      7.665
REMARK  0 active torsions:
REMARK  status: ('A' for Active; 'I' for Inactive)
ROOT
HETATM    1  O1  UNL     1      24.161   3.388  51.652  1.00  0.00    -0.273 OA
HETATM    2  C1  UNL     1      24.933   4.126  50.932  1.00  0.00     0.223 C 
HETATM    3  C2  UNL     1      25.972   4.629  49.990  1.00  0.00     0.118 C 
HETATM    4  C3  UNL     1      26.769   3.719  49.385  1.00  0.00    -0.014 C 
HETATM    5  C4  UNL     1      27.552   4.732  48.606  1.00  0.00     0.002 C 
HETATM    6  C5  UNL     1      27.031   6.151  48.839  1.00  0.00     0.006 C 
HETATM    7  C6  UNL     1      27.886   7.088  48.035  1.00  0.00    -0.002 C 
HETATM    8  C7  UNL     1      27.293   7.796  47.096  1.00  0.00     0.020 C 
HETATM    9  C8  UNL     1      26.888   8.676  46.017  1.00  0.00    -0.025 C 
HETATM   10  C9  UNL     1      25.573   8.619  45.721  1.00  0.00    -0.029 C 
HETATM   11  C10 UNL     1      24.144   8.286  45.695  1.00  0.00     0.046 C 
HETATM   12  C11 UNL     1      23.857   7.245  46.764  1.00  0.00     0.124 C 
HETATM   13  N1  UNL     1      22.407   6.950  46.774  1.00  0.00    -0.376 N 
HETATM   14  C12 UNL     1      21.756   6.275  45.743  1.00  0.00     0.129 C 
HETATM   15  C13 UNL     1      21.997   5.003  46.128  1.00  0.00     0.146 A 
HETATM   16  C14 UNL     1      20.787   4.663  46.669  1.00  0.00     0.072 A 
HETATM   17  N2  UNL     1      19.661   4.577  45.753  1.00  0.00    -0.347 N 
HETATM   18  C15 UNL     1      19.859   5.418  44.580  1.00  0.00     0.209 C 
HETATM   19  N3  UNL     1      21.005   6.086  44.572  1.00  0.00    -0.229 NA
HETATM   20  S1  UNL     1      21.900   4.680  48.029  1.00  0.00    -0.122 SA
HETATM   21  C16 UNL     1      21.269   5.297  49.548  1.00  0.00     0.038 C 
HETATM   22  C17 UNL     1      21.280   5.036  50.841  1.00  0.00    -0.019 C 
HETATM   23  C18 UNL     1      21.817   4.064  51.848  1.00  0.00     0.047 C 
HETATM   24  C19 UNL     1      22.956   4.737  52.609  1.00  0.00     0.126 C 
HETATM   25  N4  UNL     1      24.069   4.985  51.665  1.00  0.00    -0.360 N 
HETATM   26  H15 UNL     1      21.570   7.120  47.358  1.00  0.00     0.160 HD
HETATM   27  H16 UNL     1      19.203   3.897  46.432  1.00  0.00     0.167 HD
HETATM   28  H24 UNL     1      24.276   6.018  51.491  1.00  0.00     0.162 HD
ENDROOT
TORSDOF 0
ENDMDL
MODEL 9
REMARK VINA RESULT:      -7.3      8.334     11.983
REMARK  0 active torsions:
REMARK  status: ('A' for Active; 'I' for Inactive)
ROOT
HETATM    1  O1  UNL     1      34.011   7.266  46.420  1.00  0.00    -0.273 OA
HETATM    2  C1  UNL     1      33.297   8.337  46.392  1.00  0.00     0.223 C 
HETATM    3  C2  UNL     1      32.435   9.480  45.977  1.00  0.00     0.118 C 
HETATM    4  C3  UNL     1      32.084   9.565  44.675  1.00  0.00    -0.014 C 
HETATM    5  C4  UNL     1      31.271  10.814  44.842  1.00  0.00     0.002 C 
HETATM    6  C5  UNL     1      31.219  11.263  46.303  1.00  0.00     0.006 C 
HETATM    7  C6  UNL     1      30.404  12.523  46.364  1.00  0.00    -0.002 C 
HETATM    8  C7  UNL     1      29.300  12.496  47.081  1.00  0.00     0.020 C 
HETATM    9  C8  UNL     1      28.058  12.727  47.793  1.00  0.00    -0.025 C 
HETATM   10  C9  UNL     1      27.603  11.654  48.472  1.00  0.00    -0.029 C 
HETATM   11  C10 UNL     1      27.439  10.318  49.059  1.00  0.00     0.046 C 
HETATM   12  C11 UNL     1      28.605   9.442  48.632  1.00  0.00     0.124 C 
HETATM   13  N1  UNL     1      28.468   8.112  49.268  1.00  0.00    -0.376 N 
HETATM   14  C12 UNL     1      27.472   7.199  48.925  1.00  0.00     0.129 C 
HETATM   15  C13 UNL     1      28.072   6.609  47.868  1.00  0.00     0.146 A 
HETATM   16  C14 UNL     1      28.493   5.437  48.431  1.00  0.00     0.072 A 
HETATM   17  N2  UNL     1      27.460   4.503  48.853  1.00  0.00    -0.347 N 
HETATM   18  C15 UNL     1      26.211   5.189  49.156  1.00  0.00     0.209 C 
HETATM   19  N3  UNL     1      26.254   6.504  48.992  1.00  0.00    -0.229 NA
HETATM   20  S1  UNL     1      29.970   6.310  48.052  1.00  0.00    -0.122 SA
HETATM   21  C16 UNL     1      31.283   6.166  49.210  1.00  0.00     0.038 C 
HETATM   22  C17 UNL     1      32.590   5.998  49.256  1.00  0.00    -0.019 C 
HETATM   23  C18 UNL     1      33.794   5.817  48.381  1.00  0.00     0.047 C 
HETATM   24  C19 UNL     1      34.588   7.120  48.377  1.00  0.00     0.126 C 
HETATM   25  N4  UNL     1      33.773   8.166  47.720  1.00  0.00    -0.360 N 
HETATM   26  H15 UNL     1      28.904   7.545  50.014  1.00  0.00     0.160 HD
HETATM   27  H16 UNL     1      28.167   3.717  48.730  1.00  0.00     0.167 HD
HETATM   28  H24 UNL     1      33.476   8.963  48.367  1.00  0.00     0.162 HD
ENDROOT
TORSDOF 0
ENDMDL
