MODEL 1
REMARK VINA RESULT:      -8.7      0.000      0.000
REMARK  3 active torsions:
REMARK  status: ('A' for Active; 'I' for Inactive)
REMARK    1  A    between atoms: C2_2  and  C4_4 
REMARK    2  A    between atoms: C7_7  and  S1_8 
REMARK    3  A    between atoms: N1_9  and  C8_10 
ROOT
HETATM    1  C4  UNL     1      18.895  -0.517  52.298  1.00  0.00     0.013 C 
HETATM    2  C5  UNL     1      20.074  -0.097  52.865  1.00  0.00     0.080 C 
HETATM    3  C6  UNL     1      21.159   0.483  52.016  1.00  0.00     0.113 C 
HETATM    4  C7  UNL     1      22.474   0.401  52.621  1.00  0.00    -0.006 C 
HETATM    5  C14 UNL     1      23.105  -0.195  53.618  1.00  0.00     0.036 C 
HETATM    6  C15 UNL     1      22.497  -1.114  54.549  1.00  0.00     0.147 C 
HETATM    7  N2  UNL     1      21.215  -1.094  54.836  1.00  0.00    -0.141 NA
HETATM    8  O1  UNL     1      20.343  -0.188  54.268  1.00  0.00    -0.218 OA
ENDROOT
BRANCH   4   9
HETATM    9  S1  UNL     1      23.645   1.496  51.734  1.00  0.00    -0.089 SA
HETATM   10  N1  UNL     1      25.238   0.911  52.193  1.00  0.00    -0.327 N 
HETATM   11  H9  UNL     1      24.882   1.900  52.166  1.00  0.00     0.261 HD
BRANCH  10  12
HETATM   12  C8  UNL     1      26.512   0.448  52.561  1.00  0.00     0.040 A 
HETATM   13  C9  UNL     1      27.301   1.500  52.968  1.00  0.00     0.033 A 
HETATM   14  C10 UNL     1      28.582   1.228  53.437  1.00  0.00     0.046 A 
HETATM   15  C11 UNL     1      28.902  -0.107  53.432  1.00  0.00     0.138 A 
HETATM   16  F1  UNL     1      30.126  -0.492  53.877  1.00  0.00    -0.204 F 
HETATM   17  C12 UNL     1      28.083  -1.160  53.010  1.00  0.00     0.074 A 
HETATM   18 CL1  UNL     1      28.614  -2.830  53.076  1.00  0.00    -0.081 Cl
HETATM   19  C13 UNL     1      26.827  -0.868  52.552  1.00  0.00     0.057 A 
ENDBRANCH  10  12
ENDBRANCH   4   9
BRANCH   1  20
HETATM   20  C2  UNL     1      17.635  -1.124  52.862  1.00  0.00    -0.034 C 
HETATM   21  C1  UNL     1      16.891  -0.239  52.368  1.00  0.00     0.048 C 
HETATM   22  C3  UNL     1      18.192  -2.292  53.554  1.00  0.00     0.015 C 
ENDBRANCH   1  20
TORSDOF 3
ENDMDL
MODEL 2
REMARK VINA RESULT:      -8.7      1.985      2.808
REMARK  3 active torsions:
REMARK  status: ('A' for Active; 'I' for Inactive)
REMARK    1  A    between atoms: C2_2  and  C4_4 
REMARK    2  A    between atoms: C7_7  and  S1_8 
REMARK    3  A    between atoms: N1_9  and  C8_10 
ROOT
HETATM    1  C4  UNL     1      20.959   0.405  53.255  1.00  0.00     0.013 C 
HETATM    2  C5  UNL     1      21.823   0.775  52.251  1.00  0.00     0.080 C 
HETATM    3  C6  UNL     1      22.780   1.905  52.452  1.00  0.00     0.113 C 
HETATM    4  C7  UNL     1      23.237   2.504  51.213  1.00  0.00    -0.006 C 
HETATM    5  C14 UNL     1      22.953   2.525  49.922  1.00  0.00     0.036 C 
HETATM    6  C15 UNL     1      21.877   1.792  49.301  1.00  0.00     0.147 C 
HETATM    7  N2  UNL     1      21.385   0.683  49.806  1.00  0.00    -0.141 NA
HETATM    8  O1  UNL     1      21.861   0.127  50.975  1.00  0.00    -0.218 OA
ENDROOT
BRANCH   4   9
HETATM    9  S1  UNL     1      24.700   3.561  51.527  1.00  0.00    -0.089 SA
HETATM   10  N1  UNL     1      25.936   2.451  52.102  1.00  0.00    -0.327 N 
HETATM   11  H9  UNL     1      25.651   3.382  52.499  1.00  0.00     0.261 HD
BRANCH  10  12
HETATM   12  C8  UNL     1      26.924   1.567  52.566  1.00  0.00     0.040 A 
HETATM   13  C9  UNL     1      27.896   2.259  53.255  1.00  0.00     0.033 A 
HETATM   14  C10 UNL     1      28.927   1.540  53.850  1.00  0.00     0.046 A 
HETATM   15  C11 UNL     1      28.836   0.183  53.666  1.00  0.00     0.138 A 
HETATM   16  F1  UNL     1      29.785  -0.621  54.210  1.00  0.00    -0.204 F 
HETATM   17  C12 UNL     1      27.839  -0.498  52.958  1.00  0.00     0.074 A 
HETATM   18 CL1  UNL     1      27.834  -2.246  52.816  1.00  0.00    -0.081 Cl
HETATM   19  C13 UNL     1      26.835   0.230  52.380  1.00  0.00     0.057 A 
ENDBRANCH  10  12
ENDBRANCH   4   9
BRANCH   1  20
HETATM   20  C2  UNL     1      19.905  -0.667  53.370  1.00  0.00    -0.034 C 
HETATM   21  C1  UNL     1      20.574  -1.351  54.184  1.00  0.00     0.048 C 
HETATM   22  C3  UNL     1      18.882  -0.126  52.467  1.00  0.00     0.015 C 
ENDBRANCH   1  20
TORSDOF 3
ENDMDL
MODEL 3
REMARK VINA RESULT:      -8.5      3.236      5.063
REMARK  3 active torsions:
REMARK  status: ('A' for Active; 'I' for Inactive)
REMARK    1  A    between atoms: C2_2  and  C4_4 
REMARK    2  A    between atoms: C7_7  and  S1_8 
REMARK    3  A    between atoms: N1_9  and  C8_10 
ROOT
HETATM    1  C4  UNL     1      24.497   3.238  49.969  1.00  0.00     0.013 C 
HETATM    2  C5  UNL     1      23.857   2.842  51.119  1.00  0.00     0.080 C 
HETATM    3  C6  UNL     1      24.020   1.449  51.636  1.00  0.00     0.113 C 
HETATM    4  C7  UNL     1      22.940   1.024  52.506  1.00  0.00    -0.006 C 
HETATM    5  C14 UNL     1      21.722   1.382  52.871  1.00  0.00     0.036 C 
HETATM    6  C15 UNL     1      21.017   2.540  52.377  1.00  0.00     0.147 C 
HETATM    7  N2  UNL     1      21.632   3.607  51.921  1.00  0.00    -0.141 NA
HETATM    8  O1  UNL     1      23.007   3.708  51.879  1.00  0.00    -0.218 OA
ENDROOT
BRANCH   4   9
HETATM    9  S1  UNL     1      23.426  -0.488  53.418  1.00  0.00    -0.089 SA
HETATM   10  N1  UNL     1      25.177  -0.392  53.541  1.00  0.00    -0.327 N 
HETATM   11  H9  UNL     1      24.580  -1.211  53.258  1.00  0.00     0.261 HD
BRANCH  10  12
HETATM   12  C8  UNL     1      26.576  -0.320  53.637  1.00  0.00     0.040 A 
HETATM   13  C9  UNL     1      27.147  -1.465  53.126  1.00  0.00     0.033 A 
HETATM   14  C10 UNL     1      28.535  -1.548  53.073  1.00  0.00     0.046 A 
HETATM   15  C11 UNL     1      29.176  -0.434  53.554  1.00  0.00     0.138 A 
HETATM   16  F1  UNL     1      30.534  -0.400  53.544  1.00  0.00    -0.204 F 
HETATM   17  C12 UNL     1      28.573   0.718  54.072  1.00  0.00     0.074 A 
HETATM   18 CL1  UNL     1      29.517   2.082  54.639  1.00  0.00    -0.081 Cl
HETATM   19  C13 UNL     1      27.207   0.776  54.116  1.00  0.00     0.057 A 
ENDBRANCH  10  12
ENDBRANCH   4   9
BRANCH   1  20
HETATM   20  C2  UNL     1      24.544   4.539  49.207  1.00  0.00    -0.034 C 
HETATM   21  C1  UNL     1      25.689   4.838  49.629  1.00  0.00     0.048 C 
HETATM   22  C3  UNL     1      23.242   4.496  48.532  1.00  0.00     0.015 C 
ENDBRANCH   1  20
TORSDOF 3
ENDMDL
MODEL 4
REMARK VINA RESULT:      -8.5      4.131      6.220
REMARK  3 active torsions:
REMARK  status: ('A' for Active; 'I' for Inactive)
REMARK    1  A    between atoms: C2_2  and  C4_4 
REMARK    2  A    between atoms: C7_7  and  S1_8 
REMARK    3  A    between atoms: N1_9  and  C8_10 
ROOT
HETATM    1  C4  UNL     1      25.369   5.077  48.976  1.00  0.00     0.013 C 
HETATM    2  C5  UNL     1      24.783   4.672  50.151  1.00  0.00     0.080 C 
HETATM    3  C6  UNL     1      24.511   3.224  50.404  1.00  0.00     0.113 C 
HETATM    4  C7  UNL     1      23.471   2.994  51.388  1.00  0.00    -0.006 C 
HETATM    5  C14 UNL     1      22.512   3.637  52.031  1.00  0.00     0.036 C 
HETATM    6  C15 UNL     1      22.202   5.036  51.868  1.00  0.00     0.147 C 
HETATM    7  N2  UNL     1      23.090   5.922  51.474  1.00  0.00    -0.141 NA
HETATM    8  O1  UNL     1      24.395   5.583  51.185  1.00  0.00    -0.218 OA
ENDROOT
BRANCH   4   9
HETATM    9  S1  UNL     1      23.506   1.248  51.943  1.00  0.00    -0.089 SA
HETATM   10  N1  UNL     1      25.185   0.952  52.374  1.00  0.00    -0.327 N 
HETATM   11  H9  UNL     1      24.539   0.358  51.794  1.00  0.00     0.261 HD
BRANCH  10  12
HETATM   12  C8  UNL     1      26.526   0.711  52.715  1.00  0.00     0.040 A 
HETATM   13  C9  UNL     1      27.146   1.888  53.070  1.00  0.00     0.033 A 
HETATM   14  C10 UNL     1      28.466   1.839  53.506  1.00  0.00     0.046 A 
HETATM   15  C11 UNL     1      28.997   0.574  53.525  1.00  0.00     0.138 A 
HETATM   16  F1  UNL     1      30.278   0.404  53.942  1.00  0.00    -0.204 F 
HETATM   17  C12 UNL     1      28.347  -0.610  53.156  1.00  0.00     0.074 A 
HETATM   18 CL1  UNL     1      29.142  -2.170  53.249  1.00  0.00    -0.081 Cl
HETATM   19  C13 UNL     1      27.049  -0.537  52.730  1.00  0.00     0.057 A 
ENDBRANCH  10  12
ENDBRANCH   4   9
BRANCH   1  20
HETATM   20  C2  UNL     1      25.773   6.424  48.431  1.00  0.00    -0.034 C 
HETATM   21  C1  UNL     1      26.998   6.229  48.632  1.00  0.00     0.048 C 
HETATM   22  C3  UNL     1      24.459   6.962  48.060  1.00  0.00     0.015 C 
ENDBRANCH   1  20
TORSDOF 3
ENDMDL
MODEL 5
REMARK VINA RESULT:      -8.5      4.358      7.013
REMARK  3 active torsions:
REMARK  status: ('A' for Active; 'I' for Inactive)
REMARK    1  A    between atoms: C2_2  and  C4_4 
REMARK    2  A    between atoms: C7_7  and  S1_8 
REMARK    3  A    between atoms: N1_9  and  C8_10 
ROOT
HETATM    1  C4  UNL     1      27.857   0.340  53.316  1.00  0.00     0.013 C 
HETATM    2  C5  UNL     1      26.548  -0.049  53.152  1.00  0.00     0.080 C 
HETATM    3  C6  UNL     1      25.610   0.773  52.330  1.00  0.00     0.113 C 
HETATM    4  C7  UNL     1      24.213   0.553  52.652  1.00  0.00    -0.006 C 
HETATM    5  C14 UNL     1      23.454  -0.004  53.579  1.00  0.00     0.036 C 
HETATM    6  C15 UNL     1      23.946  -0.676  54.757  1.00  0.00     0.147 C 
HETATM    7  N2  UNL     1      25.132  -1.238  54.813  1.00  0.00    -0.141 NA
HETATM    8  O1  UNL     1      26.005  -1.234  53.745  1.00  0.00    -0.218 OA
ENDROOT
BRANCH   4   9
HETATM    9  S1  UNL     1      23.147   1.253  51.337  1.00  0.00    -0.089 SA
HETATM   10  N1  UNL     1      24.018   2.669  50.763  1.00  0.00    -0.327 N 
HETATM   11  H9  UNL     1      23.000   2.578  51.014  1.00  0.00     0.261 HD
BRANCH  10  12
HETATM   12  C8  UNL     1      24.709   3.802  50.306  1.00  0.00     0.040 A 
HETATM   13  C9  UNL     1      24.062   4.949  50.710  1.00  0.00     0.033 A 
HETATM   14  C10 UNL     1      24.639   6.179  50.408  1.00  0.00     0.046 A 
HETATM   15  C11 UNL     1      25.822   6.082  49.720  1.00  0.00     0.138 A 
HETATM   16  F1  UNL     1      26.480   7.220  49.378  1.00  0.00    -0.204 F 
HETATM   17  C12 UNL     1      26.460   4.903  49.317  1.00  0.00     0.074 A 
HETATM   18 CL1  UNL     1      27.987   4.924  48.457  1.00  0.00    -0.081 Cl
HETATM   19  C13 UNL     1      25.874   3.706  49.625  1.00  0.00     0.057 A 
ENDBRANCH  10  12
ENDBRANCH   4   9
BRANCH   1  20
HETATM   20  C2  UNL     1      29.028  -0.255  54.057  1.00  0.00    -0.034 C 
HETATM   21  C1  UNL     1      28.987   0.604  54.974  1.00  0.00     0.048 C 
HETATM   22  C3  UNL     1      29.343  -1.390  53.183  1.00  0.00     0.015 C 
ENDBRANCH   1  20
TORSDOF 3
ENDMDL
MODEL 6
REMARK VINA RESULT:      -8.3      5.023      6.609
REMARK  3 active torsions:
REMARK  status: ('A' for Active; 'I' for Inactive)
REMARK    1  A    between atoms: C2_2  and  C4_4 
REMARK    2  A    between atoms: C7_7  and  S1_8 
REMARK    3  A    between atoms: N1_9  and  C8_10 
ROOT
HETATM    1  C4  UNL     1      25.285   0.836  53.455  1.00  0.00     0.013 C 
HETATM    2  C5  UNL     1      24.325   1.469  52.701  1.00  0.00     0.080 C 
HETATM    3  C6  UNL     1      24.190   2.957  52.739  1.00  0.00     0.113 C 
HETATM    4  C7  UNL     1      22.879   3.429  52.336  1.00  0.00    -0.006 C 
HETATM    5  C14 UNL     1      21.655   2.982  52.115  1.00  0.00     0.036 C 
HETATM    6  C15 UNL     1      21.240   1.607  52.254  1.00  0.00     0.147 C 
HETATM    7  N2  UNL     1      22.069   0.596  52.130  1.00  0.00    -0.141 NA
HETATM    8  O1  UNL     1      23.410   0.767  51.853  1.00  0.00    -0.218 OA
ENDROOT
BRANCH   4   9
HETATM    9  S1  UNL     1      22.935   5.229  52.001  1.00  0.00    -0.089 SA
HETATM   10  N1  UNL     1      24.343   5.447  50.970  1.00  0.00    -0.327 N 
HETATM   11  H9  UNL     1      24.056   5.998  51.819  1.00  0.00     0.261 HD
BRANCH  10  12
HETATM   12  C8  UNL     1      25.469   5.624  50.151  1.00  0.00     0.040 A 
HETATM   13  C9  UNL     1      26.025   4.404  49.835  1.00  0.00     0.033 A 
HETATM   14  C10 UNL     1      27.115   4.374  48.972  1.00  0.00     0.046 A 
HETATM   15  C11 UNL     1      27.508   5.613  48.531  1.00  0.00     0.138 A 
HETATM   16  F1  UNL     1      28.559   5.704  47.676  1.00  0.00    -0.204 F 
HETATM   17  C12 UNL     1      26.929   6.841  48.869  1.00  0.00     0.074 A 
HETATM   18 CL1  UNL     1      27.523   8.356  48.215  1.00  0.00    -0.081 Cl
HETATM   19  C13 UNL     1      25.858   6.846  49.721  1.00  0.00     0.057 A 
ENDBRANCH  10  12
ENDBRANCH   4   9
BRANCH   1  20
HETATM   20  C2  UNL     1      25.676  -0.610  53.630  1.00  0.00    -0.034 C 
HETATM   21  C1  UNL     1      24.935  -0.773  54.632  1.00  0.00     0.048 C 
HETATM   22  C3  UNL     1      26.612  -0.766  52.512  1.00  0.00     0.015 C 
ENDBRANCH   1  20
TORSDOF 3
ENDMDL
MODEL 7
REMARK VINA RESULT:      -8.1      3.056      4.333
REMARK  3 active torsions:
REMARK  status: ('A' for Active; 'I' for Inactive)
REMARK    1  A    between atoms: C2_2  and  C4_4 
REMARK    2  A    between atoms: C7_7  and  S1_8 
REMARK    3  A    between atoms: N1_9  and  C8_10 
ROOT
HETATM    1  C4  UNL     1      22.747   2.628  49.132  1.00  0.00     0.013 C 
HETATM    2  C5  UNL     1      22.477   2.436  50.466  1.00  0.00     0.080 C 
HETATM    3  C6  UNL     1      22.749   1.116  51.113  1.00  0.00     0.113 C 
HETATM    4  C7  UNL     1      21.974   0.891  52.317  1.00  0.00    -0.006 C 
HETATM    5  C14 UNL     1      20.934   1.381  52.970  1.00  0.00     0.036 C 
HETATM    6  C15 UNL     1      20.146   2.511  52.541  1.00  0.00     0.147 C 
HETATM    7  N2  UNL     1      20.624   3.460  51.768  1.00  0.00    -0.141 NA
HETATM    8  O1  UNL     1      21.923   3.455  51.305  1.00  0.00    -0.218 OA
ENDROOT
BRANCH   4   9
HETATM    9  S1  UNL     1      22.670  -0.518  53.259  1.00  0.00    -0.089 SA
HETATM   10  N1  UNL     1      24.404  -0.224  53.284  1.00  0.00    -0.327 N 
HETATM   11  H9  UNL     1      23.889  -1.115  53.065  1.00  0.00     0.261 HD
BRANCH  10  12
HETATM   12  C8  UNL     1      25.789   0.005  53.300  1.00  0.00     0.040 A 
HETATM   13  C9  UNL     1      26.047   1.347  53.477  1.00  0.00     0.033 A 
HETATM   14  C10 UNL     1      27.371   1.760  53.587  1.00  0.00     0.046 A 
HETATM   15  C11 UNL     1      28.280   0.735  53.503  1.00  0.00     0.138 A 
HETATM   16  F1  UNL     1      29.604   1.020  53.606  1.00  0.00    -0.204 F 
HETATM   17  C12 UNL     1      27.994  -0.622  53.319  1.00  0.00     0.074 A 
HETATM   18 CL1  UNL     1      29.259  -1.834  53.248  1.00  0.00    -0.081 Cl
HETATM   19  C13 UNL     1      26.684  -1.005  53.212  1.00  0.00     0.057 A 
ENDBRANCH  10  12
ENDBRANCH   4   9
BRANCH   1  20
HETATM   20  C2  UNL     1      22.597   3.808  48.205  1.00  0.00    -0.034 C 
HETATM   21  C1  UNL     1      21.614   3.311  47.600  1.00  0.00     0.048 C 
HETATM   22  C3  UNL     1      23.687   4.663  48.690  1.00  0.00     0.015 C 
ENDBRANCH   1  20
TORSDOF 3
ENDMDL
MODEL 8
REMARK VINA RESULT:      -8.1      4.501      7.960
REMARK  3 active torsions:
REMARK  status: ('A' for Active; 'I' for Inactive)
REMARK    1  A    between atoms: C2_2  and  C4_4 
REMARK    2  A    between atoms: C7_7  and  S1_8 
REMARK    3  A    between atoms: N1_9  and  C8_10 
ROOT
HETATM    1  C4  UNL     1      26.324   0.293  53.479  1.00  0.00     0.013 C 
HETATM    2  C5  UNL     1      26.005   1.520  52.947  1.00  0.00     0.080 C 
HETATM    3  C6  UNL     1      24.585   1.986  52.911  1.00  0.00     0.113 C 
HETATM    4  C7  UNL     1      24.334   3.001  51.907  1.00  0.00    -0.006 C 
HETATM    5  C14 UNL     1      24.899   3.550  50.846  1.00  0.00     0.036 C 
HETATM    6  C15 UNL     1      26.189   3.186  50.314  1.00  0.00     0.147 C 
HETATM    7  N2  UNL     1      27.140   2.659  51.051  1.00  0.00    -0.141 NA
HETATM    8  O1  UNL     1      26.982   2.412  52.399  1.00  0.00    -0.218 OA
ENDROOT
BRANCH   4   9
HETATM    9  S1  UNL     1      22.718   3.807  52.218  1.00  0.00    -0.089 SA
HETATM   10  N1  UNL     1      21.587   2.476  52.413  1.00  0.00    -0.327 N 
HETATM   11  H9  UNL     1      21.483   3.349  51.836  1.00  0.00     0.261 HD
BRANCH  10  12
HETATM   12  C8  UNL     1      20.680   1.414  52.565  1.00  0.00     0.040 A 
HETATM   13  C9  UNL     1      21.053   0.618  53.625  1.00  0.00     0.033 A 
HETATM   14  C10 UNL     1      20.234  -0.452  53.973  1.00  0.00     0.046 A 
HETATM   15  C11 UNL     1      19.118  -0.576  53.183  1.00  0.00     0.138 A 
HETATM   16  F1  UNL     1      18.241  -1.581  53.436  1.00  0.00    -0.204 F 
HETATM   17  C12 UNL     1      18.761   0.245  52.107  1.00  0.00     0.074 A 
HETATM   18 CL1  UNL     1      17.290  -0.017  51.191  1.00  0.00    -0.081 Cl
HETATM   19  C13 UNL     1      19.583   1.291  51.783  1.00  0.00     0.057 A 
ENDBRANCH  10  12
ENDBRANCH   4   9
BRANCH   1  20
HETATM   20  C2  UNL     1      27.624  -0.447  53.665  1.00  0.00    -0.034 C 
HETATM   21  C1  UNL     1      27.370  -1.285  52.764  1.00  0.00     0.048 C 
HETATM   22  C3  UNL     1      28.229   0.350  54.739  1.00  0.00     0.015 C 
ENDBRANCH   1  20
TORSDOF 3
ENDMDL
MODEL 9
REMARK VINA RESULT:      -8.1      5.215      7.163
REMARK  3 active torsions:
REMARK  status: ('A' for Active; 'I' for Inactive)
REMARK    1  A    between atoms: C2_2  and  C4_4 
REMARK    2  A    between atoms: C7_7  and  S1_8 
REMARK    3  A    between atoms: N1_9  and  C8_10 
ROOT
HETATM    1  C4  UNL     1      25.283   0.303  53.090  1.00  0.00     0.013 C 
HETATM    2  C5  UNL     1      23.926   0.097  53.016  1.00  0.00     0.080 C 
HETATM    3  C6  UNL     1      23.053   1.050  52.264  1.00  0.00     0.113 C 
HETATM    4  C7  UNL     1      21.665   1.017  52.682  1.00  0.00    -0.006 C 
HETATM    5  C14 UNL     1      20.903   0.556  53.658  1.00  0.00     0.036 C 
HETATM    6  C15 UNL     1      21.378  -0.191  54.796  1.00  0.00     0.147 C 
HETATM    7  N2  UNL     1      22.478  -0.910  54.768  1.00  0.00    -0.141 NA
HETATM    8  O1  UNL     1      23.268  -1.010  53.642  1.00  0.00    -0.218 OA
ENDROOT
BRANCH   4   9
HETATM    9  S1  UNL     1      20.616   1.872  51.447  1.00  0.00    -0.089 SA
HETATM   10  N1  UNL     1      21.311   3.481  51.309  1.00  0.00    -0.327 N 
HETATM   11  H9  UNL     1      20.302   3.207  51.417  1.00  0.00     0.261 HD
BRANCH  10  12
HETATM   12  C8  UNL     1      21.862   4.769  51.201  1.00  0.00     0.040 A 
HETATM   13  C9  UNL     1      23.170   4.765  51.631  1.00  0.00     0.033 A 
HETATM   14  C10 UNL     1      23.905   5.942  51.534  1.00  0.00     0.046 A 
HETATM   15  C11 UNL     1      23.201   6.993  51.003  1.00  0.00     0.138 A 
HETATM   16  F1  UNL     1      23.821   8.192  50.853  1.00  0.00    -0.204 F 
HETATM   17  C12 UNL     1      21.868   6.974  50.575  1.00  0.00     0.074 A 
HETATM   18 CL1  UNL     1      21.094   8.392  49.894  1.00  0.00    -0.081 Cl
HETATM   19  C13 UNL     1      21.165   5.805  50.681  1.00  0.00     0.057 A 
ENDBRANCH  10  12
ENDBRANCH   4   9
BRANCH   1  20
HETATM   20  C2  UNL     1      26.410  -0.454  53.746  1.00  0.00    -0.034 C 
HETATM   21  C1  UNL     1      26.354   0.220  54.805  1.00  0.00     0.048 C 
HETATM   22  C3  UNL     1      26.733  -1.415  52.685  1.00  0.00     0.015 C 
ENDBRANCH   1  20
TORSDOF 3
ENDMDL
