MODEL 1
REMARK VINA RESULT:      -8.5      0.000      0.000
REMARK  6 active torsions:
REMARK  status: ('A' for Active; 'I' for Inactive)
REMARK    1  A    between atoms: C3_3  and  C4_4 
REMARK       I    between atoms: C4_4  and  N1_6 
REMARK    2  A    between atoms: N1_6  and  C5_7 
REMARK    3  A    between atoms: C12_16  and  C13_17 
REMARK    4  A    between atoms: C15_19  and  C16_20 
REMARK    5  A    between atoms: C17_21  and  C18_22 
REMARK    6  A    between atoms: C18_22  and  N4_23 
ROOT
HETATM    1  C1  UNL     1      29.049   6.401  47.668  1.00  0.00     0.112 C 
HETATM    2  C2  UNL     1      27.853   5.926  48.366  1.00  0.00    -0.101 C 
HETATM    3  C3  UNL     1      26.872   5.526  48.940  1.00  0.00    -0.006 C 
ENDROOT
BRANCH   3   4
HETATM    4  C4  UNL     1      25.691   5.067  49.612  1.00  0.00     0.300 C 
HETATM    5  O1  UNL     1      25.131   5.873  50.357  1.00  0.00    -0.258 OA
HETATM    6  N1  UNL     1      25.125   3.787  49.491  1.00  0.00    -0.316 N 
HETATM    7  H4  UNL     1      25.705   3.205  48.823  1.00  0.00     0.170 HD
BRANCH   6   8
HETATM    8  C5  UNL     1      23.981   3.232  50.095  1.00  0.00     0.036 A 
HETATM    9  C6  UNL     1      22.696   3.552  49.738  1.00  0.00     0.032 A 
HETATM   10  C7  UNL     1      21.612   2.987  50.354  1.00  0.00     0.035 A 
HETATM   11  C8  UNL     1      21.845   2.069  51.363  1.00  0.00     0.067 A 
HETATM   12  N2  UNL     1      20.750   1.559  51.964  1.00  0.00    -0.259 NA
HETATM   13  C19 UNL     1      23.120   1.686  51.787  1.00  0.00     0.007 A 
HETATM   14  C9  UNL     1      20.930   0.686  52.961  1.00  0.00     0.140 A 
HETATM   15  C10 UNL     1      22.200   0.324  53.355  1.00  0.00     0.073 A 
HETATM   16  C11 UNL     1      22.180  -0.679  54.383  1.00  0.00     0.102 C 
HETATM   17  C12 UNL     1      23.361   0.799  52.796  1.00  0.00     0.005 A 
HETATM   18  N3  UNL     1      22.160  -1.517  55.215  1.00  0.00    -0.191 NA
HETATM   19  C20 UNL     1      24.114   2.316  51.100  1.00  0.00     0.044 A 
BRANCH  17  20
HETATM   20  C13 UNL     1      24.670   0.468  53.295  1.00  0.00    -0.049 C 
HETATM   21  C14 UNL     1      25.611   1.235  54.153  1.00  0.00     0.049 C 
HETATM   22  C15 UNL     1      25.295  -0.637  52.927  1.00  0.00     0.007 C 
BRANCH  22  23
HETATM   23  C16 UNL     1      26.597  -1.173  53.289  1.00  0.00    -0.002 C 
HETATM   24  C17 UNL     1      27.780  -1.044  52.722  1.00  0.00     0.003 C 
BRANCH  24  25
HETATM   25  C18 UNL     1      29.036  -1.654  53.205  1.00  0.00     0.294 C 
BRANCH  25  26
HETATM   26  N4  UNL     1      28.917  -3.088  53.338  1.00  0.00     0.081 N 
HETATM   27  H16 UNL     1      28.949  -3.526  52.394  1.00  0.00     0.313 HD
HETATM   28  H17 UNL     1      29.747  -3.462  53.883  1.00  0.00     0.313 HD
ENDBRANCH  25  26
ENDBRANCH  24  25
ENDBRANCH  22  23
ENDBRANCH  17  20
ENDBRANCH   6   8
ENDBRANCH   3   4
TORSDOF 6
ENDMDL
MODEL 2
REMARK VINA RESULT:      -8.1      1.943      4.971
REMARK  6 active torsions:
REMARK  status: ('A' for Active; 'I' for Inactive)
REMARK    1  A    between atoms: C3_3  and  C4_4 
REMARK       I    between atoms: C4_4  and  N1_6 
REMARK    2  A    between atoms: N1_6  and  C5_7 
REMARK    3  A    between atoms: C12_16  and  C13_17 
REMARK    4  A    between atoms: C15_19  and  C16_20 
REMARK    5  A    between atoms: C17_21  and  C18_22 
REMARK    6  A    between atoms: C18_22  and  N4_23 
ROOT
HETATM    1  C1  UNL     1      27.287   6.850  47.792  1.00  0.00     0.112 C 
HETATM    2  C2  UNL     1      26.897   5.721  48.637  1.00  0.00    -0.101 C 
HETATM    3  C3  UNL     1      26.570   4.796  49.337  1.00  0.00    -0.006 C 
ENDROOT
BRANCH   3   4
HETATM    4  C4  UNL     1      26.204   3.686  50.168  1.00  0.00     0.300 C 
HETATM    5  O1  UNL     1      25.232   3.020  49.806  1.00  0.00    -0.258 OA
HETATM    6  N1  UNL     1      26.856   3.299  51.351  1.00  0.00    -0.316 N 
HETATM    7  H4  UNL     1      27.666   3.954  51.539  1.00  0.00     0.170 HD
BRANCH   6   8
HETATM    8  C5  UNL     1      26.589   2.239  52.238  1.00  0.00     0.036 A 
HETATM    9  C6  UNL     1      27.549   1.604  52.983  1.00  0.00     0.032 A 
HETATM   10  C7  UNL     1      27.243   0.576  53.833  1.00  0.00     0.035 A 
HETATM   11  C8  UNL     1      25.919   0.186  53.928  1.00  0.00     0.067 A 
HETATM   12  N2  UNL     1      25.665  -0.850  54.756  1.00  0.00    -0.259 NA
HETATM   13  C19 UNL     1      24.879   0.780  53.208  1.00  0.00     0.007 A 
HETATM   14  C9  UNL     1      24.401  -1.275  54.858  1.00  0.00     0.140 A 
HETATM   15  C10 UNL     1      23.396  -0.668  54.137  1.00  0.00     0.073 A 
HETATM   16  C11 UNL     1      22.105  -1.218  54.445  1.00  0.00     0.102 C 
HETATM   17  C12 UNL     1      23.574   0.387  53.276  1.00  0.00     0.005 A 
HETATM   18  N3  UNL     1      21.043  -1.658  54.715  1.00  0.00    -0.191 NA
HETATM   19  C20 UNL     1      25.309   1.786  52.397  1.00  0.00     0.044 A 
BRANCH  17  20
HETATM   20  C13 UNL     1      22.514   0.936  52.471  1.00  0.00    -0.049 C 
HETATM   21  C14 UNL     1      21.355   1.791  52.834  1.00  0.00     0.049 C 
HETATM   22  C15 UNL     1      22.382   0.627  51.193  1.00  0.00     0.007 C 
BRANCH  22  23
HETATM   23  C16 UNL     1      21.409   1.046  50.196  1.00  0.00    -0.002 C 
HETATM   24  C17 UNL     1      21.515   1.855  49.162  1.00  0.00     0.003 C 
BRANCH  24  25
HETATM   25  C18 UNL     1      20.428   2.195  48.221  1.00  0.00     0.294 C 
BRANCH  25  26
HETATM   26  N4  UNL     1      19.126   2.002  48.816  1.00  0.00     0.081 N 
HETATM   27  H16 UNL     1      19.012   1.001  49.080  1.00  0.00     0.313 HD
HETATM   28  H17 UNL     1      19.059   2.568  49.711  1.00  0.00     0.313 HD
ENDBRANCH  25  26
ENDBRANCH  24  25
ENDBRANCH  22  23
ENDBRANCH  17  20
ENDBRANCH   6   8
ENDBRANCH   3   4
TORSDOF 6
ENDMDL
MODEL 3
REMARK VINA RESULT:      -7.9      2.450      6.339
REMARK  6 active torsions:
REMARK  status: ('A' for Active; 'I' for Inactive)
REMARK    1  A    between atoms: C3_3  and  C4_4 
REMARK       I    between atoms: C4_4  and  N1_6 
REMARK    2  A    between atoms: N1_6  and  C5_7 
REMARK    3  A    between atoms: C12_16  and  C13_17 
REMARK    4  A    between atoms: C15_19  and  C16_20 
REMARK    5  A    between atoms: C17_21  and  C18_22 
REMARK    6  A    between atoms: C18_22  and  N4_23 
ROOT
HETATM    1  C1  UNL     1      30.659  -0.896  53.827  1.00  0.00     0.112 C 
HETATM    2  C2  UNL     1      29.267  -0.451  53.896  1.00  0.00    -0.101 C 
HETATM    3  C3  UNL     1      28.122  -0.078  53.958  1.00  0.00    -0.006 C 
ENDROOT
BRANCH   3   4
HETATM    4  C4  UNL     1      26.752   0.342  54.029  1.00  0.00     0.300 C 
HETATM    5  O1  UNL     1      26.496   1.260  54.810  1.00  0.00    -0.258 OA
HETATM    6  N1  UNL     1      25.690  -0.203  53.289  1.00  0.00    -0.316 N 
HETATM    7  H4  UNL     1      26.054  -0.977  52.664  1.00  0.00     0.170 HD
BRANCH   6   8
HETATM    8  C5  UNL     1      24.321   0.126  53.276  1.00  0.00     0.036 A 
HETATM    9  C6  UNL     1      23.364  -0.557  53.980  1.00  0.00     0.032 A 
HETATM   10  C7  UNL     1      22.042  -0.202  53.938  1.00  0.00     0.035 A 
HETATM   11  C8  UNL     1      21.688   0.882  53.154  1.00  0.00     0.067 A 
HETATM   12  N2  UNL     1      20.372   1.181  53.117  1.00  0.00    -0.259 NA
HETATM   13  C19 UNL     1      22.599   1.634  52.407  1.00  0.00     0.007 A 
HETATM   14  C9  UNL     1      19.983   2.207  52.353  1.00  0.00     0.140 A 
HETATM   15  C10 UNL     1      20.905   2.931  51.630  1.00  0.00     0.073 A 
HETATM   16  C11 UNL     1      20.299   4.035  50.938  1.00  0.00     0.102 C 
HETATM   17  C12 UNL     1      22.257   2.690  51.614  1.00  0.00     0.005 A 
HETATM   18  N3  UNL     1      19.801   4.954  50.386  1.00  0.00    -0.191 NA
HETATM   19  C20 UNL     1      23.879   1.183  52.530  1.00  0.00     0.044 A 
BRANCH  17  20
HETATM   20  C13 UNL     1      23.177   3.411  50.774  1.00  0.00    -0.049 C 
HETATM   21  C14 UNL     1      23.608   3.178  49.371  1.00  0.00     0.049 C 
HETATM   22  C15 UNL     1      23.899   4.417  51.239  1.00  0.00     0.007 C 
BRANCH  22  23
HETATM   23  C16 UNL     1      24.878   5.278  50.594  1.00  0.00    -0.002 C 
HETATM   24  C17 UNL     1      24.867   6.571  50.341  1.00  0.00     0.003 C 
BRANCH  24  25
HETATM   25  C18 UNL     1      25.946   7.325  49.670  1.00  0.00     0.294 C 
BRANCH  25  26
HETATM   26  N4  UNL     1      26.654   8.180  50.594  1.00  0.00     0.081 N 
HETATM   27  H16 UNL     1      27.428   8.665  50.091  1.00  0.00     0.313 HD
HETATM   28  H17 UNL     1      25.998   8.932  50.953  1.00  0.00     0.313 HD
ENDBRANCH  25  26
ENDBRANCH  24  25
ENDBRANCH  22  23
ENDBRANCH  17  20
ENDBRANCH   6   8
ENDBRANCH   3   4
TORSDOF 6
ENDMDL
MODEL 4
REMARK VINA RESULT:      -7.9      3.383      7.803
REMARK  6 active torsions:
REMARK  status: ('A' for Active; 'I' for Inactive)
REMARK    1  A    between atoms: C3_3  and  C4_4 
REMARK       I    between atoms: C4_4  and  N1_6 
REMARK    2  A    between atoms: N1_6  and  C5_7 
REMARK    3  A    between atoms: C12_16  and  C13_17 
REMARK    4  A    between atoms: C15_19  and  C16_20 
REMARK    5  A    between atoms: C17_21  and  C18_22 
REMARK    6  A    between atoms: C18_22  and  N4_23 
ROOT
HETATM    1  C1  UNL     1      15.360  -0.122  51.943  1.00  0.00     0.112 C 
HETATM    2  C2  UNL     1      16.805  -0.171  52.166  1.00  0.00    -0.101 C 
HETATM    3  C3  UNL     1      17.997  -0.205  52.344  1.00  0.00    -0.006 C 
ENDROOT
BRANCH   3   4
HETATM    4  C4  UNL     1      19.413  -0.271  52.560  1.00  0.00     0.300 C 
HETATM    5  O1  UNL     1      20.133  -0.022  51.591  1.00  0.00    -0.258 OA
HETATM    6  N1  UNL     1      20.042  -0.590  53.775  1.00  0.00    -0.316 N 
HETATM    7  H4  UNL     1      19.308  -0.778  54.515  1.00  0.00     0.170 HD
BRANCH   6   8
HETATM    8  C5  UNL     1      21.408  -0.683  54.101  1.00  0.00     0.036 A 
HETATM    9  C6  UNL     1      21.921  -1.583  55.000  1.00  0.00     0.032 A 
HETATM   10  C7  UNL     1      23.258  -1.637  55.288  1.00  0.00     0.035 A 
HETATM   11  C8  UNL     1      24.096  -0.749  54.638  1.00  0.00     0.067 A 
HETATM   12  N2  UNL     1      25.403  -0.817  54.971  1.00  0.00    -0.259 NA
HETATM   13  C19 UNL     1      23.659   0.197  53.707  1.00  0.00     0.007 A 
HETATM   14  C9  UNL     1      26.246   0.040  54.384  1.00  0.00     0.140 A 
HETATM   15  C10 UNL     1      25.784   0.960  53.468  1.00  0.00     0.073 A 
HETATM   16  C11 UNL     1      26.852   1.733  52.896  1.00  0.00     0.102 C 
HETATM   17  C12 UNL     1      24.474   1.092  53.078  1.00  0.00     0.005 A 
HETATM   18  N3  UNL     1      27.734   2.353  52.414  1.00  0.00    -0.191 NA
HETATM   19  C20 UNL     1      22.312   0.153  53.508  1.00  0.00     0.044 A 
BRANCH  17  20
HETATM   20  C13 UNL     1      24.016   2.126  52.186  1.00  0.00    -0.049 C 
HETATM   21  C14 UNL     1      23.872   2.146  50.708  1.00  0.00     0.049 C 
HETATM   22  C15 UNL     1      23.733   3.342  52.620  1.00  0.00     0.007 C 
BRANCH  22  23
HETATM   23  C16 UNL     1      23.265   4.528  51.922  1.00  0.00    -0.002 C 
HETATM   24  C17 UNL     1      22.078   5.101  51.874  1.00  0.00     0.003 C 
BRANCH  24  25
HETATM   25  C18 UNL     1      21.742   6.320  51.113  1.00  0.00     0.294 C 
BRANCH  25  26
HETATM   26  N4  UNL     1      22.812   7.290  51.157  1.00  0.00     0.081 N 
HETATM   27  H16 UNL     1      23.016   7.623  50.191  1.00  0.00     0.313 HD
HETATM   28  H17 UNL     1      22.500   8.135  51.717  1.00  0.00     0.313 HD
ENDBRANCH  25  26
ENDBRANCH  24  25
ENDBRANCH  22  23
ENDBRANCH  17  20
ENDBRANCH   6   8
ENDBRANCH   3   4
TORSDOF 6
ENDMDL
MODEL 5
REMARK VINA RESULT:      -7.7      2.278      5.345
REMARK  6 active torsions:
REMARK  status: ('A' for Active; 'I' for Inactive)
REMARK    1  A    between atoms: C3_3  and  C4_4 
REMARK       I    between atoms: C4_4  and  N1_6 
REMARK    2  A    between atoms: N1_6  and  C5_7 
REMARK    3  A    between atoms: C12_16  and  C13_17 
REMARK    4  A    between atoms: C15_19  and  C16_20 
REMARK    5  A    between atoms: C17_21  and  C18_22 
REMARK    6  A    between atoms: C18_22  and  N4_23 
ROOT
HETATM    1  C1  UNL     1      24.295   7.795  46.661  1.00  0.00     0.112 C 
HETATM    2  C2  UNL     1      24.481   6.884  47.791  1.00  0.00    -0.101 C 
HETATM    3  C3  UNL     1      24.642   6.138  48.724  1.00  0.00    -0.006 C 
ENDROOT
BRANCH   3   4
HETATM    4  C4  UNL     1      24.822   5.232  49.821  1.00  0.00     0.300 C 
HETATM    5  O1  UNL     1      24.631   5.687  50.951  1.00  0.00    -0.258 OA
HETATM    6  N1  UNL     1      25.193   3.881  49.715  1.00  0.00    -0.316 N 
HETATM    7  H4  UNL     1      25.322   3.629  48.695  1.00  0.00     0.170 HD
BRANCH   6   8
HETATM    8  C5  UNL     1      25.396   2.907  50.711  1.00  0.00     0.036 A 
HETATM    9  C6  UNL     1      26.627   2.569  51.210  1.00  0.00     0.032 A 
HETATM   10  C7  UNL     1      26.778   1.614  52.180  1.00  0.00     0.035 A 
HETATM   11  C8  UNL     1      25.640   0.988  52.654  1.00  0.00     0.067 A 
HETATM   12  N2  UNL     1      25.835   0.033  53.588  1.00  0.00    -0.259 NA
HETATM   13  C19 UNL     1      24.348   1.273  52.203  1.00  0.00     0.007 A 
HETATM   14  C9  UNL     1      24.763  -0.615  54.057  1.00  0.00     0.140 A 
HETATM   15  C10 UNL     1      23.502  -0.309  53.594  1.00  0.00     0.073 A 
HETATM   16  C11 UNL     1      22.483  -1.059  54.276  1.00  0.00     0.102 C 
HETATM   17  C12 UNL     1      23.222   0.645  52.647  1.00  0.00     0.005 A 
HETATM   18  N3  UNL     1      21.646  -1.662  54.851  1.00  0.00    -0.191 NA
HETATM   19  C20 UNL     1      24.329   2.237  51.240  1.00  0.00     0.044 A 
BRANCH  17  20
HETATM   20  C13 UNL     1      21.900   0.872  52.123  1.00  0.00    -0.049 C 
HETATM   21  C14 UNL     1      21.167   0.222  51.006  1.00  0.00     0.049 C 
HETATM   22  C15 UNL     1      21.141   1.862  52.560  1.00  0.00     0.007 C 
BRANCH  22  23
HETATM   23  C16 UNL     1      19.799   2.282  52.188  1.00  0.00    -0.002 C 
HETATM   24  C17 UNL     1      19.332   3.446  51.782  1.00  0.00     0.003 C 
BRANCH  24  25
HETATM   25  C18 UNL     1      17.926   3.734  51.434  1.00  0.00     0.294 C 
BRANCH  25  26
HETATM   26  N4  UNL     1      17.094   2.560  51.557  1.00  0.00     0.081 N 
HETATM   27  H16 UNL     1      17.312   2.075  52.453  1.00  0.00     0.313 HD
HETATM   28  H17 UNL     1      16.075   2.852  51.601  1.00  0.00     0.313 HD
ENDBRANCH  25  26
ENDBRANCH  24  25
ENDBRANCH  22  23
ENDBRANCH  17  20
ENDBRANCH   6   8
ENDBRANCH   3   4
TORSDOF 6
ENDMDL
MODEL 6
REMARK VINA RESULT:      -7.4      2.625      5.939
REMARK  6 active torsions:
REMARK  status: ('A' for Active; 'I' for Inactive)
REMARK    1  A    between atoms: C3_3  and  C4_4 
REMARK       I    between atoms: C4_4  and  N1_6 
REMARK    2  A    between atoms: N1_6  and  C5_7 
REMARK    3  A    between atoms: C12_16  and  C13_17 
REMARK    4  A    between atoms: C15_19  and  C16_20 
REMARK    5  A    between atoms: C17_21  and  C18_22 
REMARK    6  A    between atoms: C18_22  and  N4_23 
ROOT
HETATM    1  C1  UNL     1      17.073   5.158  48.241  1.00  0.00     0.112 C 
HETATM    2  C2  UNL     1      17.682   4.362  49.307  1.00  0.00    -0.101 C 
HETATM    3  C3  UNL     1      18.183   3.713  50.190  1.00  0.00    -0.006 C 
ENDROOT
BRANCH   3   4
HETATM    4  C4  UNL     1      18.792   2.927  51.225  1.00  0.00     0.300 C 
HETATM    5  O1  UNL     1      18.991   3.491  52.302  1.00  0.00    -0.258 OA
HETATM    6  N1  UNL     1      19.174   1.580  51.111  1.00  0.00    -0.316 N 
HETATM    7  H4  UNL     1      18.945   1.228  50.139  1.00  0.00     0.170 HD
BRANCH   6   8
HETATM    8  C5  UNL     1      19.773   0.717  52.049  1.00  0.00     0.036 A 
HETATM    9  C6  UNL     1      19.102  -0.281  52.707  1.00  0.00     0.032 A 
HETATM   10  C7  UNL     1      19.725  -1.097  53.612  1.00  0.00     0.035 A 
HETATM   11  C8  UNL     1      21.072  -0.889  53.852  1.00  0.00     0.067 A 
HETATM   12  N2  UNL     1      21.641  -1.696  54.773  1.00  0.00    -0.259 NA
HETATM   13  C19 UNL     1      21.830   0.103  53.225  1.00  0.00     0.007 A 
HETATM   14  C9  UNL     1      22.935  -1.512  55.054  1.00  0.00     0.140 A 
HETATM   15  C10 UNL     1      23.658  -0.528  54.416  1.00  0.00     0.073 A 
HETATM   16  C11 UNL     1      25.043  -0.544  54.798  1.00  0.00     0.102 C 
HETATM   17  C12 UNL     1      23.153   0.332  53.472  1.00  0.00     0.005 A 
HETATM   18  N3  UNL     1      26.185  -0.573  55.099  1.00  0.00    -0.191 NA
HETATM   19  C20 UNL     1      21.100   0.848  52.349  1.00  0.00     0.044 A 
BRANCH  17  20
HETATM   20  C13 UNL     1      23.916   1.407  52.895  1.00  0.00    -0.049 C 
HETATM   21  C14 UNL     1      24.226   2.768  53.404  1.00  0.00     0.049 C 
HETATM   22  C15 UNL     1      24.401   1.334  51.667  1.00  0.00     0.007 C 
BRANCH  22  23
HETATM   23  C16 UNL     1      25.184   2.275  50.883  1.00  0.00    -0.002 C 
HETATM   24  C17 UNL     1      24.825   3.186  50.001  1.00  0.00     0.003 C 
BRANCH  24  25
HETATM   25  C18 UNL     1      25.741   4.085  49.271  1.00  0.00     0.294 C 
BRANCH  25  26
HETATM   26  N4  UNL     1      26.175   5.189  50.094  1.00  0.00     0.081 N 
HETATM   27  H16 UNL     1      27.213   5.267  50.049  1.00  0.00     0.313 HD
HETATM   28  H17 UNL     1      25.778   6.095  49.709  1.00  0.00     0.313 HD
ENDBRANCH  25  26
ENDBRANCH  24  25
ENDBRANCH  22  23
ENDBRANCH  17  20
ENDBRANCH   6   8
ENDBRANCH   3   4
TORSDOF 6
ENDMDL
MODEL 7
REMARK VINA RESULT:      -7.3      2.656      6.822
REMARK  6 active torsions:
REMARK  status: ('A' for Active; 'I' for Inactive)
REMARK    1  A    between atoms: C3_3  and  C4_4 
REMARK       I    between atoms: C4_4  and  N1_6 
REMARK    2  A    between atoms: N1_6  and  C5_7 
REMARK    3  A    between atoms: C12_16  and  C13_17 
REMARK    4  A    between atoms: C15_19  and  C16_20 
REMARK    5  A    between atoms: C17_21  and  C18_22 
REMARK    6  A    between atoms: C18_22  and  N4_23 
ROOT
HETATM    1  C1  UNL     1      15.994   2.205  50.386  1.00  0.00     0.112 C 
HETATM    2  C2  UNL     1      17.257   1.936  51.074  1.00  0.00    -0.101 C 
HETATM    3  C3  UNL     1      18.294   1.708  51.644  1.00  0.00    -0.006 C 
ENDROOT
BRANCH   3   4
HETATM    4  C4  UNL     1      19.533   1.461  52.323  1.00  0.00     0.300 C 
HETATM    5  O1  UNL     1      20.148   2.449  52.729  1.00  0.00    -0.258 OA
HETATM    6  N1  UNL     1      20.098   0.197  52.562  1.00  0.00    -0.316 N 
HETATM    7  H4  UNL     1      19.467  -0.554  52.163  1.00  0.00     0.170 HD
BRANCH   6   8
HETATM    8  C5  UNL     1      21.295  -0.162  53.211  1.00  0.00     0.036 A 
HETATM    9  C6  UNL     1      21.412  -1.229  54.063  1.00  0.00     0.032 A 
HETATM   10  C7  UNL     1      22.597  -1.541  54.674  1.00  0.00     0.035 A 
HETATM   11  C8  UNL     1      23.694  -0.742  54.405  1.00  0.00     0.067 A 
HETATM   12  N2  UNL     1      24.835  -1.067  55.050  1.00  0.00    -0.259 NA
HETATM   13  C19 UNL     1      23.662   0.362  53.549  1.00  0.00     0.007 A 
HETATM   14  C9  UNL     1      25.914  -0.305  54.838  1.00  0.00     0.140 A 
HETATM   15  C10 UNL     1      25.852   0.776  53.985  1.00  0.00     0.073 A 
HETATM   16  C11 UNL     1      27.130   1.415  53.834  1.00  0.00     0.102 C 
HETATM   17  C12 UNL     1      24.732   1.171  53.297  1.00  0.00     0.005 A 
HETATM   18  N3  UNL     1      28.186   1.926  53.696  1.00  0.00    -0.191 NA
HETATM   19  C20 UNL     1      22.431   0.570  53.006  1.00  0.00     0.044 A 
BRANCH  17  20
HETATM   20  C13 UNL     1      24.682   2.360  52.486  1.00  0.00    -0.049 C 
HETATM   21  C14 UNL     1      23.982   3.654  52.693  1.00  0.00     0.049 C 
HETATM   22  C15 UNL     1      25.234   2.405  51.286  1.00  0.00     0.007 C 
BRANCH  22  23
HETATM   23  C16 UNL     1      25.309   3.472  50.301  1.00  0.00    -0.002 C 
HETATM   24  C17 UNL     1      26.279   4.312  49.998  1.00  0.00     0.003 C 
BRANCH  24  25
HETATM   25  C18 UNL     1      26.216   5.361  48.960  1.00  0.00     0.294 C 
BRANCH  25  26
HETATM   26  N4  UNL     1      27.111   6.456  49.252  1.00  0.00     0.081 N 
HETATM   27  H16 UNL     1      26.589   7.356  49.183  1.00  0.00     0.313 HD
HETATM   28  H17 UNL     1      27.457   6.373  50.252  1.00  0.00     0.313 HD
ENDBRANCH  25  26
ENDBRANCH  24  25
ENDBRANCH  22  23
ENDBRANCH  17  20
ENDBRANCH   6   8
ENDBRANCH   3   4
TORSDOF 6
ENDMDL
MODEL 8
REMARK VINA RESULT:      -6.9      3.013      8.257
REMARK  6 active torsions:
REMARK  status: ('A' for Active; 'I' for Inactive)
REMARK    1  A    between atoms: C3_3  and  C4_4 
REMARK       I    between atoms: C4_4  and  N1_6 
REMARK    2  A    between atoms: N1_6  and  C5_7 
REMARK    3  A    between atoms: C12_16  and  C13_17 
REMARK    4  A    between atoms: C15_19  and  C16_20 
REMARK    5  A    between atoms: C17_21  and  C18_22 
REMARK    6  A    between atoms: C18_22  and  N4_23 
ROOT
HETATM    1  C1  UNL     1      17.190  -2.533  53.550  1.00  0.00     0.112 C 
HETATM    2  C2  UNL     1      18.427  -1.755  53.490  1.00  0.00    -0.101 C 
HETATM    3  C3  UNL     1      19.448  -1.116  53.431  1.00  0.00    -0.006 C 
ENDROOT
BRANCH   3   4
HETATM    4  C4  UNL     1      20.667  -0.361  53.385  1.00  0.00     0.300 C 
HETATM    5  O1  UNL     1      20.683   0.701  54.011  1.00  0.00    -0.258 OA
HETATM    6  N1  UNL     1      21.832  -0.730  52.693  1.00  0.00    -0.316 N 
HETATM    7  H4  UNL     1      21.676  -1.657  52.205  1.00  0.00     0.170 HD
BRANCH   6   8
HETATM    8  C5  UNL     1      23.073  -0.076  52.579  1.00  0.00     0.036 A 
HETATM    9  C6  UNL     1      24.187  -0.416  53.304  1.00  0.00     0.032 A 
HETATM   10  C7  UNL     1      25.375   0.250  53.160  1.00  0.00     0.035 A 
HETATM   11  C8  UNL     1      25.428   1.290  52.251  1.00  0.00     0.067 A 
HETATM   12  N2  UNL     1      26.609   1.938  52.161  1.00  0.00    -0.259 NA
HETATM   13  C19 UNL     1      24.343   1.700  51.471  1.00  0.00     0.007 A 
HETATM   14  C9  UNL     1      26.698   2.967  51.311  1.00  0.00     0.140 A 
HETATM   15  C10 UNL     1      25.611   3.346  50.553  1.00  0.00     0.073 A 
HETATM   16  C11 UNL     1      25.932   4.416  49.650  1.00  0.00     0.102 C 
HETATM   17  C12 UNL     1      24.379   2.740  50.588  1.00  0.00     0.005 A 
HETATM   18  N3  UNL     1      26.204   5.283  48.895  1.00  0.00    -0.191 NA
HETATM   19  C20 UNL     1      23.221   0.964  51.704  1.00  0.00     0.044 A 
BRANCH  17  20
HETATM   20  C13 UNL     1      23.242   3.222  49.849  1.00  0.00    -0.049 C 
HETATM   21  C14 UNL     1      22.098   4.075  50.263  1.00  0.00     0.049 C 
HETATM   22  C15 UNL     1      23.008   2.837  48.606  1.00  0.00     0.007 C 
BRANCH  22  23
HETATM   23  C16 UNL     1      21.944   3.180  47.676  1.00  0.00    -0.002 C 
HETATM   24  C17 UNL     1      21.949   3.902  46.573  1.00  0.00     0.003 C 
BRANCH  24  25
HETATM   25  C18 UNL     1      20.777   4.171  45.716  1.00  0.00     0.294 C 
BRANCH  25  26
HETATM   26  N4  UNL     1      21.007   3.754  44.352  1.00  0.00     0.081 N 
HETATM   27  H16 UNL     1      21.682   2.960  44.342  1.00  0.00     0.313 HD
HETATM   28  H17 UNL     1      20.100   3.396  43.934  1.00  0.00     0.313 HD
ENDBRANCH  25  26
ENDBRANCH  24  25
ENDBRANCH  22  23
ENDBRANCH  17  20
ENDBRANCH   6   8
ENDBRANCH   3   4
TORSDOF 6
ENDMDL
MODEL 9
REMARK VINA RESULT:      -6.8      2.065      5.524
REMARK  6 active torsions:
REMARK  status: ('A' for Active; 'I' for Inactive)
REMARK    1  A    between atoms: C3_3  and  C4_4 
REMARK       I    between atoms: C4_4  and  N1_6 
REMARK    2  A    between atoms: N1_6  and  C5_7 
REMARK    3  A    between atoms: C12_16  and  C13_17 
REMARK    4  A    between atoms: C15_19  and  C16_20 
REMARK    5  A    between atoms: C17_21  and  C18_22 
REMARK    6  A    between atoms: C18_22  and  N4_23 
ROOT
HETATM    1  C1  UNL     1      28.485   7.358  47.136  1.00  0.00     0.112 C 
HETATM    2  C2  UNL     1      27.731   6.498  48.049  1.00  0.00    -0.101 C 
HETATM    3  C3  UNL     1      27.106   5.797  48.805  1.00  0.00    -0.006 C 
ENDROOT
BRANCH   3   4
HETATM    4  C4  UNL     1      26.382   4.948  49.706  1.00  0.00     0.300 C 
HETATM    5  O1  UNL     1      25.307   5.379  50.129  1.00  0.00    -0.258 OA
HETATM    6  N1  UNL     1      26.792   3.677  50.141  1.00  0.00    -0.316 N 
HETATM    7  H4  UNL     1      27.725   3.436  49.701  1.00  0.00     0.170 HD
BRANCH   6   8
HETATM    8  C5  UNL     1      26.170   2.764  51.013  1.00  0.00     0.036 A 
HETATM    9  C6  UNL     1      26.822   2.108  52.026  1.00  0.00     0.032 A 
HETATM   10  C7  UNL     1      26.176   1.227  52.851  1.00  0.00     0.035 A 
HETATM   11  C8  UNL     1      24.827   1.010  52.637  1.00  0.00     0.067 A 
HETATM   12  N2  UNL     1      24.235   0.112  53.454  1.00  0.00    -0.259 NA
HETATM   13  C19 UNL     1      24.087   1.637  51.632  1.00  0.00     0.007 A 
HETATM   14  C9  UNL     1      22.936  -0.146  53.267  1.00  0.00     0.140 A 
HETATM   15  C10 UNL     1      22.232   0.491  52.268  1.00  0.00     0.073 A 
HETATM   16  C11 UNL     1      20.840   0.136  52.281  1.00  0.00     0.102 C 
HETATM   17  C12 UNL     1      22.761   1.412  51.398  1.00  0.00     0.005 A 
HETATM   18  N3  UNL     1      19.692  -0.142  52.307  1.00  0.00    -0.191 NA
HETATM   19  C20 UNL     1      24.838   2.487  50.878  1.00  0.00     0.044 A 
BRANCH  17  20
HETATM   20  C13 UNL     1      22.016   1.988  50.309  1.00  0.00    -0.049 C 
HETATM   21  C14 UNL     1      21.828   1.535  48.906  1.00  0.00     0.049 C 
HETATM   22  C15 UNL     1      21.429   3.167  50.416  1.00  0.00     0.007 C 
BRANCH  22  23
HETATM   23  C16 UNL     1      20.639   3.939  49.471  1.00  0.00    -0.002 C 
HETATM   24  C17 UNL     1      20.687   5.211  49.128  1.00  0.00     0.003 C 
BRANCH  24  25
HETATM   25  C18 UNL     1      19.810   5.870  48.139  1.00  0.00     0.294 C 
BRANCH  25  26
HETATM   26  N4  UNL     1      19.919   5.255  46.836  1.00  0.00     0.081 N 
HETATM   27  H16 UNL     1      19.490   5.882  46.122  1.00  0.00     0.313 HD
HETATM   28  H17 UNL     1      20.943   5.148  46.581  1.00  0.00     0.313 HD
ENDBRANCH  25  26
ENDBRANCH  24  25
ENDBRANCH  22  23
ENDBRANCH  17  20
ENDBRANCH   6   8
ENDBRANCH   3   4
TORSDOF 6
ENDMDL
