MODEL 1
REMARK VINA RESULT:      -7.8      0.000      0.000
REMARK  8 active torsions:
REMARK  status: ('A' for Active; 'I' for Inactive)
REMARK    1  A    between atoms: C2_2  and  N1_3 
REMARK    2  A    between atoms: C5_7  and  N3_8 
REMARK    3  A    between atoms: N3_8  and  C6_9 
REMARK    4  A    between atoms: C10_13  and  C11_14 
REMARK    5  A    between atoms: C11_14  and  C12_15 
REMARK    6  A    between atoms: C14_19  and  C15_20 
REMARK    7  A    between atoms: C15_20  and  C16_21 
REMARK    8  A    between atoms: C16_21  and  N5_22 
ROOT
HETATM    1  N1  UNL     1      28.026   0.705  53.825  1.00  0.00    -0.324 N 
HETATM    2  C3  UNL     1      27.259   0.204  54.808  1.00  0.00     0.212 A 
HETATM    3  N2  UNL     1      25.976   0.489  54.527  1.00  0.00    -0.236 NA
HETATM    4  C4  UNL     1      25.902   1.160  53.391  1.00  0.00     0.150 A 
HETATM    5  C5  UNL     1      24.805   1.654  52.723  1.00  0.00     0.163 A 
HETATM    6  N4  UNL     1      25.098   2.298  51.580  1.00  0.00    -0.213 NA
HETATM    7  C14 UNL     1      26.348   2.452  51.116  1.00  0.00     0.132 A 
HETATM    8  N6  UNL     1      27.395   1.951  51.800  1.00  0.00    -0.213 NA
HETATM    9  C17 UNL     1      27.192   1.293  52.953  1.00  0.00     0.165 A 
ENDROOT
BRANCH   5  10
HETATM   10  N3  UNL     1      23.447   1.558  53.095  1.00  0.00    -0.339 N 
HETATM   11  H7  UNL     1      22.906   2.473  53.160  1.00  0.00     0.167 HD
BRANCH  10  12
HETATM   12  C6  UNL     1      22.563   0.511  53.417  1.00  0.00     0.034 A 
HETATM   13  C7  UNL     1      22.797  -0.566  54.240  1.00  0.00     0.029 A 
HETATM   14  C8  UNL     1      21.888  -1.552  54.553  1.00  0.00     0.003 A 
HETATM   15  C9  UNL     1      20.640  -1.444  53.990  1.00  0.00     0.007 A 
HETATM   16  C10 UNL     1      20.279  -0.414  53.149  1.00  0.00    -0.054 A 
HETATM   17  C13 UNL     1      21.260   0.518  52.901  1.00  0.00     0.036 A 
BRANCH  16  18
HETATM   18  C11 UNL     1      18.926  -0.258  52.511  1.00  0.00     0.070 C 
BRANCH  18  19
HETATM   19  C12 UNL     1      18.017  -1.243  53.219  1.00  0.00     0.226 C 
HETATM   20  F1  UNL     1      16.725  -0.736  53.313  1.00  0.00    -0.255 F 
ENDBRANCH  18  19
ENDBRANCH  16  18
ENDBRANCH  10  12
ENDBRANCH   5  10
BRANCH   7  21
HETATM   21  C15 UNL     1      26.451   3.210  49.816  1.00  0.00     0.110 C 
BRANCH  21  22
HETATM   22  C16 UNL     1      25.304   4.158  49.707  1.00  0.00     0.274 C 
BRANCH  22  23
HETATM   23  N5  UNL     1      25.584   5.371  50.480  1.00  0.00     0.078 N 
HETATM   24  H20 UNL     1      26.549   5.411  50.825  1.00  0.00     0.312 HD
HETATM   25  H21 UNL     1      24.832   5.565  51.158  1.00  0.00     0.312 HD
ENDBRANCH  22  23
ENDBRANCH  21  22
ENDBRANCH   7  21
BRANCH   1  26
HETATM   26  C2  UNL     1      29.468   0.628  53.727  1.00  0.00     0.127 C 
HETATM   27  C1  UNL     1      29.899  -0.798  53.543  1.00  0.00     0.027 C 
ENDBRANCH   1  26
TORSDOF 8
ENDMDL
MODEL 2
REMARK VINA RESULT:      -7.6      1.331      3.845
REMARK  8 active torsions:
REMARK  status: ('A' for Active; 'I' for Inactive)
REMARK    1  A    between atoms: C2_2  and  N1_3 
REMARK    2  A    between atoms: C5_7  and  N3_8 
REMARK    3  A    between atoms: N3_8  and  C6_9 
REMARK    4  A    between atoms: C10_13  and  C11_14 
REMARK    5  A    between atoms: C11_14  and  C12_15 
REMARK    6  A    between atoms: C14_19  and  C15_20 
REMARK    7  A    between atoms: C15_20  and  C16_21 
REMARK    8  A    between atoms: C16_21  and  N5_22 
ROOT
HETATM    1  N1  UNL     1      25.977   3.991  49.721  1.00  0.00    -0.324 N 
HETATM    2  C3  UNL     1      24.703   4.405  49.615  1.00  0.00     0.212 A 
HETATM    3  N2  UNL     1      23.961   3.714  50.497  1.00  0.00    -0.236 NA
HETATM    4  C4  UNL     1      24.725   2.868  51.164  1.00  0.00     0.150 A 
HETATM    5  C5  UNL     1      24.399   1.968  52.152  1.00  0.00     0.163 A 
HETATM    6  N4  UNL     1      25.440   1.253  52.614  1.00  0.00    -0.213 NA
HETATM    7  C14 UNL     1      26.695   1.394  52.160  1.00  0.00     0.132 A 
HETATM    8  N6  UNL     1      26.972   2.289  51.192  1.00  0.00    -0.213 NA
HETATM    9  C17 UNL     1      25.991   3.045  50.673  1.00  0.00     0.165 A 
ENDROOT
BRANCH   5  10
HETATM   10  N3  UNL     1      23.129   1.725  52.719  1.00  0.00    -0.339 N 
HETATM   11  H7  UNL     1      22.463   2.553  52.764  1.00  0.00     0.167 HD
BRANCH  10  12
HETATM   12  C6  UNL     1      22.470   0.609  53.268  1.00  0.00     0.034 A 
HETATM   13  C7  UNL     1      22.985  -0.342  54.116  1.00  0.00     0.029 A 
HETATM   14  C8  UNL     1      22.291  -1.401  54.658  1.00  0.00     0.003 A 
HETATM   15  C9  UNL     1      20.966  -1.511  54.314  1.00  0.00     0.007 A 
HETATM   16  C10 UNL     1      20.329  -0.624  53.473  1.00  0.00    -0.054 A 
HETATM   17  C13 UNL     1      21.113   0.397  52.988  1.00  0.00     0.036 A 
BRANCH  16  18
HETATM   18  C11 UNL     1      18.882  -0.708  53.071  1.00  0.00     0.070 C 
BRANCH  18  19
HETATM   19  C12 UNL     1      18.712   0.273  51.928  1.00  0.00     0.226 C 
HETATM   20  F1  UNL     1      18.231  -0.374  50.794  1.00  0.00    -0.255 F 
ENDBRANCH  18  19
ENDBRANCH  16  18
ENDBRANCH  10  12
ENDBRANCH   5  10
BRANCH   7  21
HETATM   21  C15 UNL     1      27.709   0.490  52.814  1.00  0.00     0.110 C 
BRANCH  21  22
HETATM   22  C16 UNL     1      28.224   1.142  54.053  1.00  0.00     0.274 C 
BRANCH  22  23
HETATM   23  N5  UNL     1      28.051   2.594  53.962  1.00  0.00     0.078 N 
HETATM   24  H20 UNL     1      27.366   2.958  54.631  1.00  0.00     0.312 HD
HETATM   25  H21 UNL     1      27.963   2.900  52.982  1.00  0.00     0.312 HD
ENDBRANCH  22  23
ENDBRANCH  21  22
ENDBRANCH   7  21
BRANCH   1  26
HETATM   26  C2  UNL     1      27.110   4.468  48.958  1.00  0.00     0.127 C 
HETATM   27  C1  UNL     1      26.933   5.920  48.621  1.00  0.00     0.027 C 
ENDBRANCH   1  26
TORSDOF 8
ENDMDL
MODEL 3
REMARK VINA RESULT:      -7.4      1.758      2.392
REMARK  8 active torsions:
REMARK  status: ('A' for Active; 'I' for Inactive)
REMARK    1  A    between atoms: C2_2  and  N1_3 
REMARK    2  A    between atoms: C5_7  and  N3_8 
REMARK    3  A    between atoms: N3_8  and  C6_9 
REMARK    4  A    between atoms: C10_13  and  C11_14 
REMARK    5  A    between atoms: C11_14  and  C12_15 
REMARK    6  A    between atoms: C14_19  and  C15_20 
REMARK    7  A    between atoms: C15_20  and  C16_21 
REMARK    8  A    between atoms: C16_21  and  N5_22 
ROOT
HETATM    1  N1  UNL     1      27.505   1.191  53.365  1.00  0.00    -0.324 N 
HETATM    2  C3  UNL     1      26.576   0.777  54.242  1.00  0.00     0.212 A 
HETATM    3  N2  UNL     1      25.382   1.252  53.847  1.00  0.00    -0.236 NA
HETATM    4  C4  UNL     1      25.523   1.961  52.741  1.00  0.00     0.150 A 
HETATM    5  C5  UNL     1      24.584   2.629  51.990  1.00  0.00     0.163 A 
HETATM    6  N4  UNL     1      25.083   3.258  50.912  1.00  0.00    -0.213 NA
HETATM    7  C14 UNL     1      26.385   3.244  50.584  1.00  0.00     0.132 A 
HETATM    8  N6  UNL     1      27.272   2.576  51.345  1.00  0.00    -0.213 NA
HETATM    9  C17 UNL     1      26.859   1.920  52.441  1.00  0.00     0.165 A 
ENDROOT
BRANCH   5  10
HETATM   10  N3  UNL     1      23.194   2.718  52.219  1.00  0.00    -0.339 N 
HETATM   11  H7  UNL     1      22.828   3.659  52.558  1.00  0.00     0.167 HD
BRANCH  10  12
HETATM   12  C6  UNL     1      22.097   1.844  52.106  1.00  0.00     0.034 A 
HETATM   13  C7  UNL     1      21.120   1.838  51.139  1.00  0.00     0.029 A 
HETATM   14  C8  UNL     1      20.081   0.939  51.048  1.00  0.00     0.003 A 
HETATM   15  C9  UNL     1      20.022  -0.036  52.013  1.00  0.00     0.007 A 
HETATM   16  C10 UNL     1      20.939  -0.141  53.036  1.00  0.00    -0.054 A 
HETATM   17  C13 UNL     1      21.937   0.806  53.034  1.00  0.00     0.036 A 
BRANCH  16  18
HETATM   18  C11 UNL     1      20.912  -1.191  54.112  1.00  0.00     0.070 C 
BRANCH  18  19
HETATM   19  C12 UNL     1      22.112  -0.914  54.994  1.00  0.00     0.226 C 
HETATM   20  F1  UNL     1      22.727  -2.103  55.373  1.00  0.00    -0.255 F 
ENDBRANCH  18  19
ENDBRANCH  16  18
ENDBRANCH  10  12
ENDBRANCH   5  10
BRANCH   7  21
HETATM   21  C15 UNL     1      26.729   4.018  49.336  1.00  0.00     0.110 C 
BRANCH  21  22
HETATM   22  C16 UNL     1      25.817   5.194  49.218  1.00  0.00     0.274 C 
BRANCH  22  23
HETATM   23  N5  UNL     1      26.212   6.230  50.175  1.00  0.00     0.078 N 
HETATM   24  H20 UNL     1      25.476   6.924  50.340  1.00  0.00     0.312 HD
HETATM   25  H21 UNL     1      27.159   6.585  49.974  1.00  0.00     0.312 HD
ENDBRANCH  22  23
ENDBRANCH  21  22
ENDBRANCH   7  21
BRANCH   1  26
HETATM   26  C2  UNL     1      28.924   0.910  53.408  1.00  0.00     0.127 C 
HETATM   27  C1  UNL     1      29.155  -0.538  53.729  1.00  0.00     0.027 C 
ENDBRANCH   1  26
TORSDOF 8
ENDMDL
MODEL 4
REMARK VINA RESULT:      -7.4      4.010      8.101
REMARK  8 active torsions:
REMARK  status: ('A' for Active; 'I' for Inactive)
REMARK    1  A    between atoms: C2_2  and  N1_3 
REMARK    2  A    between atoms: C5_7  and  N3_8 
REMARK    3  A    between atoms: N3_8  and  C6_9 
REMARK    4  A    between atoms: C10_13  and  C11_14 
REMARK    5  A    between atoms: C11_14  and  C12_15 
REMARK    6  A    between atoms: C14_19  and  C15_20 
REMARK    7  A    between atoms: C15_20  and  C16_21 
REMARK    8  A    between atoms: C16_21  and  N5_22 
ROOT
HETATM    1  N1  UNL     1      23.662   0.886  52.781  1.00  0.00    -0.324 N 
HETATM    2  C3  UNL     1      23.061   1.275  51.644  1.00  0.00     0.212 A 
HETATM    3  N2  UNL     1      23.980   1.873  50.866  1.00  0.00    -0.236 NA
HETATM    4  C4  UNL     1      25.152   1.877  51.475  1.00  0.00     0.150 A 
HETATM    5  C5  UNL     1      26.365   2.378  51.060  1.00  0.00     0.163 A 
HETATM    6  N4  UNL     1      27.363   2.212  51.945  1.00  0.00    -0.213 NA
HETATM    7  C14 UNL     1      27.205   1.610  53.135  1.00  0.00     0.132 A 
HETATM    8  N6  UNL     1      26.001   1.132  53.502  1.00  0.00    -0.213 NA
HETATM    9  C17 UNL     1      24.948   1.256  52.678  1.00  0.00     0.165 A 
ENDROOT
BRANCH   5  10
HETATM   10  N3  UNL     1      26.666   3.024  49.842  1.00  0.00    -0.339 N 
HETATM   11  H7  UNL     1      27.171   2.442  49.108  1.00  0.00     0.167 HD
BRANCH  10  12
HETATM   12  C6  UNL     1      26.456   4.308  49.305  1.00  0.00     0.034 A 
HETATM   13  C7  UNL     1      25.290   5.035  49.292  1.00  0.00     0.029 A 
HETATM   14  C8  UNL     1      25.139   6.307  48.784  1.00  0.00     0.003 A 
HETATM   15  C9  UNL     1      26.257   6.894  48.245  1.00  0.00     0.007 A 
HETATM   16  C10 UNL     1      27.486   6.271  48.197  1.00  0.00    -0.054 A 
HETATM   17  C13 UNL     1      27.528   5.005  48.731  1.00  0.00     0.036 A 
BRANCH  16  18
HETATM   18  C11 UNL     1      28.734   6.876  47.615  1.00  0.00     0.070 C 
BRANCH  18  19
HETATM   19  C12 UNL     1      29.886   6.058  48.164  1.00  0.00     0.226 C 
HETATM   20  F1  UNL     1      30.862   5.872  47.190  1.00  0.00    -0.255 F 
ENDBRANCH  18  19
ENDBRANCH  16  18
ENDBRANCH  10  12
ENDBRANCH   5  10
BRANCH   7  21
HETATM   21  C15 UNL     1      28.456   1.533  53.974  1.00  0.00     0.110 C 
BRANCH  21  22
HETATM   22  C16 UNL     1      28.415   0.296  54.808  1.00  0.00     0.274 C 
BRANCH  22  23
HETATM   23  N5  UNL     1      28.224  -0.877  53.952  1.00  0.00     0.078 N 
HETATM   24  H20 UNL     1      28.936  -1.601  54.101  1.00  0.00     0.312 HD
HETATM   25  H21 UNL     1      28.026  -0.603  52.979  1.00  0.00     0.312 HD
ENDBRANCH  22  23
ENDBRANCH  21  22
ENDBRANCH   7  21
BRANCH   1  26
HETATM   26  C2  UNL     1      23.044   0.204  53.898  1.00  0.00     0.127 C 
HETATM   27  C1  UNL     1      22.182  -0.921  53.405  1.00  0.00     0.027 C 
ENDBRANCH   1  26
TORSDOF 8
ENDMDL
MODEL 5
REMARK VINA RESULT:      -7.2      3.348      6.615
REMARK  8 active torsions:
REMARK  status: ('A' for Active; 'I' for Inactive)
REMARK    1  A    between atoms: C2_2  and  N1_3 
REMARK    2  A    between atoms: C5_7  and  N3_8 
REMARK    3  A    between atoms: N3_8  and  C6_9 
REMARK    4  A    between atoms: C10_13  and  C11_14 
REMARK    5  A    between atoms: C11_14  and  C12_15 
REMARK    6  A    between atoms: C14_19  and  C15_20 
REMARK    7  A    between atoms: C15_20  and  C16_21 
REMARK    8  A    between atoms: C16_21  and  N5_22 
ROOT
HETATM    1  N1  UNL     1      27.609   0.661  53.768  1.00  0.00    -0.324 N 
HETATM    2  C3  UNL     1      28.029   1.674  52.991  1.00  0.00     0.212 A 
HETATM    3  N2  UNL     1      26.967   2.169  52.334  1.00  0.00    -0.236 NA
HETATM    4  C4  UNL     1      25.878   1.500  52.668  1.00  0.00     0.150 A 
HETATM    5  C5  UNL     1      24.577   1.655  52.248  1.00  0.00     0.163 A 
HETATM    6  N4  UNL     1      23.711   0.786  52.798  1.00  0.00    -0.213 NA
HETATM    7  C14 UNL     1      24.070  -0.156  53.683  1.00  0.00     0.132 A 
HETATM    8  N6  UNL     1      25.354  -0.274  54.070  1.00  0.00    -0.213 NA
HETATM    9  C17 UNL     1      26.286   0.553  53.570  1.00  0.00     0.165 A 
ENDROOT
BRANCH   5  10
HETATM   10  N3  UNL     1      24.069   2.602  51.332  1.00  0.00    -0.339 N 
HETATM   11  H7  UNL     1      23.338   2.251  50.643  1.00  0.00     0.167 HD
BRANCH  10  12
HETATM   12  C6  UNL     1      24.280   3.970  51.078  1.00  0.00     0.034 A 
HETATM   13  C7  UNL     1      23.646   5.042  51.660  1.00  0.00     0.029 A 
HETATM   14  C8  UNL     1      23.909   6.370  51.404  1.00  0.00     0.003 A 
HETATM   15  C9  UNL     1      24.894   6.638  50.486  1.00  0.00     0.007 A 
HETATM   16  C10 UNL     1      25.605   5.654  49.833  1.00  0.00    -0.054 A 
HETATM   17  C13 UNL     1      25.264   4.363  50.161  1.00  0.00     0.036 A 
BRANCH  16  18
HETATM   18  C11 UNL     1      26.690   5.904  48.821  1.00  0.00     0.070 C 
BRANCH  18  19
HETATM   19  C12 UNL     1      27.494   4.622  48.751  1.00  0.00     0.226 C 
HETATM   20  F1  UNL     1      28.655   4.812  48.008  1.00  0.00    -0.255 F 
ENDBRANCH  18  19
ENDBRANCH  16  18
ENDBRANCH  10  12
ENDBRANCH   5  10
BRANCH   7  21
HETATM   21  C15 UNL     1      22.939  -1.027  54.171  1.00  0.00     0.110 C 
BRANCH  21  22
HETATM   22  C16 UNL     1      21.699  -0.204  54.290  1.00  0.00     0.274 C 
BRANCH  22  23
HETATM   23  N5  UNL     1      20.519  -1.069  54.234  1.00  0.00     0.078 N 
HETATM   24  H20 UNL     1      19.638  -0.545  54.233  1.00  0.00     0.312 HD
HETATM   25  H21 UNL     1      20.599  -1.856  54.895  1.00  0.00     0.312 HD
ENDBRANCH  22  23
ENDBRANCH  21  22
ENDBRANCH   7  21
BRANCH   1  26
HETATM   26  C2  UNL     1      28.423  -0.153  54.644  1.00  0.00     0.127 C 
HETATM   27  C1  UNL     1      29.619  -0.675  53.904  1.00  0.00     0.027 C 
ENDBRANCH   1  26
TORSDOF 8
ENDMDL
MODEL 6
REMARK VINA RESULT:      -7.2      4.191      6.903
REMARK  8 active torsions:
REMARK  status: ('A' for Active; 'I' for Inactive)
REMARK    1  A    between atoms: C2_2  and  N1_3 
REMARK    2  A    between atoms: C5_7  and  N3_8 
REMARK    3  A    between atoms: N3_8  and  C6_9 
REMARK    4  A    between atoms: C10_13  and  C11_14 
REMARK    5  A    between atoms: C11_14  and  C12_15 
REMARK    6  A    between atoms: C14_19  and  C15_20 
REMARK    7  A    between atoms: C15_20  and  C16_21 
REMARK    8  A    between atoms: C16_21  and  N5_22 
ROOT
HETATM    1  N1  UNL     1      26.982   6.321  48.438  1.00  0.00    -0.324 N 
HETATM    2  C3  UNL     1      28.021   5.491  48.243  1.00  0.00     0.212 A 
HETATM    3  N2  UNL     1      27.794   4.362  48.936  1.00  0.00    -0.236 NA
HETATM    4  C4  UNL     1      26.638   4.447  49.570  1.00  0.00     0.150 A 
HETATM    5  C5  UNL     1      26.007   3.541  50.390  1.00  0.00     0.163 A 
HETATM    6  N4  UNL     1      24.826   3.962  50.875  1.00  0.00    -0.213 NA
HETATM    7  C14 UNL     1      24.295   5.162  50.591  1.00  0.00     0.132 A 
HETATM    8  N6  UNL     1      24.944   6.020  49.782  1.00  0.00    -0.213 NA
HETATM    9  C17 UNL     1      26.131   5.680  49.254  1.00  0.00     0.165 A 
ENDROOT
BRANCH   5  10
HETATM   10  N3  UNL     1      26.451   2.253  50.763  1.00  0.00    -0.339 N 
HETATM   11  H7  UNL     1      27.093   1.755  50.076  1.00  0.00     0.167 HD
BRANCH  10  12
HETATM   12  C6  UNL     1      26.263   1.406  51.871  1.00  0.00     0.034 A 
HETATM   13  C7  UNL     1      25.123   0.728  52.229  1.00  0.00     0.029 A 
HETATM   14  C8  UNL     1      24.994  -0.120  53.307  1.00  0.00     0.003 A 
HETATM   15  C9  UNL     1      26.109  -0.299  54.089  1.00  0.00     0.007 A 
HETATM   16  C10 UNL     1      27.313   0.323  53.838  1.00  0.00    -0.054 A 
HETATM   17  C13 UNL     1      27.334   1.148  52.738  1.00  0.00     0.036 A 
BRANCH  16  18
HETATM   18  C11 UNL     1      28.556   0.157  54.668  1.00  0.00     0.070 C 
BRANCH  18  19
HETATM   19  C12 UNL     1      29.460  -0.770  53.881  1.00  0.00     0.226 C 
HETATM   20  F1  UNL     1      30.497  -0.057  53.288  1.00  0.00    -0.255 F 
ENDBRANCH  18  19
ENDBRANCH  16  18
ENDBRANCH  10  12
ENDBRANCH   5  10
BRANCH   7  21
HETATM   21  C15 UNL     1      22.963   5.432  51.244  1.00  0.00     0.110 C 
BRANCH  21  22
HETATM   22  C16 UNL     1      22.914   4.744  52.568  1.00  0.00     0.274 C 
BRANCH  22  23
HETATM   23  N5  UNL     1      23.892   5.343  53.479  1.00  0.00     0.078 N 
HETATM   24  H20 UNL     1      24.820   4.912  53.410  1.00  0.00     0.312 HD
HETATM   25  H21 UNL     1      23.498   5.467  54.423  1.00  0.00     0.312 HD
ENDBRANCH  22  23
ENDBRANCH  21  22
ENDBRANCH   7  21
BRANCH   1  26
HETATM   26  C2  UNL     1      26.815   7.645  47.879  1.00  0.00     0.127 C 
HETATM   27  C1  UNL     1      27.929   8.543  48.331  1.00  0.00     0.027 C 
ENDBRANCH   1  26
TORSDOF 8
ENDMDL
MODEL 7
REMARK VINA RESULT:      -7.1      2.200      5.835
REMARK  8 active torsions:
REMARK  status: ('A' for Active; 'I' for Inactive)
REMARK    1  A    between atoms: C2_2  and  N1_3 
REMARK    2  A    between atoms: C5_7  and  N3_8 
REMARK    3  A    between atoms: N3_8  and  C6_9 
REMARK    4  A    between atoms: C10_13  and  C11_14 
REMARK    5  A    between atoms: C11_14  and  C12_15 
REMARK    6  A    between atoms: C14_19  and  C15_20 
REMARK    7  A    between atoms: C15_20  and  C16_21 
REMARK    8  A    between atoms: C16_21  and  N5_22 
ROOT
HETATM    1  N1  UNL     1      23.177  -0.155  53.805  1.00  0.00    -0.324 N 
HETATM    2  C3  UNL     1      22.462   0.919  53.431  1.00  0.00     0.212 A 
HETATM    3  N2  UNL     1      23.287   1.775  52.802  1.00  0.00    -0.236 NA
HETATM    4  C4  UNL     1      24.510   1.277  52.765  1.00  0.00     0.150 A 
HETATM    5  C5  UNL     1      25.664   1.800  52.229  1.00  0.00     0.163 A 
HETATM    6  N4  UNL     1      26.746   1.015  52.374  1.00  0.00    -0.213 NA
HETATM    7  C14 UNL     1      26.717  -0.180  52.986  1.00  0.00     0.132 A 
HETATM    8  N6  UNL     1      25.565  -0.656  53.496  1.00  0.00    -0.213 NA
HETATM    9  C17 UNL     1      24.437   0.064  53.396  1.00  0.00     0.165 A 
ENDROOT
BRANCH   5  10
HETATM   10  N3  UNL     1      25.829   3.031  51.560  1.00  0.00    -0.339 N 
HETATM   11  H7  UNL     1      26.674   3.615  51.840  1.00  0.00     0.167 HD
BRANCH  10  12
HETATM   12  C6  UNL     1      25.135   3.732  50.555  1.00  0.00     0.034 A 
HETATM   13  C7  UNL     1      25.370   5.009  50.103  1.00  0.00     0.029 A 
HETATM   14  C8  UNL     1      24.685   5.644  49.091  1.00  0.00     0.003 A 
HETATM   15  C9  UNL     1      23.680   4.932  48.484  1.00  0.00     0.007 A 
HETATM   16  C10 UNL     1      23.346   3.644  48.843  1.00  0.00    -0.054 A 
HETATM   17  C13 UNL     1      24.091   3.103  49.864  1.00  0.00     0.036 A 
BRANCH  16  18
HETATM   18  C11 UNL     1      22.253   2.830  48.206  1.00  0.00     0.070 C 
BRANCH  18  19
HETATM   19  C12 UNL     1      22.077   1.610  49.088  1.00  0.00     0.226 C 
HETATM   20  F1  UNL     1      21.248   0.677  48.474  1.00  0.00    -0.255 F 
ENDBRANCH  18  19
ENDBRANCH  16  18
ENDBRANCH  10  12
ENDBRANCH   5  10
BRANCH   7  21
HETATM   21  C15 UNL     1      28.045  -0.893  53.041  1.00  0.00     0.110 C 
BRANCH  21  22
HETATM   22  C16 UNL     1      28.844  -0.359  54.183  1.00  0.00     0.274 C 
BRANCH  22  23
HETATM   23  N5  UNL     1      28.009   0.514  55.011  1.00  0.00     0.078 N 
HETATM   24  H20 UNL     1      27.886   1.449  54.609  1.00  0.00     0.312 HD
HETATM   25  H21 UNL     1      28.280   0.459  56.004  1.00  0.00     0.312 HD
ENDBRANCH  22  23
ENDBRANCH  21  22
ENDBRANCH   7  21
BRANCH   1  26
HETATM   26  C2  UNL     1      22.686  -1.319  54.511  1.00  0.00     0.127 C 
HETATM   27  C1  UNL     1      21.217  -1.496  54.259  1.00  0.00     0.027 C 
ENDBRANCH   1  26
TORSDOF 8
ENDMDL
MODEL 8
REMARK VINA RESULT:      -7.1      3.687      7.805
REMARK  8 active torsions:
REMARK  status: ('A' for Active; 'I' for Inactive)
REMARK    1  A    between atoms: C2_2  and  N1_3 
REMARK    2  A    between atoms: C5_7  and  N3_8 
REMARK    3  A    between atoms: N3_8  and  C6_9 
REMARK    4  A    between atoms: C10_13  and  C11_14 
REMARK    5  A    between atoms: C11_14  and  C12_15 
REMARK    6  A    between atoms: C14_19  and  C15_20 
REMARK    7  A    between atoms: C15_20  and  C16_21 
REMARK    8  A    between atoms: C16_21  and  N5_22 
ROOT
HETATM    1  N1  UNL     1      23.623   0.585  52.722  1.00  0.00    -0.324 N 
HETATM    2  C3  UNL     1      22.762   1.059  51.806  1.00  0.00     0.212 A 
HETATM    3  N2  UNL     1      23.428   1.905  51.000  1.00  0.00    -0.236 NA
HETATM    4  C4  UNL     1      24.691   1.985  51.377  1.00  0.00     0.150 A 
HETATM    5  C5  UNL     1      25.728   2.721  50.852  1.00  0.00     0.163 A 
HETATM    6  N4  UNL     1      26.899   2.565  51.494  1.00  0.00    -0.213 NA
HETATM    7  C14 UNL     1      27.057   1.763  52.559  1.00  0.00     0.132 A 
HETATM    8  N6  UNL     1      26.016   1.058  53.041  1.00  0.00    -0.213 NA
HETATM    9  C17 UNL     1      24.810   1.155  52.459  1.00  0.00     0.165 A 
ENDROOT
BRANCH   5  10
HETATM   10  N3  UNL     1      25.698   3.593  49.742  1.00  0.00    -0.339 N 
HETATM   11  H7  UNL     1      24.860   3.504  49.091  1.00  0.00     0.167 HD
BRANCH  10  12
HETATM   12  C6  UNL     1      26.528   4.613  49.240  1.00  0.00     0.034 A 
HETATM   13  C7  UNL     1      27.813   4.496  48.766  1.00  0.00     0.029 A 
HETATM   14  C8  UNL     1      28.578   5.520  48.252  1.00  0.00     0.003 A 
HETATM   15  C9  UNL     1      27.999   6.764  48.212  1.00  0.00     0.007 A 
HETATM   16  C10 UNL     1      26.719   7.014  48.656  1.00  0.00    -0.054 A 
HETATM   17  C13 UNL     1      26.041   5.924  49.150  1.00  0.00     0.036 A 
BRANCH  16  18
HETATM   18  C11 UNL     1      26.047   8.360  48.631  1.00  0.00     0.070 C 
BRANCH  18  19
HETATM   19  C12 UNL     1      25.946   8.800  50.078  1.00  0.00     0.226 C 
HETATM   20  F1  UNL     1      27.211   8.905  50.646  1.00  0.00    -0.255 F 
ENDBRANCH  18  19
ENDBRANCH  16  18
ENDBRANCH  10  12
ENDBRANCH   5  10
BRANCH   7  21
HETATM   21  C15 UNL     1      28.453   1.738  53.129  1.00  0.00     0.110 C 
BRANCH  21  22
HETATM   22  C16 UNL     1      28.468   0.899  54.362  1.00  0.00     0.274 C 
BRANCH  22  23
HETATM   23  N5  UNL     1      28.423  -0.520  54.000  1.00  0.00     0.078 N 
HETATM   24  H20 UNL     1      27.875  -1.084  54.658  1.00  0.00     0.312 HD
HETATM   25  H21 UNL     1      29.357  -0.871  53.743  1.00  0.00     0.312 HD
ENDBRANCH  22  23
ENDBRANCH  21  22
ENDBRANCH   7  21
BRANCH   1  26
HETATM   26  C2  UNL     1      23.329  -0.352  53.784  1.00  0.00     0.127 C 
HETATM   27  C1  UNL     1      22.035  -1.060  53.506  1.00  0.00     0.027 C 
ENDBRANCH   1  26
TORSDOF 8
ENDMDL
MODEL 9
REMARK VINA RESULT:      -7.0      3.471      6.886
REMARK  8 active torsions:
REMARK  status: ('A' for Active; 'I' for Inactive)
REMARK    1  A    between atoms: C2_2  and  N1_3 
REMARK    2  A    between atoms: C5_7  and  N3_8 
REMARK    3  A    between atoms: N3_8  and  C6_9 
REMARK    4  A    between atoms: C10_13  and  C11_14 
REMARK    5  A    between atoms: C11_14  and  C12_15 
REMARK    6  A    between atoms: C14_19  and  C15_20 
REMARK    7  A    between atoms: C15_20  and  C16_21 
REMARK    8  A    between atoms: C16_21  and  N5_22 
ROOT
HETATM    1  N1  UNL     1      21.203  -0.141  53.510  1.00  0.00    -0.324 N 
HETATM    2  C3  UNL     1      22.049  -1.184  53.564  1.00  0.00     0.212 A 
HETATM    3  N2  UNL     1      23.229  -0.796  53.051  1.00  0.00    -0.236 NA
HETATM    4  C4  UNL     1      23.161   0.467  52.670  1.00  0.00     0.150 A 
HETATM    5  C5  UNL     1      24.117   1.273  52.096  1.00  0.00     0.163 A 
HETATM    6  N4  UNL     1      23.700   2.523  51.831  1.00  0.00    -0.213 NA
HETATM    7  C14 UNL     1      22.460   2.962  52.098  1.00  0.00     0.132 A 
HETATM    8  N6  UNL     1      21.554   2.141  52.662  1.00  0.00    -0.213 NA
HETATM    9  C17 UNL     1      21.886   0.875  52.960  1.00  0.00     0.165 A 
ENDROOT
BRANCH   5  10
HETATM   10  N3  UNL     1      25.450   0.941  51.770  1.00  0.00    -0.339 N 
HETATM   11  H7  UNL     1      25.887   1.473  50.959  1.00  0.00     0.167 HD
BRANCH  10  12
HETATM   12  C6  UNL     1      26.413   0.043  52.267  1.00  0.00     0.034 A 
HETATM   13  C7  UNL     1      26.401  -1.330  52.198  1.00  0.00     0.029 A 
HETATM   14  C8  UNL     1      27.386  -2.170  52.669  1.00  0.00     0.003 A 
HETATM   15  C9  UNL     1      28.473  -1.575  53.261  1.00  0.00     0.007 A 
HETATM   16  C10 UNL     1      28.607  -0.210  53.393  1.00  0.00    -0.054 A 
HETATM   17  C13 UNL     1      27.568   0.537  52.889  1.00  0.00     0.036 A 
BRANCH  16  18
HETATM   18  C11 UNL     1      29.779   0.481  54.034  1.00  0.00     0.070 C 
BRANCH  18  19
HETATM   19  C12 UNL     1      29.344   1.916  54.256  1.00  0.00     0.226 C 
HETATM   20  F1  UNL     1      30.160   2.535  55.198  1.00  0.00    -0.255 F 
ENDBRANCH  18  19
ENDBRANCH  16  18
ENDBRANCH  10  12
ENDBRANCH   5  10
BRANCH   7  21
HETATM   21  C15 UNL     1      22.203   4.398  51.716  1.00  0.00     0.110 C 
BRANCH  21  22
HETATM   22  C16 UNL     1      23.468   5.178  51.850  1.00  0.00     0.274 C 
BRANCH  22  23
HETATM   23  N5  UNL     1      23.844   5.280  53.262  1.00  0.00     0.078 N 
HETATM   24  H20 UNL     1      23.783   4.385  53.758  1.00  0.00     0.312 HD
HETATM   25  H21 UNL     1      23.405   6.098  53.709  1.00  0.00     0.312 HD
ENDBRANCH  22  23
ENDBRANCH  21  22
ENDBRANCH   7  21
BRANCH   1  26
HETATM   26  C2  UNL     1      19.826  -0.118  53.955  1.00  0.00     0.127 C 
HETATM   27  C1  UNL     1      18.930  -0.691  52.896  1.00  0.00     0.027 C 
ENDBRANCH   1  26
TORSDOF 8
ENDMDL
