MODEL 1
REMARK VINA RESULT:      -8.6      0.000      0.000
REMARK  7 active torsions:
REMARK  status: ('A' for Active; 'I' for Inactive)
REMARK    1  A    between atoms: C6_6  and  C7_7 
REMARK    2  A    between atoms: C7_7  and  N1_8 
REMARK    3  A    between atoms: N1_8  and  C8_9 
REMARK    4  A    between atoms: C8_9  and  C9_10 
REMARK    5  A    between atoms: C15_17  and  N2_18 
REMARK    6  A    between atoms: N2_18  and  C16_19 
REMARK    7  A    between atoms: C19_23  and  C20_24 
ROOT
HETATM    1  C1  UNL     1      22.108   5.971  48.193  1.00  0.00     0.020 C 
HETATM    2  C2  UNL     1      22.349   5.239  49.492  1.00  0.00     0.054 C 
HETATM    3  C3  UNL     1      22.537   6.146  50.638  1.00  0.00    -0.020 C 
HETATM    4  C4  UNL     1      23.802   6.433  51.001  1.00  0.00    -0.026 C 
HETATM    5  C5  UNL     1      24.975   5.862  50.279  1.00  0.00     0.065 C 
HETATM    6  C6  UNL     1      24.664   4.525  49.719  1.00  0.00    -0.025 C 
HETATM    7  C15 UNL     1      23.418   4.238  49.349  1.00  0.00     0.038 C 
ENDROOT
BRANCH   7   8
HETATM    8  N2  UNL     1      23.250   2.925  48.828  1.00  0.00    -0.191 N 
HETATM    9  H18 UNL     1      23.746   2.513  48.025  1.00  0.00     0.184 HD
BRANCH   8  10
HETATM   10  C16 UNL     1      22.293   2.127  49.511  1.00  0.00     0.727 A 
HETATM   11  N3  UNL     1      21.046   2.010  48.969  1.00  0.00    -0.075 NA
HETATM   12  C17 UNL     1      20.103   1.254  49.597  1.00  0.00     0.139 A 
HETATM   13  C18 UNL     1      20.520   0.648  50.775  1.00  0.00     0.053 A 
HETATM   14  C19 UNL     1      21.779   0.764  51.326  1.00  0.00     0.089 A 
HETATM   15  N5  UNL     1      22.679   1.534  50.652  1.00  0.00    -0.062 NA
BRANCH  14  16
HETATM   16  C20 UNL     1      22.133   0.093  52.571  1.00  0.00     0.011 A 
HETATM   17  C21 UNL     1      23.388  -0.028  53.131  1.00  0.00     0.017 A 
HETATM   18  C22 UNL     1      23.566  -0.698  54.324  1.00  0.00     0.020 A 
HETATM   19  C23 UNL     1      22.515  -1.277  55.016  1.00  0.00     0.116 A 
HETATM   20  N4  UNL     1      21.274  -1.159  54.464  1.00  0.00    -0.272 NA
HETATM   21  C24 UNL     1      21.104  -0.503  53.297  1.00  0.00     0.130 A 
ENDBRANCH  14  16
ENDBRANCH   8  10
ENDBRANCH   7   8
BRANCH   6  22
HETATM   22  C7  UNL     1      25.863   3.631  49.643  1.00  0.00     0.306 C 
BRANCH  22  23
HETATM   23  N1  UNL     1      26.521   3.500  50.933  1.00  0.00     0.091 N 
HETATM   24  H11 UNL     1      26.425   4.372  51.501  1.00  0.00     0.316 HD
BRANCH  23  25
HETATM   25  C8  UNL     1      25.937   2.409  51.696  1.00  0.00     0.308 C 
BRANCH  25  26
HETATM   26  C9  UNL     1      26.967   1.530  52.313  1.00  0.00    -0.030 A 
HETATM   27  C10 UNL     1      28.090   2.001  52.979  1.00  0.00     0.010 A 
HETATM   28  C11 UNL     1      29.003   1.103  53.527  1.00  0.00     0.024 A 
HETATM   29  C12 UNL     1      28.800  -0.252  53.414  1.00  0.00     0.034 A 
HETATM   30 CL1  UNL     1      29.939  -1.415  54.098  1.00  0.00    -0.084 Cl
HETATM   31  C13 UNL     1      27.693  -0.765  52.757  1.00  0.00     0.024 A 
HETATM   32  C14 UNL     1      26.813   0.150  52.229  1.00  0.00     0.010 A 
ENDBRANCH  25  26
ENDBRANCH  23  25
ENDBRANCH  22  23
ENDBRANCH   6  22
TORSDOF 7
ENDMDL
MODEL 2
REMARK VINA RESULT:      -8.4      1.996      5.626
REMARK  7 active torsions:
REMARK  status: ('A' for Active; 'I' for Inactive)
REMARK    1  A    between atoms: C6_6  and  C7_7 
REMARK    2  A    between atoms: C7_7  and  N1_8 
REMARK    3  A    between atoms: N1_8  and  C8_9 
REMARK    4  A    between atoms: C8_9  and  C9_10 
REMARK    5  A    between atoms: C15_17  and  N2_18 
REMARK    6  A    between atoms: N2_18  and  C16_19 
REMARK    7  A    between atoms: C19_23  and  C20_24 
ROOT
HETATM    1  C1  UNL     1      19.171   3.114  50.520  1.00  0.00     0.020 C 
HETATM    2  C2  UNL     1      20.621   3.077  50.099  1.00  0.00     0.054 C 
HETATM    3  C3  UNL     1      20.888   2.083  49.044  1.00  0.00    -0.020 C 
HETATM    4  C4  UNL     1      21.359   0.881  49.429  1.00  0.00    -0.026 C 
HETATM    5  C5  UNL     1      21.605   0.557  50.863  1.00  0.00     0.065 C 
HETATM    6  C6  UNL     1      21.982   1.766  51.632  1.00  0.00    -0.025 C 
HETATM    7  C15 UNL     1      21.511   2.956  51.264  1.00  0.00     0.038 C 
ENDROOT
BRANCH   7   8
HETATM    8  N2  UNL     1      21.946   4.036  52.082  1.00  0.00    -0.191 N 
HETATM    9  H18 UNL     1      21.871   4.102  53.106  1.00  0.00     0.184 HD
BRANCH   8  10
HETATM   10  C16 UNL     1      22.542   5.117  51.379  1.00  0.00     0.727 A 
HETATM   11  N3  UNL     1      21.854   6.294  51.301  1.00  0.00    -0.075 NA
HETATM   12  C17 UNL     1      22.395   7.352  50.635  1.00  0.00     0.139 A 
HETATM   13  C18 UNL     1      23.647   7.122  50.078  1.00  0.00     0.053 A 
HETATM   14  C19 UNL     1      24.345   5.935  50.156  1.00  0.00     0.089 A 
HETATM   15  N5  UNL     1      23.752   4.913  50.835  1.00  0.00    -0.062 NA
BRANCH  14  16
HETATM   16  C20 UNL     1      25.658   5.780  49.539  1.00  0.00     0.011 A 
HETATM   17  C21 UNL     1      26.428   6.762  48.952  1.00  0.00     0.017 A 
HETATM   18  C22 UNL     1      27.660   6.460  48.406  1.00  0.00     0.020 A 
HETATM   19  C23 UNL     1      28.184   5.178  48.418  1.00  0.00     0.116 A 
HETATM   20  N4  UNL     1      27.424   4.206  48.999  1.00  0.00    -0.272 NA
HETATM   21  C24 UNL     1      26.220   4.506  49.531  1.00  0.00     0.130 A 
ENDBRANCH  14  16
ENDBRANCH   8  10
ENDBRANCH   7   8
BRANCH   6  22
HETATM   22  C7  UNL     1      22.892   1.466  52.784  1.00  0.00     0.306 C 
BRANCH  22  23
HETATM   23  N1  UNL     1      23.450   0.127  52.695  1.00  0.00     0.091 N 
HETATM   24  H11 UNL     1      24.199   0.073  51.968  1.00  0.00     0.316 HD
BRANCH  23  25
HETATM   25  C8  UNL     1      24.035  -0.268  53.965  1.00  0.00     0.308 C 
BRANCH  25  26
HETATM   26  C9  UNL     1      25.522  -0.301  53.921  1.00  0.00    -0.030 A 
HETATM   27  C10 UNL     1      26.339   0.245  54.901  1.00  0.00     0.010 A 
HETATM   28  C11 UNL     1      27.725   0.167  54.777  1.00  0.00     0.024 A 
HETATM   29  C12 UNL     1      28.292  -0.450  53.687  1.00  0.00     0.034 A 
HETATM   30 CL1  UNL     1      30.044  -0.565  53.501  1.00  0.00    -0.084 Cl
HETATM   31  C13 UNL     1      27.514  -1.008  52.685  1.00  0.00     0.024 A 
HETATM   32  C14 UNL     1      26.151  -0.913  52.841  1.00  0.00     0.010 A 
ENDBRANCH  25  26
ENDBRANCH  23  25
ENDBRANCH  22  23
ENDBRANCH   6  22
TORSDOF 7
ENDMDL
MODEL 3
REMARK VINA RESULT:      -8.3      2.134      6.054
REMARK  7 active torsions:
REMARK  status: ('A' for Active; 'I' for Inactive)
REMARK    1  A    between atoms: C6_6  and  C7_7 
REMARK    2  A    between atoms: C7_7  and  N1_8 
REMARK    3  A    between atoms: N1_8  and  C8_9 
REMARK    4  A    between atoms: C8_9  and  C9_10 
REMARK    5  A    between atoms: C15_17  and  N2_18 
REMARK    6  A    between atoms: N2_18  and  C16_19 
REMARK    7  A    between atoms: C19_23  and  C20_24 
ROOT
HETATM    1  C1  UNL     1      20.348   4.089  49.931  1.00  0.00     0.020 C 
HETATM    2  C2  UNL     1      21.500   3.139  49.701  1.00  0.00     0.054 C 
HETATM    3  C3  UNL     1      21.148   2.009  48.823  1.00  0.00    -0.020 C 
HETATM    4  C4  UNL     1      20.801   0.849  49.414  1.00  0.00    -0.026 C 
HETATM    5  C5  UNL     1      20.772   0.702  50.897  1.00  0.00     0.065 C 
HETATM    6  C6  UNL     1      21.777   1.577  51.545  1.00  0.00    -0.025 C 
HETATM    7  C15 UNL     1      22.116   2.730  50.972  1.00  0.00     0.038 C 
ENDROOT
BRANCH   7   8
HETATM    8  N2  UNL     1      23.090   3.478  51.692  1.00  0.00    -0.191 N 
HETATM    9  H18 UNL     1      22.946   3.986  52.575  1.00  0.00     0.184 HD
BRANCH   8  10
HETATM   10  C16 UNL     1      24.383   3.501  51.103  1.00  0.00     0.727 A 
HETATM   11  N3  UNL     1      25.226   2.457  51.355  1.00  0.00    -0.075 NA
HETATM   12  C17 UNL     1      26.473   2.446  50.807  1.00  0.00     0.139 A 
HETATM   13  C18 UNL     1      26.778   3.542  50.011  1.00  0.00     0.053 A 
HETATM   14  C19 UNL     1      25.929   4.599  49.754  1.00  0.00     0.089 A 
HETATM   15  N5  UNL     1      24.695   4.553  50.330  1.00  0.00    -0.062 NA
BRANCH  14  16
HETATM   16  C20 UNL     1      26.332   5.713  48.904  1.00  0.00     0.011 A 
HETATM   17  C21 UNL     1      27.604   6.010  48.460  1.00  0.00     0.017 A 
HETATM   18  C22 UNL     1      27.831   7.108  47.655  1.00  0.00     0.020 A 
HETATM   19  C23 UNL     1      26.815   7.958  47.253  1.00  0.00     0.116 A 
HETATM   20  N4  UNL     1      25.557   7.667  47.691  1.00  0.00    -0.272 NA
HETATM   21  C24 UNL     1      25.340   6.592  48.478  1.00  0.00     0.130 A 
ENDBRANCH  14  16
ENDBRANCH   8  10
ENDBRANCH   7   8
BRANCH   6  22
HETATM   22  C7  UNL     1      22.303   1.012  52.829  1.00  0.00     0.306 C 
BRANCH  22  23
HETATM   23  N1  UNL     1      23.479   0.185  52.612  1.00  0.00     0.091 N 
HETATM   24  H11 UNL     1      24.191   0.679  52.028  1.00  0.00     0.316 HD
BRANCH  23  25
HETATM   25  C8  UNL     1      24.105  -0.155  53.879  1.00  0.00     0.308 C 
BRANCH  25  26
HETATM   26  C9  UNL     1      25.576  -0.338  53.757  1.00  0.00    -0.030 A 
HETATM   27  C10 UNL     1      26.183  -1.106  52.772  1.00  0.00     0.010 A 
HETATM   28  C11 UNL     1      27.572  -1.221  52.734  1.00  0.00     0.024 A 
HETATM   29  C12 UNL     1      28.349  -0.576  53.667  1.00  0.00     0.034 A 
HETATM   30 CL1  UNL     1      30.110  -0.702  53.645  1.00  0.00    -0.084 Cl
HETATM   31  C13 UNL     1      27.784   0.200  54.667  1.00  0.00     0.024 A 
HETATM   32  C14 UNL     1      26.412   0.291  54.674  1.00  0.00     0.010 A 
ENDBRANCH  25  26
ENDBRANCH  23  25
ENDBRANCH  22  23
ENDBRANCH   6  22
TORSDOF 7
ENDMDL
MODEL 4
REMARK VINA RESULT:      -8.3      4.766      6.241
REMARK  7 active torsions:
REMARK  status: ('A' for Active; 'I' for Inactive)
REMARK    1  A    between atoms: C6_6  and  C7_7 
REMARK    2  A    between atoms: C7_7  and  N1_8 
REMARK    3  A    between atoms: N1_8  and  C8_9 
REMARK    4  A    between atoms: C8_9  and  C9_10 
REMARK    5  A    between atoms: C15_17  and  N2_18 
REMARK    6  A    between atoms: N2_18  and  C16_19 
REMARK    7  A    between atoms: C19_23  and  C20_24 
ROOT
HETATM    1  C1  UNL     1      24.417   6.467  48.378  1.00  0.00     0.020 C 
HETATM    2  C2  UNL     1      25.455   6.332  49.466  1.00  0.00     0.054 C 
HETATM    3  C3  UNL     1      25.690   7.590  50.196  1.00  0.00    -0.020 C 
HETATM    4  C4  UNL     1      26.737   8.345  49.811  1.00  0.00    -0.026 C 
HETATM    5  C5  UNL     1      27.632   7.933  48.691  1.00  0.00     0.065 C 
HETATM    6  C6  UNL     1      27.719   6.458  48.587  1.00  0.00    -0.025 C 
HETATM    7  C15 UNL     1      26.684   5.707  48.956  1.00  0.00     0.038 C 
ENDROOT
BRANCH   7   8
HETATM    8  N2  UNL     1      26.894   4.307  48.807  1.00  0.00    -0.191 N 
HETATM    9  H18 UNL     1      27.426   3.840  48.060  1.00  0.00     0.184 HD
BRANCH   8  10
HETATM   10  C16 UNL     1      26.296   3.502  49.814  1.00  0.00     0.727 A 
HETATM   11  N3  UNL     1      24.950   3.279  49.746  1.00  0.00    -0.075 NA
HETATM   12  C17 UNL     1      24.342   2.512  50.693  1.00  0.00     0.139 A 
HETATM   13  C18 UNL     1      25.185   2.009  51.676  1.00  0.00     0.053 A 
HETATM   14  C19 UNL     1      26.545   2.231  51.747  1.00  0.00     0.089 A 
HETATM   15  N5  UNL     1      27.096   3.006  50.771  1.00  0.00    -0.062 NA
BRANCH  14  16
HETATM   16  C20 UNL     1      27.356   1.663  52.817  1.00  0.00     0.011 A 
HETATM   17  C21 UNL     1      28.458   2.229  53.423  1.00  0.00     0.017 A 
HETATM   18  C22 UNL     1      29.128   1.563  54.430  1.00  0.00     0.020 A 
HETATM   19  C23 UNL     1      28.740   0.313  54.882  1.00  0.00     0.116 A 
HETATM   20  N4  UNL     1      27.651  -0.248  54.284  1.00  0.00    -0.272 NA
HETATM   21  C24 UNL     1      26.999   0.406  53.300  1.00  0.00     0.130 A 
ENDBRANCH  14  16
ENDBRANCH   8  10
ENDBRANCH   7   8
BRANCH   6  22
HETATM   22  C7  UNL     1      29.037   5.988  48.049  1.00  0.00     0.306 C 
BRANCH  22  23
HETATM   23  N1  UNL     1      30.060   5.957  49.082  1.00  0.00     0.091 N 
HETATM   24  H11 UNL     1      30.415   4.986  49.239  1.00  0.00     0.316 HD
BRANCH  23  25
HETATM   25  C8  UNL     1      31.192   6.787  48.706  1.00  0.00     0.308 C 
BRANCH  25  26
HETATM   26  C9  UNL     1      32.171   6.061  47.853  1.00  0.00    -0.030 A 
HETATM   27  C10 UNL     1      32.744   6.592  46.705  1.00  0.00     0.010 A 
HETATM   28  C11 UNL     1      33.655   5.838  45.967  1.00  0.00     0.024 A 
HETATM   29  C12 UNL     1      33.991   4.567  46.367  1.00  0.00     0.034 A 
HETATM   30 CL1  UNL     1      35.141   3.587  45.453  1.00  0.00    -0.084 Cl
HETATM   31  C13 UNL     1      33.443   3.998  47.506  1.00  0.00     0.024 A 
HETATM   32  C14 UNL     1      32.549   4.770  48.209  1.00  0.00     0.010 A 
ENDBRANCH  25  26
ENDBRANCH  23  25
ENDBRANCH  22  23
ENDBRANCH   6  22
TORSDOF 7
ENDMDL
MODEL 5
REMARK VINA RESULT:      -8.3      3.142      7.781
REMARK  7 active torsions:
REMARK  status: ('A' for Active; 'I' for Inactive)
REMARK    1  A    between atoms: C6_6  and  C7_7 
REMARK    2  A    between atoms: C7_7  and  N1_8 
REMARK    3  A    between atoms: N1_8  and  C8_9 
REMARK    4  A    between atoms: C8_9  and  C9_10 
REMARK    5  A    between atoms: C15_17  and  N2_18 
REMARK    6  A    between atoms: N2_18  and  C16_19 
REMARK    7  A    between atoms: C19_23  and  C20_24 
ROOT
HETATM    1  C1  UNL     1      26.858   0.652  51.892  1.00  0.00     0.020 C 
HETATM    2  C2  UNL     1      25.902   1.227  52.911  1.00  0.00     0.054 C 
HETATM    3  C3  UNL     1      26.375   1.067  54.297  1.00  0.00    -0.020 C 
HETATM    4  C4  UNL     1      25.899   0.020  54.998  1.00  0.00    -0.026 C 
HETATM    5  C5  UNL     1      24.932  -0.947  54.405  1.00  0.00     0.065 C 
HETATM    6  C6  UNL     1      24.065  -0.292  53.397  1.00  0.00    -0.025 C 
HETATM    7  C15 UNL     1      24.533   0.737  52.694  1.00  0.00     0.038 C 
ENDROOT
BRANCH   7   8
HETATM    8  N2  UNL     1      23.605   1.276  51.759  1.00  0.00    -0.191 N 
HETATM    9  H18 UNL     1      22.920   0.751  51.197  1.00  0.00     0.184 HD
BRANCH   8  10
HETATM   10  C16 UNL     1      23.655   2.689  51.614  1.00  0.00     0.727 A 
HETATM   11  N3  UNL     1      22.718   3.439  52.265  1.00  0.00    -0.075 NA
HETATM   12  C17 UNL     1      22.735   4.796  52.149  1.00  0.00     0.139 A 
HETATM   13  C18 UNL     1      23.748   5.306  51.347  1.00  0.00     0.053 A 
HETATM   14  C19 UNL     1      24.696   4.553  50.687  1.00  0.00     0.089 A 
HETATM   15  N5  UNL     1      24.627   3.200  50.842  1.00  0.00    -0.062 NA
BRANCH  14  16
HETATM   16  C20 UNL     1      25.726   5.173  49.863  1.00  0.00     0.011 A 
HETATM   17  C21 UNL     1      26.770   4.547  49.215  1.00  0.00     0.017 A 
HETATM   18  C22 UNL     1      27.673   5.275  48.465  1.00  0.00     0.020 A 
HETATM   19  C23 UNL     1      27.583   6.649  48.322  1.00  0.00     0.116 A 
HETATM   20  N4  UNL     1      26.551   7.270  48.962  1.00  0.00    -0.272 NA
HETATM   21  C24 UNL     1      25.672   6.555  49.694  1.00  0.00     0.130 A 
ENDBRANCH  14  16
ENDBRANCH   8  10
ENDBRANCH   7   8
BRANCH   6  22
HETATM   22  C7  UNL     1      22.706  -0.914  53.303  1.00  0.00     0.306 C 
BRANCH  22  23
HETATM   23  N1  UNL     1      21.989  -0.836  54.566  1.00  0.00     0.091 N 
HETATM   24  H11 UNL     1      22.639  -0.651  55.363  1.00  0.00     0.316 HD
BRANCH  23  25
HETATM   25  C8  UNL     1      21.011   0.238  54.532  1.00  0.00     0.308 C 
BRANCH  25  26
HETATM   26  C9  UNL     1      20.017   0.069  53.438  1.00  0.00    -0.030 A 
HETATM   27  C10 UNL     1      19.023  -0.899  53.435  1.00  0.00     0.010 A 
HETATM   28  C11 UNL     1      18.134  -0.983  52.365  1.00  0.00     0.024 A 
HETATM   29  C12 UNL     1      18.234  -0.111  51.307  1.00  0.00     0.034 A 
HETATM   30 CL1  UNL     1      17.123  -0.192  49.937  1.00  0.00    -0.084 Cl
HETATM   31  C13 UNL     1      19.212   0.871  51.269  1.00  0.00     0.024 A 
HETATM   32  C14 UNL     1      20.071   0.924  52.341  1.00  0.00     0.010 A 
ENDBRANCH  25  26
ENDBRANCH  23  25
ENDBRANCH  22  23
ENDBRANCH   6  22
TORSDOF 7
ENDMDL
MODEL 6
REMARK VINA RESULT:      -8.3      3.249      6.555
REMARK  7 active torsions:
REMARK  status: ('A' for Active; 'I' for Inactive)
REMARK    1  A    between atoms: C6_6  and  C7_7 
REMARK    2  A    between atoms: C7_7  and  N1_8 
REMARK    3  A    between atoms: N1_8  and  C8_9 
REMARK    4  A    between atoms: C8_9  and  C9_10 
REMARK    5  A    between atoms: C15_17  and  N2_18 
REMARK    6  A    between atoms: N2_18  and  C16_19 
REMARK    7  A    between atoms: C19_23  and  C20_24 
ROOT
HETATM    1  C1  UNL     1      25.221   4.618  50.046  1.00  0.00     0.020 C 
HETATM    2  C2  UNL     1      24.406   3.353  50.178  1.00  0.00     0.054 C 
HETATM    3  C3  UNL     1      23.779   2.938  48.910  1.00  0.00    -0.020 C 
HETATM    4  C4  UNL     1      22.497   3.296  48.705  1.00  0.00    -0.026 C 
HETATM    5  C5  UNL     1      21.730   4.081  49.714  1.00  0.00     0.065 C 
HETATM    6  C6  UNL     1      22.193   3.786  51.091  1.00  0.00    -0.025 C 
HETATM    7  C15 UNL     1      23.461   3.442  51.302  1.00  0.00     0.038 C 
ENDROOT
BRANCH   7   8
HETATM    8  N2  UNL     1      23.779   3.185  52.665  1.00  0.00    -0.191 N 
HETATM    9  H18 UNL     1      23.762   3.862  53.440  1.00  0.00     0.184 HD
BRANCH   8  10
HETATM   10  C16 UNL     1      24.154   1.844  52.950  1.00  0.00     0.727 A 
HETATM   11  N3  UNL     1      23.164   0.920  53.121  1.00  0.00    -0.075 NA
HETATM   12  C17 UNL     1      23.485  -0.375  53.395  1.00  0.00     0.139 A 
HETATM   13  C18 UNL     1      24.846  -0.641  53.475  1.00  0.00     0.053 A 
HETATM   14  C19 UNL     1      25.849   0.290  53.302  1.00  0.00     0.089 A 
HETATM   15  N5  UNL     1      25.465   1.569  53.030  1.00  0.00    -0.062 NA
BRANCH  14  16
HETATM   16  C20 UNL     1      27.257  -0.077  53.405  1.00  0.00     0.011 A 
HETATM   17  C21 UNL     1      28.322   0.756  53.678  1.00  0.00     0.017 A 
HETATM   18  C22 UNL     1      29.608   0.258  53.743  1.00  0.00     0.020 A 
HETATM   19  C23 UNL     1      29.898  -1.081  53.542  1.00  0.00     0.116 A 
HETATM   20  N4  UNL     1      28.846  -1.906  53.272  1.00  0.00    -0.272 NA
HETATM   21  C24 UNL     1      27.591  -1.415  53.209  1.00  0.00     0.130 A 
ENDBRANCH  14  16
ENDBRANCH   8  10
ENDBRANCH   7   8
BRANCH   6  22
HETATM   22  C7  UNL     1      21.107   3.924  52.114  1.00  0.00     0.306 C 
BRANCH  22  23
HETATM   23  N1  UNL     1      20.631   2.628  52.571  1.00  0.00     0.091 N 
HETATM   24  H11 UNL     1      20.166   2.700  53.505  1.00  0.00     0.316 HD
BRANCH  23  25
HETATM   25  C8  UNL     1      19.663   2.081  51.636  1.00  0.00     0.308 C 
BRANCH  25  26
HETATM   26  C9  UNL     1      19.069   0.803  52.113  1.00  0.00    -0.030 A 
HETATM   27  C10 UNL     1      17.831   0.323  51.708  1.00  0.00     0.010 A 
HETATM   28  C11 UNL     1      17.353  -0.886  52.209  1.00  0.00     0.024 A 
HETATM   29  C12 UNL     1      18.102  -1.612  53.105  1.00  0.00     0.034 A 
HETATM   30 CL1  UNL     1      17.524  -3.148  53.757  1.00  0.00    -0.084 Cl
HETATM   31  C13 UNL     1      19.342  -1.171  53.536  1.00  0.00     0.024 A 
HETATM   32  C14 UNL     1      19.782   0.026  53.021  1.00  0.00     0.010 A 
ENDBRANCH  25  26
ENDBRANCH  23  25
ENDBRANCH  22  23
ENDBRANCH   6  22
TORSDOF 7
ENDMDL
MODEL 7
REMARK VINA RESULT:      -8.2      3.168      5.811
REMARK  7 active torsions:
REMARK  status: ('A' for Active; 'I' for Inactive)
REMARK    1  A    between atoms: C6_6  and  C7_7 
REMARK    2  A    between atoms: C7_7  and  N1_8 
REMARK    3  A    between atoms: N1_8  and  C8_9 
REMARK    4  A    between atoms: C8_9  and  C9_10 
REMARK    5  A    between atoms: C15_17  and  N2_18 
REMARK    6  A    between atoms: N2_18  and  C16_19 
REMARK    7  A    between atoms: C19_23  and  C20_24 
ROOT
HETATM    1  C1  UNL     1      25.829   2.973  49.275  1.00  0.00     0.020 C 
HETATM    2  C2  UNL     1      24.407   2.929  49.782  1.00  0.00     0.054 C 
HETATM    3  C3  UNL     1      23.408   2.994  48.701  1.00  0.00    -0.020 C 
HETATM    4  C4  UNL     1      22.873   4.198  48.422  1.00  0.00    -0.026 C 
HETATM    5  C5  UNL     1      23.268   5.425  49.171  1.00  0.00     0.065 C 
HETATM    6  C6  UNL     1      23.651   5.104  50.566  1.00  0.00    -0.025 C 
HETATM    7  C15 UNL     1      24.190   3.920  50.847  1.00  0.00     0.038 C 
ENDROOT
BRANCH   7   8
HETATM    8  N2  UNL     1      24.514   3.735  52.221  1.00  0.00    -0.191 N 
HETATM    9  H18 UNL     1      24.739   4.471  52.905  1.00  0.00     0.184 HD
BRANCH   8  10
HETATM   10  C16 UNL     1      24.515   2.383  52.659  1.00  0.00     0.727 A 
HETATM   11  N3  UNL     1      23.322   1.813  52.996  1.00  0.00    -0.075 NA
HETATM   12  C17 UNL     1      23.285   0.519  53.419  1.00  0.00     0.139 A 
HETATM   13  C18 UNL     1      24.516  -0.121  53.468  1.00  0.00     0.053 A 
HETATM   14  C19 UNL     1      25.724   0.452  53.129  1.00  0.00     0.089 A 
HETATM   15  N5  UNL     1      25.697   1.749  52.712  1.00  0.00    -0.062 NA
BRANCH  14  16
HETATM   16  C20 UNL     1      26.974  -0.296  53.211  1.00  0.00     0.011 A 
HETATM   17  C21 UNL     1      28.218   0.188  53.556  1.00  0.00     0.017 A 
HETATM   18  C22 UNL     1      29.316  -0.649  53.589  1.00  0.00     0.020 A 
HETATM   19  C23 UNL     1      29.233  -1.997  53.284  1.00  0.00     0.116 A 
HETATM   20  N4  UNL     1      28.003  -2.477  52.942  1.00  0.00    -0.272 NA
HETATM   21  C24 UNL     1      26.933  -1.656  52.911  1.00  0.00     0.130 A 
ENDBRANCH  14  16
ENDBRANCH   8  10
ENDBRANCH   7   8
BRANCH   6  22
HETATM   22  C7  UNL     1      23.363   6.221  51.523  1.00  0.00     0.306 C 
BRANCH  22  23
HETATM   23  N1  UNL     1      24.532   7.058  51.741  1.00  0.00     0.091 N 
HETATM   24  H11 UNL     1      25.412   6.494  51.729  1.00  0.00     0.316 HD
BRANCH  23  25
HETATM   25  C8  UNL     1      24.638   8.068  50.702  1.00  0.00     0.308 C 
BRANCH  25  26
HETATM   26  C9  UNL     1      25.962   8.048  50.022  1.00  0.00    -0.030 A 
HETATM   27  C10 UNL     1      26.893   9.074  50.107  1.00  0.00     0.010 A 
HETATM   28  C11 UNL     1      28.110   8.969  49.435  1.00  0.00     0.024 A 
HETATM   29  C12 UNL     1      28.397   7.853  48.686  1.00  0.00     0.034 A 
HETATM   30 CL1  UNL     1      29.929   7.691  47.824  1.00  0.00    -0.084 Cl
HETATM   31  C13 UNL     1      27.496   6.806  48.574  1.00  0.00     0.024 A 
HETATM   32  C14 UNL     1      26.306   6.944  49.250  1.00  0.00     0.010 A 
ENDBRANCH  25  26
ENDBRANCH  23  25
ENDBRANCH  22  23
ENDBRANCH   6  22
TORSDOF 7
ENDMDL
MODEL 8
REMARK VINA RESULT:      -8.2      4.064      5.469
REMARK  7 active torsions:
REMARK  status: ('A' for Active; 'I' for Inactive)
REMARK    1  A    between atoms: C6_6  and  C7_7 
REMARK    2  A    between atoms: C7_7  and  N1_8 
REMARK    3  A    between atoms: N1_8  and  C8_9 
REMARK    4  A    between atoms: C8_9  and  C9_10 
REMARK    5  A    between atoms: C15_17  and  N2_18 
REMARK    6  A    between atoms: N2_18  and  C16_19 
REMARK    7  A    between atoms: C19_23  and  C20_24 
ROOT
HETATM    1  C1  UNL     1      23.315   4.010  49.187  1.00  0.00     0.020 C 
HETATM    2  C2  UNL     1      24.364   4.425  50.191  1.00  0.00     0.054 C 
HETATM    3  C3  UNL     1      24.210   5.820  50.641  1.00  0.00    -0.020 C 
HETATM    4  C4  UNL     1      24.963   6.756  50.031  1.00  0.00    -0.026 C 
HETATM    5  C5  UNL     1      25.920   6.406  48.942  1.00  0.00     0.065 C 
HETATM    6  C6  UNL     1      26.460   5.038  49.120  1.00  0.00    -0.025 C 
HETATM    7  C15 UNL     1      25.717   4.106  49.712  1.00  0.00     0.038 C 
ENDROOT
BRANCH   7   8
HETATM    8  N2  UNL     1      26.349   2.835  49.821  1.00  0.00    -0.191 N 
HETATM    9  H18 UNL     1      26.745   2.276  49.053  1.00  0.00     0.184 HD
BRANCH   8  10
HETATM   10  C16 UNL     1      26.426   2.316  51.142  1.00  0.00     0.727 A 
HETATM   11  N3  UNL     1      27.556   2.563  51.867  1.00  0.00    -0.075 NA
HETATM   12  C17 UNL     1      27.665   2.082  53.137  1.00  0.00     0.139 A 
HETATM   13  C18 UNL     1      26.569   1.357  53.589  1.00  0.00     0.053 A 
HETATM   14  C19 UNL     1      25.426   1.106  52.859  1.00  0.00     0.089 A 
HETATM   15  N5  UNL     1      25.376   1.614  51.596  1.00  0.00    -0.062 NA
BRANCH  14  16
HETATM   16  C20 UNL     1      24.320   0.334  53.414  1.00  0.00     0.011 A 
HETATM   17  C21 UNL     1      23.004   0.343  53.003  1.00  0.00     0.017 A 
HETATM   18  C22 UNL     1      22.064  -0.450  53.632  1.00  0.00     0.020 A 
HETATM   19  C23 UNL     1      22.383  -1.284  54.690  1.00  0.00     0.116 A 
HETATM   20  N4  UNL     1      23.685  -1.294  55.098  1.00  0.00    -0.272 NA
HETATM   21  C24 UNL     1      24.599  -0.518  54.480  1.00  0.00     0.130 A 
ENDBRANCH  14  16
ENDBRANCH   8  10
ENDBRANCH   7   8
BRANCH   6  22
HETATM   22  C7  UNL     1      27.848   4.883  48.576  1.00  0.00     0.306 C 
BRANCH  22  23
HETATM   23  N1  UNL     1      28.679   6.036  48.886  1.00  0.00     0.091 N 
HETATM   24  H11 UNL     1      29.310   5.845  49.697  1.00  0.00     0.316 HD
BRANCH  23  25
HETATM   25  C8  UNL     1      29.513   6.385  47.748  1.00  0.00     0.308 C 
BRANCH  25  26
HETATM   26  C9  UNL     1      30.960   6.166  48.014  1.00  0.00    -0.030 A 
HETATM   27  C10 UNL     1      31.613   4.959  47.806  1.00  0.00     0.010 A 
HETATM   28  C11 UNL     1      32.974   4.845  48.084  1.00  0.00     0.024 A 
HETATM   29  C12 UNL     1      33.679   5.924  48.564  1.00  0.00     0.034 A 
HETATM   30 CL1  UNL     1      35.404   5.811  48.925  1.00  0.00    -0.084 Cl
HETATM   31  C13 UNL     1      33.066   7.147  48.786  1.00  0.00     0.024 A 
HETATM   32  C14 UNL     1      31.723   7.222  48.502  1.00  0.00     0.010 A 
ENDBRANCH  25  26
ENDBRANCH  23  25
ENDBRANCH  22  23
ENDBRANCH   6  22
TORSDOF 7
ENDMDL
MODEL 9
REMARK VINA RESULT:      -8.2      2.046      3.174
REMARK  7 active torsions:
REMARK  status: ('A' for Active; 'I' for Inactive)
REMARK    1  A    between atoms: C6_6  and  C7_7 
REMARK    2  A    between atoms: C7_7  and  N1_8 
REMARK    3  A    between atoms: N1_8  and  C8_9 
REMARK    4  A    between atoms: C8_9  and  C9_10 
REMARK    5  A    between atoms: C15_17  and  N2_18 
REMARK    6  A    between atoms: N2_18  and  C16_19 
REMARK    7  A    between atoms: C19_23  and  C20_24 
ROOT
HETATM    1  C1  UNL     1      23.480   4.255  48.793  1.00  0.00     0.020 C 
HETATM    2  C2  UNL     1      24.368   4.725  49.920  1.00  0.00     0.054 C 
HETATM    3  C3  UNL     1      25.804   4.576  49.622  1.00  0.00    -0.020 C 
HETATM    4  C4  UNL     1      26.424   3.477  50.092  1.00  0.00    -0.026 C 
HETATM    5  C5  UNL     1      25.699   2.444  50.886  1.00  0.00     0.065 C 
HETATM    6  C6  UNL     1      24.591   3.045  51.666  1.00  0.00    -0.025 C 
HETATM    7  C15 UNL     1      23.966   4.125  51.201  1.00  0.00     0.038 C 
ENDROOT
BRANCH   7   8
HETATM    8  N2  UNL     1      22.922   4.603  52.042  1.00  0.00    -0.191 N 
HETATM    9  H18 UNL     1      23.027   5.191  52.880  1.00  0.00     0.184 HD
BRANCH   8  10
HETATM   10  C16 UNL     1      21.613   4.212  51.652  1.00  0.00     0.727 A 
HETATM   11  N3  UNL     1      20.886   5.070  50.878  1.00  0.00    -0.075 NA
HETATM   12  C17 UNL     1      19.628   4.728  50.485  1.00  0.00     0.139 A 
HETATM   13  C18 UNL     1      19.188   3.487  50.928  1.00  0.00     0.053 A 
HETATM   14  C19 UNL     1      19.919   2.617  51.710  1.00  0.00     0.089 A 
HETATM   15  N5  UNL     1      21.172   3.015  52.071  1.00  0.00    -0.062 NA
BRANCH  14  16
HETATM   16  C20 UNL     1      19.378   1.330  52.131  1.00  0.00     0.011 A 
HETATM   17  C21 UNL     1      18.221   0.724  51.688  1.00  0.00     0.017 A 
HETATM   18  C22 UNL     1      17.836  -0.506  52.184  1.00  0.00     0.020 A 
HETATM   19  C23 UNL     1      18.575  -1.189  53.136  1.00  0.00     0.116 A 
HETATM   20  N4  UNL     1      19.719  -0.590  53.574  1.00  0.00    -0.272 NA
HETATM   21  C24 UNL     1      20.092   0.611  53.087  1.00  0.00     0.130 A 
ENDBRANCH  14  16
ENDBRANCH   8  10
ENDBRANCH   7   8
BRANCH   6  22
HETATM   22  C7  UNL     1      24.311   2.312  52.942  1.00  0.00     0.306 C 
BRANCH  22  23
HETATM   23  N1  UNL     1      23.751   0.993  52.694  1.00  0.00     0.091 N 
HETATM   24  H11 UNL     1      24.077   0.606  51.779  1.00  0.00     0.316 HD
BRANCH  23  25
HETATM   25  C8  UNL     1      24.153   0.063  53.736  1.00  0.00     0.308 C 
BRANCH  25  26
HETATM   26  C9  UNL     1      25.628  -0.129  53.789  1.00  0.00    -0.030 A 
HETATM   27  C10 UNL     1      26.448   0.429  54.760  1.00  0.00     0.010 A 
HETATM   28  C11 UNL     1      27.822   0.194  54.731  1.00  0.00     0.024 A 
HETATM   29  C12 UNL     1      28.373  -0.590  53.746  1.00  0.00     0.034 A 
HETATM   30 CL1  UNL     1      30.109  -0.906  53.683  1.00  0.00    -0.084 Cl
HETATM   31  C13 UNL     1      27.591  -1.167  52.758  1.00  0.00     0.024 A 
HETATM   32  C14 UNL     1      26.241  -0.914  52.817  1.00  0.00     0.010 A 
ENDBRANCH  25  26
ENDBRANCH  23  25
ENDBRANCH  22  23
ENDBRANCH   6  22
TORSDOF 7
ENDMDL
