MODEL 1
REMARK VINA RESULT:      -8.0      0.000      0.000
REMARK  6 active torsions:
REMARK  status: ('A' for Active; 'I' for Inactive)
REMARK    1  A    between atoms: C10_13  and  C11_14 
REMARK    2  A    between atoms: C11_14  and  C12_15 
REMARK    3  A    between atoms: C12_15  and  C13_16 
REMARK       I    between atoms: C13_16  and  N2_17 
REMARK    4  A    between atoms: C15_20  and  C16_21 
REMARK    5  A    between atoms: C16_21  and  C17_22 
REMARK    6  A    between atoms: C17_22  and  N3_23 
ROOT
HETATM    1  C1  UNL     1      19.742   2.696  52.319  1.00  0.00     0.049 C 
HETATM    2  C2  UNL     1      20.991   1.976  51.956  1.00  0.00    -0.044 C 
HETATM    3  C3  UNL     1      21.862   2.560  51.115  1.00  0.00     0.066 C 
HETATM    4  S1  UNL     1      23.398   2.352  50.300  1.00  0.00    -0.046 SA
HETATM    5  S2  UNL     1      25.040   1.990  51.551  1.00  0.00     0.028 SA
HETATM    6  N1  UNL     1      24.627   0.790  52.744  1.00  0.00    -0.301 N 
HETATM    7  C4  UNL     1      23.582   0.130  53.375  1.00  0.00     0.061 A 
HETATM    8  C5  UNL     1      22.234   0.088  53.357  1.00  0.00     0.002 A 
HETATM    9  C6  UNL     1      21.612  -0.736  54.268  1.00  0.00     0.014 A 
HETATM   10  C7  UNL     1      22.361  -1.478  55.147  1.00  0.00     0.002 A 
HETATM   11  C8  UNL     1      23.750  -1.375  55.094  1.00  0.00     0.012 A 
HETATM   12  C9  UNL     1      24.425  -0.565  54.204  1.00  0.00    -0.006 A 
HETATM   13  C10 UNL     1      25.600   0.045  53.555  1.00  0.00     0.134 A 
HETATM   14  C14 UNL     1      21.104   0.673  52.598  1.00  0.00    -0.021 C 
HETATM   15  C15 UNL     1      20.046  -0.106  52.462  1.00  0.00    -0.012 C 
ENDROOT
BRANCH  13  16
HETATM   16  C11 UNL     1      26.412   0.891  54.489  1.00  0.00     0.040 C 
BRANCH  16  17
HETATM   17  C12 UNL     1      27.894   0.586  54.405  1.00  0.00     0.105 C 
BRANCH  17  18
HETATM   18  C13 UNL     1      28.571   1.764  53.759  1.00  0.00     0.215 C 
HETATM   19  N2  UNL     1      29.641   2.211  54.580  1.00  0.00    -0.370 N 
HETATM   20  H13 UNL     1      30.538   2.227  55.111  1.00  0.00     0.159 HD
HETATM   21  H14 UNL     1      29.966   3.046  55.139  1.00  0.00     0.159 HD
HETATM   22  O1  UNL     1      28.717   2.613  52.842  1.00  0.00    -0.274 OA
ENDBRANCH  17  18
ENDBRANCH  16  17
ENDBRANCH  13  16
BRANCH  15  23
HETATM   23  C16 UNL     1      18.777   0.045  51.805  1.00  0.00     0.047 C 
BRANCH  23  24
HETATM   24  C17 UNL     1      17.647  -0.727  52.531  1.00  0.00     0.115 C 
BRANCH  24  25
HETATM   25  N3  UNL     1      18.143  -1.390  53.704  1.00  0.00    -0.430 N 
HETATM   26  H20 UNL     1      18.180  -0.828  54.558  1.00  0.00     0.149 HD
HETATM   27  H21 UNL     1      18.907  -2.049  53.531  1.00  0.00     0.149 HD
ENDBRANCH  24  25
ENDBRANCH  23  24
ENDBRANCH  15  23
TORSDOF 6
ENDMDL
MODEL 2
REMARK VINA RESULT:      -7.8      1.336      1.378
REMARK  6 active torsions:
REMARK  status: ('A' for Active; 'I' for Inactive)
REMARK    1  A    between atoms: C10_13  and  C11_14 
REMARK    2  A    between atoms: C11_14  and  C12_15 
REMARK    3  A    between atoms: C12_15  and  C13_16 
REMARK       I    between atoms: C13_16  and  N2_17 
REMARK    4  A    between atoms: C15_20  and  C16_21 
REMARK    5  A    between atoms: C16_21  and  C17_22 
REMARK    6  A    between atoms: C17_22  and  N3_23 
ROOT
HETATM    1  C1  UNL     1      20.748   3.645  52.283  1.00  0.00     0.049 C 
HETATM    2  C2  UNL     1      21.870   2.721  51.970  1.00  0.00    -0.044 C 
HETATM    3  C3  UNL     1      22.921   3.182  51.269  1.00  0.00     0.066 C 
HETATM    4  S1  UNL     1      24.469   2.736  50.582  1.00  0.00    -0.046 SA
HETATM    5  S2  UNL     1      25.869   1.966  51.939  1.00  0.00     0.028 SA
HETATM    6  N1  UNL     1      25.111   0.786  52.971  1.00  0.00    -0.301 N 
HETATM    7  C4  UNL     1      23.899   0.300  53.441  1.00  0.00     0.061 A 
HETATM    8  C5  UNL     1      22.577   0.527  53.296  1.00  0.00     0.002 A 
HETATM    9  C6  UNL     1      21.716  -0.224  54.066  1.00  0.00     0.014 A 
HETATM   10  C7  UNL     1      22.213  -1.162  54.937  1.00  0.00     0.002 A 
HETATM   11  C8  UNL     1      23.594  -1.331  55.019  1.00  0.00     0.012 A 
HETATM   12  C9  UNL     1      24.501  -0.606  54.274  1.00  0.00    -0.006 A 
HETATM   13  C10 UNL     1      25.833  -0.194  53.795  1.00  0.00     0.134 A 
HETATM   14  C14 UNL     1      21.665   1.378  52.496  1.00  0.00    -0.021 C 
HETATM   15  C15 UNL     1      20.500   0.835  52.192  1.00  0.00    -0.012 C 
ENDROOT
BRANCH  13  16
HETATM   16  C11 UNL     1      26.685   0.404  54.874  1.00  0.00     0.040 C 
BRANCH  16  17
HETATM   17  C12 UNL     1      28.126  -0.059  54.795  1.00  0.00     0.105 C 
BRANCH  17  18
HETATM   18  C13 UNL     1      28.984   1.150  54.541  1.00  0.00     0.215 C 
HETATM   19  N2  UNL     1      29.840   0.906  53.432  1.00  0.00    -0.370 N 
HETATM   20  H13 UNL     1      30.167   0.704  52.464  1.00  0.00     0.159 HD
HETATM   21  H14 UNL     1      30.860   0.823  53.174  1.00  0.00     0.159 HD
HETATM   22  O1  UNL     1      29.380   2.320  54.784  1.00  0.00    -0.274 OA
ENDBRANCH  17  18
ENDBRANCH  16  17
ENDBRANCH  13  16
BRANCH  15  23
HETATM   23  C16 UNL     1      19.361   1.281  51.439  1.00  0.00     0.047 C 
BRANCH  23  24
HETATM   24  C17 UNL     1      18.400   0.117  51.088  1.00  0.00     0.115 C 
BRANCH  24  25
HETATM   25  N3  UNL     1      17.815   0.301  49.790  1.00  0.00    -0.430 N 
HETATM   26  H20 UNL     1      16.962  -0.232  49.600  1.00  0.00     0.149 HD
HETATM   27  H21 UNL     1      18.490   0.412  49.029  1.00  0.00     0.149 HD
ENDBRANCH  24  25
ENDBRANCH  23  24
ENDBRANCH  15  23
TORSDOF 6
ENDMDL
MODEL 3
REMARK VINA RESULT:      -7.7      3.569      7.260
REMARK  6 active torsions:
REMARK  status: ('A' for Active; 'I' for Inactive)
REMARK    1  A    between atoms: C10_13  and  C11_14 
REMARK    2  A    between atoms: C11_14  and  C12_15 
REMARK    3  A    between atoms: C12_15  and  C13_16 
REMARK       I    between atoms: C13_16  and  N2_17 
REMARK    4  A    between atoms: C15_20  and  C16_21 
REMARK    5  A    between atoms: C16_21  and  C17_22 
REMARK    6  A    between atoms: C17_22  and  N3_23 
ROOT
HETATM    1  C1  UNL     1      26.219   0.084  55.079  1.00  0.00     0.049 C 
HETATM    2  C2  UNL     1      25.301   0.020  53.912  1.00  0.00    -0.044 C 
HETATM    3  C3  UNL     1      24.059  -0.467  54.081  1.00  0.00     0.066 C 
HETATM    4  S1  UNL     1      22.554  -0.822  53.260  1.00  0.00    -0.046 SA
HETATM    5  S2  UNL     1      21.651   0.802  52.290  1.00  0.00     0.028 SA
HETATM    6  N1  UNL     1      22.841   1.688  51.379  1.00  0.00    -0.301 N 
HETATM    7  C4  UNL     1      24.199   1.916  51.205  1.00  0.00     0.061 A 
HETATM    8  C5  UNL     1      25.382   1.506  51.708  1.00  0.00     0.002 A 
HETATM    9  C6  UNL     1      26.521   2.106  51.219  1.00  0.00     0.014 A 
HETATM   10  C7  UNL     1      26.427   3.078  50.254  1.00  0.00     0.002 A 
HETATM   11  C8  UNL     1      25.163   3.438  49.789  1.00  0.00     0.012 A 
HETATM   12  C9  UNL     1      23.989   2.872  50.244  1.00  0.00    -0.006 A 
HETATM   13  C10 UNL     1      22.533   2.660  50.320  1.00  0.00     0.134 A 
HETATM   14  C14 UNL     1      25.905   0.523  52.684  1.00  0.00    -0.021 C 
HETATM   15  C15 UNL     1      27.085   0.005  52.394  1.00  0.00    -0.012 C 
ENDROOT
BRANCH  13  16
HETATM   16  C11 UNL     1      21.785   3.873  50.784  1.00  0.00     0.040 C 
BRANCH  16  17
HETATM   17  C12 UNL     1      20.444   4.024  50.098  1.00  0.00     0.105 C 
BRANCH  17  18
HETATM   18  C13 UNL     1      19.381   3.561  51.057  1.00  0.00     0.215 C 
HETATM   19  N2  UNL     1      18.653   2.484  50.481  1.00  0.00    -0.370 N 
HETATM   20  H13 UNL     1      18.426   1.552  50.075  1.00  0.00     0.159 HD
HETATM   21  H14 UNL     1      17.684   2.217  50.157  1.00  0.00     0.159 HD
HETATM   22  O1  UNL     1      18.751   3.607  52.146  1.00  0.00    -0.274 OA
ENDBRANCH  17  18
ENDBRANCH  16  17
ENDBRANCH  13  16
BRANCH  15  23
HETATM   23  C16 UNL     1      27.927  -0.970  53.030  1.00  0.00     0.047 C 
BRANCH  23  24
HETATM   24  C17 UNL     1      27.538  -2.419  52.644  1.00  0.00     0.115 C 
BRANCH  24  25
HETATM   25  N3  UNL     1      28.513  -3.360  53.115  1.00  0.00    -0.430 N 
HETATM   26  H20 UNL     1      28.917  -3.982  52.410  1.00  0.00     0.149 HD
HETATM   27  H21 UNL     1      28.318  -3.750  54.041  1.00  0.00     0.149 HD
ENDBRANCH  24  25
ENDBRANCH  23  24
ENDBRANCH  15  23
TORSDOF 6
ENDMDL
MODEL 4
REMARK VINA RESULT:      -7.6      2.948      6.989
REMARK  6 active torsions:
REMARK  status: ('A' for Active; 'I' for Inactive)
REMARK    1  A    between atoms: C10_13  and  C11_14 
REMARK    2  A    between atoms: C11_14  and  C12_15 
REMARK    3  A    between atoms: C12_15  and  C13_16 
REMARK       I    between atoms: C13_16  and  N2_17 
REMARK    4  A    between atoms: C15_20  and  C16_21 
REMARK    5  A    between atoms: C16_21  and  C17_22 
REMARK    6  A    between atoms: C17_22  and  N3_23 
ROOT
HETATM    1  C1  UNL     1      26.581   0.986  51.364  1.00  0.00     0.049 C 
HETATM    2  C2  UNL     1      25.303   1.549  51.875  1.00  0.00    -0.044 C 
HETATM    3  C3  UNL     1      24.712   2.549  51.199  1.00  0.00     0.066 C 
HETATM    4  S1  UNL     1      23.328   3.622  51.183  1.00  0.00    -0.046 SA
HETATM    5  S2  UNL     1      21.456   2.678  51.179  1.00  0.00     0.028 SA
HETATM    6  N1  UNL     1      21.432   1.399  52.361  1.00  0.00    -0.301 N 
HETATM    7  C4  UNL     1      22.214   0.572  53.154  1.00  0.00     0.061 A 
HETATM    8  C5  UNL     1      23.515   0.346  53.432  1.00  0.00     0.002 A 
HETATM    9  C6  UNL     1      23.809  -0.685  54.297  1.00  0.00     0.014 A 
HETATM   10  C7  UNL     1      22.797  -1.434  54.844  1.00  0.00     0.002 A 
HETATM   11  C8  UNL     1      21.480  -1.128  54.504  1.00  0.00     0.012 A 
HETATM   12  C9  UNL     1      21.128  -0.109  53.642  1.00  0.00    -0.006 A 
HETATM   13  C10 UNL     1      20.214   0.756  52.876  1.00  0.00     0.134 A 
HETATM   14  C14 UNL     1      24.846   0.903  53.099  1.00  0.00    -0.021 C 
HETATM   15  C15 UNL     1      25.752   0.825  54.057  1.00  0.00    -0.012 C 
ENDROOT
BRANCH  13  16
HETATM   16  C11 UNL     1      19.421   0.008  51.847  1.00  0.00     0.040 C 
BRANCH  16  17
HETATM   17  C12 UNL     1      17.946  -0.052  52.186  1.00  0.00     0.105 C 
BRANCH  17  18
HETATM   18  C13 UNL     1      17.706  -1.308  52.979  1.00  0.00     0.215 C 
HETATM   19  N2  UNL     1      16.317  -1.614  52.984  1.00  0.00    -0.370 N 
HETATM   20  H13 UNL     1      15.361  -1.863  52.656  1.00  0.00     0.159 HD
HETATM   21  H14 UNL     1      15.493  -1.715  53.636  1.00  0.00     0.159 HD
HETATM   22  O1  UNL     1      18.080  -2.288  53.675  1.00  0.00    -0.274 OA
ENDBRANCH  17  18
ENDBRANCH  16  17
ENDBRANCH  13  16
BRANCH  15  23
HETATM   23  C16 UNL     1      27.120   1.247  54.168  1.00  0.00     0.047 C 
BRANCH  23  24
HETATM   24  C17 UNL     1      28.014   0.162  54.821  1.00  0.00     0.115 C 
BRANCH  24  25
HETATM   25  N3  UNL     1      28.211  -0.950  53.934  1.00  0.00    -0.430 N 
HETATM   26  H20 UNL     1      27.895  -1.861  54.277  1.00  0.00     0.149 HD
HETATM   27  H21 UNL     1      29.079  -0.916  53.393  1.00  0.00     0.149 HD
ENDBRANCH  24  25
ENDBRANCH  23  24
ENDBRANCH  15  23
TORSDOF 6
ENDMDL
MODEL 5
REMARK VINA RESULT:      -7.3      2.941      4.461
REMARK  6 active torsions:
REMARK  status: ('A' for Active; 'I' for Inactive)
REMARK    1  A    between atoms: C10_13  and  C11_14 
REMARK    2  A    between atoms: C11_14  and  C12_15 
REMARK    3  A    between atoms: C12_15  and  C13_16 
REMARK       I    between atoms: C13_16  and  N2_17 
REMARK    4  A    between atoms: C15_20  and  C16_21 
REMARK    5  A    between atoms: C16_21  and  C17_22 
REMARK    6  A    between atoms: C17_22  and  N3_23 
ROOT
HETATM    1  C1  UNL     1      20.981   1.003  49.228  1.00  0.00     0.049 C 
HETATM    2  C2  UNL     1      21.735   1.196  50.495  1.00  0.00    -0.044 C 
HETATM    3  C3  UNL     1      21.478   0.387  51.538  1.00  0.00     0.066 C 
HETATM    4  S1  UNL     1      21.916   0.035  53.197  1.00  0.00    -0.046 SA
HETATM    5  S2  UNL     1      23.943  -0.392  53.523  1.00  0.00     0.028 SA
HETATM    6  N1  UNL     1      24.937   0.768  52.688  1.00  0.00    -0.301 N 
HETATM    7  C4  UNL     1      24.962   1.733  51.691  1.00  0.00     0.061 A 
HETATM    8  C5  UNL     1      24.131   2.309  50.798  1.00  0.00     0.002 A 
HETATM    9  C6  UNL     1      24.671   3.232  49.931  1.00  0.00     0.014 A 
HETATM   10  C7  UNL     1      26.008   3.538  49.998  1.00  0.00     0.002 A 
HETATM   11  C8  UNL     1      26.793   2.897  50.954  1.00  0.00     0.012 A 
HETATM   12  C9  UNL     1      26.305   1.963  51.846  1.00  0.00    -0.006 A 
HETATM   13  C10 UNL     1      26.365   0.994  52.954  1.00  0.00     0.134 A 
HETATM   14  C14 UNL     1      22.697   2.287  50.424  1.00  0.00    -0.021 C 
HETATM   15  C15 UNL     1      22.208   3.431  49.981  1.00  0.00    -0.012 C 
ENDROOT
BRANCH  13  16
HETATM   16  C11 UNL     1      27.249  -0.181  52.660  1.00  0.00     0.040 C 
BRANCH  16  17
HETATM   17  C12 UNL     1      28.115  -0.564  53.842  1.00  0.00     0.105 C 
BRANCH  17  18
HETATM   18  C13 UNL     1      28.956   0.630  54.202  1.00  0.00     0.215 C 
HETATM   19  N2  UNL     1      30.167   0.606  53.457  1.00  0.00    -0.370 N 
HETATM   20  H13 UNL     1      30.832   0.615  52.655  1.00  0.00     0.159 HD
HETATM   21  H14 UNL     1      31.214   0.537  53.576  1.00  0.00     0.159 HD
HETATM   22  O1  UNL     1      29.187   1.694  54.834  1.00  0.00    -0.274 OA
ENDBRANCH  17  18
ENDBRANCH  16  17
ENDBRANCH  13  16
BRANCH  15  23
HETATM   23  C16 UNL     1      20.906   3.852  49.543  1.00  0.00     0.047 C 
BRANCH  23  24
HETATM   24  C17 UNL     1      20.972   4.703  48.250  1.00  0.00     0.115 C 
BRANCH  24  25
HETATM   25  N3  UNL     1      21.311   3.894  47.114  1.00  0.00    -0.430 N 
HETATM   26  H20 UNL     1      21.837   4.359  46.370  1.00  0.00     0.149 HD
HETATM   27  H21 UNL     1      20.593   3.217  46.842  1.00  0.00     0.149 HD
ENDBRANCH  24  25
ENDBRANCH  23  24
ENDBRANCH  15  23
TORSDOF 6
ENDMDL
MODEL 6
REMARK VINA RESULT:      -7.2      3.389      4.703
REMARK  6 active torsions:
REMARK  status: ('A' for Active; 'I' for Inactive)
REMARK    1  A    between atoms: C10_13  and  C11_14 
REMARK    2  A    between atoms: C11_14  and  C12_15 
REMARK    3  A    between atoms: C12_15  and  C13_16 
REMARK       I    between atoms: C13_16  and  N2_17 
REMARK    4  A    between atoms: C15_20  and  C16_21 
REMARK    5  A    between atoms: C16_21  and  C17_22 
REMARK    6  A    between atoms: C17_22  and  N3_23 
ROOT
HETATM    1  C1  UNL     1      20.829   1.022  53.851  1.00  0.00     0.049 C 
HETATM    2  C2  UNL     1      21.533   1.146  52.547  1.00  0.00    -0.044 C 
HETATM    3  C3  UNL     1      20.854   1.597  51.477  1.00  0.00     0.066 C 
HETATM    4  S1  UNL     1      20.988   1.977  49.773  1.00  0.00    -0.046 SA
HETATM    5  S2  UNL     1      22.460   3.384  49.276  1.00  0.00     0.028 SA
HETATM    6  N1  UNL     1      23.944   3.012  50.107  1.00  0.00    -0.301 N 
HETATM    7  C4  UNL     1      24.510   2.303  51.156  1.00  0.00     0.061 A 
HETATM    8  C5  UNL     1      24.142   1.456  52.141  1.00  0.00     0.002 A 
HETATM    9  C6  UNL     1      25.118   1.044  53.021  1.00  0.00     0.014 A 
HETATM   10  C7  UNL     1      26.408   1.491  52.877  1.00  0.00     0.002 A 
HETATM   11  C8  UNL     1      26.700   2.363  51.829  1.00  0.00     0.012 A 
HETATM   12  C9  UNL     1      25.762   2.809  50.920  1.00  0.00    -0.006 A 
HETATM   13  C10 UNL     1      25.263   3.557  49.753  1.00  0.00     0.134 A 
HETATM   14  C14 UNL     1      22.932   0.746  52.614  1.00  0.00    -0.021 C 
HETATM   15  C15 UNL     1      23.144  -0.438  53.161  1.00  0.00    -0.012 C 
ENDROOT
BRANCH  13  16
HETATM   16  C11 UNL     1      25.386   5.043  49.910  1.00  0.00     0.040 C 
BRANCH  16  17
HETATM   17  C12 UNL     1      25.965   5.709  48.679  1.00  0.00     0.105 C 
BRANCH  17  18
HETATM   18  C13 UNL     1      27.437   5.398  48.636  1.00  0.00     0.215 C 
HETATM   19  N2  UNL     1      28.183   6.577  48.904  1.00  0.00    -0.370 N 
HETATM   20  H13 UNL     1      28.567   7.412  49.395  1.00  0.00     0.159 HD
HETATM   21  H14 UNL     1      28.882   7.235  48.463  1.00  0.00     0.159 HD
HETATM   22  O1  UNL     1      28.419   4.626  48.485  1.00  0.00    -0.274 OA
ENDBRANCH  17  18
ENDBRANCH  16  17
ENDBRANCH  13  16
BRANCH  15  23
HETATM   23  C16 UNL     1      22.284  -1.446  53.716  1.00  0.00     0.047 C 
BRANCH  23  24
HETATM   24  C17 UNL     1      22.411  -1.538  55.258  1.00  0.00     0.115 C 
BRANCH  24  25
HETATM   25  N3  UNL     1      23.787  -1.608  55.661  1.00  0.00    -0.430 N 
HETATM   26  H20 UNL     1      24.472  -1.723  54.909  1.00  0.00     0.149 HD
HETATM   27  H21 UNL     1      23.949  -2.110  56.538  1.00  0.00     0.149 HD
ENDBRANCH  24  25
ENDBRANCH  23  24
ENDBRANCH  15  23
TORSDOF 6
ENDMDL
MODEL 7
REMARK VINA RESULT:      -7.1      3.980      6.641
REMARK  6 active torsions:
REMARK  status: ('A' for Active; 'I' for Inactive)
REMARK    1  A    between atoms: C10_13  and  C11_14 
REMARK    2  A    between atoms: C11_14  and  C12_15 
REMARK    3  A    between atoms: C12_15  and  C13_16 
REMARK       I    between atoms: C13_16  and  N2_17 
REMARK    4  A    between atoms: C15_20  and  C16_21 
REMARK    5  A    between atoms: C16_21  and  C17_22 
REMARK    6  A    between atoms: C17_22  and  N3_23 
ROOT
HETATM    1  C1  UNL     1      22.984   4.837  47.836  1.00  0.00     0.049 C 
HETATM    2  C2  UNL     1      22.886   4.540  49.290  1.00  0.00    -0.044 C 
HETATM    3  C3  UNL     1      21.680   4.564  49.882  1.00  0.00     0.066 C 
HETATM    4  S1  UNL     1      20.847   4.344  51.407  1.00  0.00    -0.046 SA
HETATM    5  S2  UNL     1      21.123   2.480  52.325  1.00  0.00     0.028 SA
HETATM    6  N1  UNL     1      22.808   2.044  52.291  1.00  0.00    -0.301 N 
HETATM    7  C4  UNL     1      24.036   2.302  51.699  1.00  0.00     0.061 A 
HETATM    8  C5  UNL     1      24.576   3.116  50.768  1.00  0.00     0.002 A 
HETATM    9  C6  UNL     1      25.909   2.941  50.469  1.00  0.00     0.014 A 
HETATM   10  C7  UNL     1      26.637   1.972  51.113  1.00  0.00     0.002 A 
HETATM   11  C8  UNL     1      25.999   1.178  52.064  1.00  0.00     0.012 A 
HETATM   12  C9  UNL     1      24.667   1.307  52.401  1.00  0.00    -0.006 A 
HETATM   13  C10 UNL     1      23.420   0.996  53.122  1.00  0.00     0.134 A 
HETATM   14  C14 UNL     1      24.176   4.247  49.900  1.00  0.00    -0.021 C 
HETATM   15  C15 UNL     1      25.120   5.139  49.656  1.00  0.00    -0.012 C 
ENDROOT
BRANCH  13  16
HETATM   16  C11 UNL     1      22.915  -0.389  52.851  1.00  0.00     0.040 C 
BRANCH  16  17
HETATM   17  C12 UNL     1      22.406  -1.074  54.103  1.00  0.00     0.105 C 
BRANCH  17  18
HETATM   18  C13 UNL     1      20.906  -0.951  54.118  1.00  0.00     0.215 C 
HETATM   19  N2  UNL     1      20.521   0.098  54.998  1.00  0.00    -0.370 N 
HETATM   20  H13 UNL     1      20.415   1.046  55.416  1.00  0.00     0.159 HD
HETATM   21  H14 UNL     1      19.983   0.278  55.888  1.00  0.00     0.159 HD
HETATM   22  O1  UNL     1      19.746  -1.283  53.760  1.00  0.00    -0.274 OA
ENDBRANCH  17  18
ENDBRANCH  16  17
ENDBRANCH  13  16
BRANCH  15  23
HETATM   23  C16 UNL     1      25.161   6.364  48.908  1.00  0.00     0.047 C 
BRANCH  23  24
HETATM   24  C17 UNL     1      25.133   7.611  49.828  1.00  0.00     0.115 C 
BRANCH  24  25
HETATM   25  N3  UNL     1      26.241   7.609  50.739  1.00  0.00    -0.430 N 
HETATM   26  H20 UNL     1      27.170   7.708  50.320  1.00  0.00     0.149 HD
HETATM   27  H21 UNL     1      26.140   6.971  51.534  1.00  0.00     0.149 HD
ENDBRANCH  24  25
ENDBRANCH  23  24
ENDBRANCH  15  23
TORSDOF 6
ENDMDL
MODEL 8
REMARK VINA RESULT:      -7.0      3.905      6.473
REMARK  6 active torsions:
REMARK  status: ('A' for Active; 'I' for Inactive)
REMARK    1  A    between atoms: C10_13  and  C11_14 
REMARK    2  A    between atoms: C11_14  and  C12_15 
REMARK    3  A    between atoms: C12_15  and  C13_16 
REMARK       I    between atoms: C13_16  and  N2_17 
REMARK    4  A    between atoms: C15_20  and  C16_21 
REMARK    5  A    between atoms: C16_21  and  C17_22 
REMARK    6  A    between atoms: C17_22  and  N3_23 
ROOT
HETATM    1  C1  UNL     1      22.776   5.100  47.510  1.00  0.00     0.049 C 
HETATM    2  C2  UNL     1      22.780   4.870  48.979  1.00  0.00    -0.044 C 
HETATM    3  C3  UNL     1      21.618   4.921  49.653  1.00  0.00     0.066 C 
HETATM    4  S1  UNL     1      20.894   4.770  51.241  1.00  0.00    -0.046 SA
HETATM    5  S2  UNL     1      21.239   2.949  52.220  1.00  0.00     0.028 SA
HETATM    6  N1  UNL     1      22.919   2.512  52.089  1.00  0.00    -0.301 N 
HETATM    7  C4  UNL     1      24.102   2.743  51.401  1.00  0.00     0.061 A 
HETATM    8  C5  UNL     1      24.574   3.514  50.399  1.00  0.00     0.002 A 
HETATM    9  C6  UNL     1      25.883   3.326  50.017  1.00  0.00     0.014 A 
HETATM   10  C7  UNL     1      26.657   2.387  50.652  1.00  0.00     0.002 A 
HETATM   11  C8  UNL     1      26.089   1.637  51.679  1.00  0.00     0.012 A 
HETATM   12  C9  UNL     1      24.783   1.781  52.102  1.00  0.00    -0.006 A 
HETATM   13  C10 UNL     1      23.590   1.503  52.921  1.00  0.00     0.134 A 
HETATM   14  C14 UNL     1      24.111   4.605  49.511  1.00  0.00    -0.021 C 
HETATM   15  C15 UNL     1      25.033   5.484  49.162  1.00  0.00    -0.012 C 
ENDROOT
BRANCH  13  16
HETATM   16  C11 UNL     1      23.072   0.107  52.750  1.00  0.00     0.040 C 
BRANCH  16  17
HETATM   17  C12 UNL     1      22.783  -0.570  54.074  1.00  0.00     0.105 C 
BRANCH  17  18
HETATM   18  C13 UNL     1      24.100  -0.949  54.694  1.00  0.00     0.215 C 
HETATM   19  N2  UNL     1      23.875  -1.595  55.940  1.00  0.00    -0.370 N 
HETATM   20  H13 UNL     1      23.556  -2.290  56.648  1.00  0.00     0.159 HD
HETATM   21  H14 UNL     1      24.057  -1.489  56.975  1.00  0.00     0.159 HD
HETATM   22  O1  UNL     1      25.357  -1.011  54.715  1.00  0.00    -0.274 OA
ENDBRANCH  17  18
ENDBRANCH  16  17
ENDBRANCH  13  16
BRANCH  15  23
HETATM   23  C16 UNL     1      25.017   6.675  48.358  1.00  0.00     0.047 C 
BRANCH  23  24
HETATM   24  C17 UNL     1      26.410   7.351  48.290  1.00  0.00     0.115 C 
BRANCH  24  25
HETATM   25  N3  UNL     1      27.108   7.229  49.538  1.00  0.00    -0.430 N 
HETATM   26  H20 UNL     1      27.892   6.571  49.554  1.00  0.00     0.149 HD
HETATM   27  H21 UNL     1      26.511   7.283  50.368  1.00  0.00     0.149 HD
ENDBRANCH  24  25
ENDBRANCH  23  24
ENDBRANCH  15  23
TORSDOF 6
ENDMDL
MODEL 9
REMARK VINA RESULT:      -6.9      3.179      7.126
REMARK  6 active torsions:
REMARK  status: ('A' for Active; 'I' for Inactive)
REMARK    1  A    between atoms: C10_13  and  C11_14 
REMARK    2  A    between atoms: C11_14  and  C12_15 
REMARK    3  A    between atoms: C12_15  and  C13_16 
REMARK       I    between atoms: C13_16  and  N2_17 
REMARK    4  A    between atoms: C15_20  and  C16_21 
REMARK    5  A    between atoms: C16_21  and  C17_22 
REMARK    6  A    between atoms: C17_22  and  N3_23 
ROOT
HETATM    1  C1  UNL     1      26.520   2.471  50.963  1.00  0.00     0.049 C 
HETATM    2  C2  UNL     1      25.228   2.811  51.616  1.00  0.00    -0.044 C 
HETATM    3  C3  UNL     1      24.555   3.901  51.209  1.00  0.00     0.066 C 
HETATM    4  S1  UNL     1      23.109   4.852  51.474  1.00  0.00    -0.046 SA
HETATM    5  S2  UNL     1      21.298   3.813  51.279  1.00  0.00     0.028 SA
HETATM    6  N1  UNL     1      21.391   2.292  52.122  1.00  0.00    -0.301 N 
HETATM    7  C4  UNL     1      22.248   1.355  52.681  1.00  0.00     0.061 A 
HETATM    8  C5  UNL     1      23.568   1.156  52.873  1.00  0.00     0.002 A 
HETATM    9  C6  UNL     1      23.953  -0.027  53.462  1.00  0.00     0.014 A 
HETATM   10  C7  UNL     1      23.007  -0.950  53.833  1.00  0.00     0.002 A 
HETATM   11  C8  UNL     1      21.664  -0.661  53.599  1.00  0.00     0.012 A 
HETATM   12  C9  UNL     1      21.222   0.507  53.012  1.00  0.00    -0.006 A 
HETATM   13  C10 UNL     1      20.232   1.466  52.491  1.00  0.00     0.134 A 
HETATM   14  C14 UNL     1      24.852   1.864  52.658  1.00  0.00    -0.021 C 
HETATM   15  C15 UNL     1      25.792   1.622  53.554  1.00  0.00    -0.012 C 
ENDROOT
BRANCH  13  16
HETATM   16  C11 UNL     1      19.452   0.931  51.328  1.00  0.00     0.040 C 
BRANCH  16  17
HETATM   17  C12 UNL     1      17.957   0.959  51.573  1.00  0.00     0.105 C 
BRANCH  17  18
HETATM   18  C13 UNL     1      17.542   2.396  51.728  1.00  0.00     0.215 C 
HETATM   19  N2  UNL     1      16.136   2.511  51.548  1.00  0.00    -0.370 N 
HETATM   20  H13 UNL     1      15.111   2.396  51.691  1.00  0.00     0.159 HD
HETATM   21  H14 UNL     1      15.414   2.955  50.920  1.00  0.00     0.159 HD
HETATM   22  O1  UNL     1      17.769   3.616  51.941  1.00  0.00    -0.274 OA
ENDBRANCH  17  18
ENDBRANCH  16  17
ENDBRANCH  13  16
BRANCH  15  23
HETATM   23  C16 UNL     1      27.136   2.096  53.738  1.00  0.00     0.047 C 
BRANCH  23  24
HETATM   24  C17 UNL     1      28.121   0.945  54.062  1.00  0.00     0.115 C 
BRANCH  24  25
HETATM   25  N3  UNL     1      29.478   1.337  53.806  1.00  0.00    -0.430 N 
HETATM   26  H20 UNL     1      30.167   0.581  53.769  1.00  0.00     0.149 HD
HETATM   27  H21 UNL     1      29.758   2.219  54.243  1.00  0.00     0.149 HD
ENDBRANCH  24  25
ENDBRANCH  23  24
ENDBRANCH  15  23
TORSDOF 6
ENDMDL
