MODEL 1
REMARK VINA RESULT:      -7.0      0.000      0.000
REMARK  7 active torsions:
REMARK  status: ('A' for Active; 'I' for Inactive)
REMARK       I    between atoms: C2_2  and  N1_4 
REMARK    1  A    between atoms: N1_4  and  C3_5 
REMARK    2  A    between atoms: N1_4  and  C11_14 
REMARK    3  A    between atoms: C4_6  and  C5_7 
REMARK    4  A    between atoms: C5_7  and  C6_8 
REMARK    5  A    between atoms: C11_14  and  C12_15 
REMARK    6  A    between atoms: C12_15  and  C13_16 
REMARK    7  A    between atoms: C13_16  and  N2_17 
ROOT
HETATM    1  C1  UNL     1      29.301   0.738  53.402  1.00  0.00     0.117 C 
HETATM    2  C2  UNL     1      28.071   0.311  54.158  1.00  0.00     0.219 C 
HETATM    3  O1  UNL     1      28.206  -0.211  55.274  1.00  0.00    -0.274 OA
HETATM    4  N1  UNL     1      26.890   0.597  53.416  1.00  0.00    -0.329 N 
ENDROOT
BRANCH   4   5
HETATM    5  C3  UNL     1      26.773   1.212  52.115  1.00  0.00     0.090 C 
HETATM    6  C4  UNL     1      26.668   2.430  51.558  1.00  0.00    -0.005 C 
BRANCH   6   7
HETATM    7  C5  UNL     1      26.566   2.635  50.108  1.00  0.00     0.065 C 
BRANCH   7   8
HETATM    8  C6  UNL     1      26.326   4.070  49.783  1.00  0.00    -0.051 A 
HETATM    9  C7  UNL     1      25.326   4.801  50.234  1.00  0.00     0.144 A 
HETATM   10  O2  UNL     1      25.242   6.144  49.832  1.00  0.00    -0.335 OA
HETATM   11  C8  UNL     1      26.181   6.684  48.988  1.00  0.00     0.137 A 
HETATM   12  C9  UNL     1      27.192   5.972  48.523  1.00  0.00     0.002 A 
HETATM   13  C10 UNL     1      27.394   4.547  48.870  1.00  0.00     0.065 A 
ENDBRANCH   7   8
ENDBRANCH   6   7
ENDBRANCH   4   5
BRANCH   4  14
HETATM   14  C11 UNL     1      25.671   0.189  54.125  1.00  0.00     0.133 C 
BRANCH  14  15
HETATM   15  C12 UNL     1      24.740  -0.553  53.179  1.00  0.00     0.050 C 
BRANCH  15  16
HETATM   16  C13 UNL     1      23.435   0.206  53.116  1.00  0.00     0.274 C 
BRANCH  16  17
HETATM   17  N2  UNL     1      22.339  -0.619  52.699  1.00  0.00     0.092 N 
HETATM   18  C14 UNL     1      21.208   0.099  52.173  1.00  0.00     0.298 C 
HETATM   19  C15 UNL     1      20.089   0.224  53.182  1.00  0.00     0.198 C 
HETATM   20  O3  UNL     1      20.554   0.417  54.470  1.00  0.00    -0.388 OA
HETATM   21  C16 UNL     1      21.460  -0.504  54.920  1.00  0.00     0.198 C 
HETATM   22  C17 UNL     1      21.936  -1.417  53.843  1.00  0.00     0.298 C 
ENDBRANCH  16  17
ENDBRANCH  15  16
ENDBRANCH  14  15
ENDBRANCH   4  14
TORSDOF 7
ENDMDL
MODEL 2
REMARK VINA RESULT:      -7.0      2.435      5.753
REMARK  7 active torsions:
REMARK  status: ('A' for Active; 'I' for Inactive)
REMARK       I    between atoms: C2_2  and  N1_4 
REMARK    1  A    between atoms: N1_4  and  C3_5 
REMARK    2  A    between atoms: N1_4  and  C11_14 
REMARK    3  A    between atoms: C4_6  and  C5_7 
REMARK    4  A    between atoms: C5_7  and  C6_8 
REMARK    5  A    between atoms: C11_14  and  C12_15 
REMARK    6  A    between atoms: C12_15  and  C13_16 
REMARK    7  A    between atoms: C13_16  and  N2_17 
ROOT
HETATM    1  C1  UNL     1      23.453  -1.295  55.580  1.00  0.00     0.117 C 
HETATM    2  C2  UNL     1      22.276  -1.136  54.654  1.00  0.00     0.219 C 
HETATM    3  O1  UNL     1      21.210  -1.697  54.941  1.00  0.00    -0.274 OA
HETATM    4  N1  UNL     1      22.611  -0.318  53.538  1.00  0.00    -0.329 N 
ENDROOT
BRANCH   4   5
HETATM    5  C3  UNL     1      23.870   0.323  53.239  1.00  0.00     0.090 C 
HETATM    6  C4  UNL     1      25.098   0.017  52.786  1.00  0.00    -0.005 C 
BRANCH   6   7
HETATM    7  C5  UNL     1      26.155   1.022  52.615  1.00  0.00     0.065 C 
BRANCH   7   8
HETATM    8  C6  UNL     1      27.480   0.483  53.031  1.00  0.00    -0.051 A 
HETATM    9  C7  UNL     1      28.487   1.196  53.497  1.00  0.00     0.144 A 
HETATM   10  O2  UNL     1      29.674   0.533  53.846  1.00  0.00    -0.335 OA
HETATM   11  C8  UNL     1      29.785  -0.829  53.705  1.00  0.00     0.137 A 
HETATM   12  C9  UNL     1      28.792  -1.565  53.241  1.00  0.00     0.002 A 
HETATM   13  C10 UNL     1      27.489  -0.988  52.838  1.00  0.00     0.065 A 
ENDBRANCH   7   8
ENDBRANCH   6   7
ENDBRANCH   4   5
BRANCH   4  14
HETATM   14  C11 UNL     1      21.484  -0.146  52.612  1.00  0.00     0.133 C 
BRANCH  14  15
HETATM   15  C12 UNL     1      21.930   0.635  51.386  1.00  0.00     0.050 C 
BRANCH  15  16
HETATM   16  C13 UNL     1      21.184   1.949  51.371  1.00  0.00     0.274 C 
BRANCH  16  17
HETATM   17  N2  UNL     1      21.759   2.897  50.462  1.00  0.00     0.092 N 
HETATM   18  C14 UNL     1      23.140   2.662  50.135  1.00  0.00     0.298 C 
HETATM   19  C15 UNL     1      24.072   3.573  50.901  1.00  0.00     0.198 C 
HETATM   20  O3  UNL     1      23.647   3.801  52.196  1.00  0.00    -0.388 OA
HETATM   21  C16 UNL     1      22.365   4.261  52.329  1.00  0.00     0.198 C 
HETATM   22  C17 UNL     1      21.602   4.215  51.051  1.00  0.00     0.298 C 
ENDBRANCH  16  17
ENDBRANCH  15  16
ENDBRANCH  14  15
ENDBRANCH   4  14
TORSDOF 7
ENDMDL
MODEL 3
REMARK VINA RESULT:      -6.9      2.885      6.080
REMARK  7 active torsions:
REMARK  status: ('A' for Active; 'I' for Inactive)
REMARK       I    between atoms: C2_2  and  N1_4 
REMARK    1  A    between atoms: N1_4  and  C3_5 
REMARK    2  A    between atoms: N1_4  and  C11_14 
REMARK    3  A    between atoms: C4_6  and  C5_7 
REMARK    4  A    between atoms: C5_7  and  C6_8 
REMARK    5  A    between atoms: C11_14  and  C12_15 
REMARK    6  A    between atoms: C12_15  and  C13_16 
REMARK    7  A    between atoms: C13_16  and  N2_17 
ROOT
HETATM    1  C1  UNL     1      23.387  -1.571  55.689  1.00  0.00     0.117 C 
HETATM    2  C2  UNL     1      22.323  -1.202  54.689  1.00  0.00     0.219 C 
HETATM    3  O1  UNL     1      21.161  -1.582  54.886  1.00  0.00    -0.274 OA
HETATM    4  N1  UNL     1      22.870  -0.434  53.623  1.00  0.00    -0.329 N 
ENDROOT
BRANCH   4   5
HETATM    5  C3  UNL     1      24.236  -0.008  53.430  1.00  0.00     0.090 C 
HETATM    6  C4  UNL     1      25.108   0.234  52.436  1.00  0.00    -0.005 C 
BRANCH   6   7
HETATM    7  C5  UNL     1      26.486   0.679  52.679  1.00  0.00     0.065 C 
BRANCH   7   8
HETATM    8  C6  UNL     1      27.396  -0.482  52.892  1.00  0.00    -0.051 A 
HETATM    9  C7  UNL     1      27.083  -1.747  52.698  1.00  0.00     0.144 A 
HETATM   10  O2  UNL     1      28.059  -2.726  52.944  1.00  0.00    -0.335 OA
HETATM   11  C8  UNL     1      29.313  -2.372  53.378  1.00  0.00     0.137 A 
HETATM   12  C9  UNL     1      29.652  -1.112  53.579  1.00  0.00     0.002 A 
HETATM   13  C10 UNL     1      28.716   0.013  53.356  1.00  0.00     0.065 A 
ENDBRANCH   7   8
ENDBRANCH   6   7
ENDBRANCH   4   5
BRANCH   4  14
HETATM   14  C11 UNL     1      21.858  -0.060  52.626  1.00  0.00     0.133 C 
BRANCH  14  15
HETATM   15  C12 UNL     1      21.446   1.391  52.818  1.00  0.00     0.050 C 
BRANCH  15  16
HETATM   16  C13 UNL     1      21.478   2.069  51.469  1.00  0.00     0.274 C 
BRANCH  16  17
HETATM   17  N2  UNL     1      22.723   2.736  51.219  1.00  0.00     0.092 N 
HETATM   18  C14 UNL     1      23.278   3.425  52.353  1.00  0.00     0.298 C 
HETATM   19  C15 UNL     1      23.032   4.915  52.295  1.00  0.00     0.198 C 
HETATM   20  O3  UNL     1      21.790   5.229  51.775  1.00  0.00    -0.388 OA
HETATM   21  C16 UNL     1      21.500   4.681  50.555  1.00  0.00     0.198 C 
HETATM   22  C17 UNL     1      22.505   3.667  50.126  1.00  0.00     0.298 C 
ENDBRANCH  16  17
ENDBRANCH  15  16
ENDBRANCH  14  15
ENDBRANCH   4  14
TORSDOF 7
ENDMDL
MODEL 4
REMARK VINA RESULT:      -6.8      1.994      5.506
REMARK  7 active torsions:
REMARK  status: ('A' for Active; 'I' for Inactive)
REMARK       I    between atoms: C2_2  and  N1_4 
REMARK    1  A    between atoms: N1_4  and  C3_5 
REMARK    2  A    between atoms: N1_4  and  C11_14 
REMARK    3  A    between atoms: C4_6  and  C5_7 
REMARK    4  A    between atoms: C5_7  and  C6_8 
REMARK    5  A    between atoms: C11_14  and  C12_15 
REMARK    6  A    between atoms: C12_15  and  C13_16 
REMARK    7  A    between atoms: C13_16  and  N2_17 
ROOT
HETATM    1  C1  UNL     1      26.012   4.105  49.498  1.00  0.00     0.117 C 
HETATM    2  C2  UNL     1      24.547   3.800  49.672  1.00  0.00     0.219 C 
HETATM    3  O1  UNL     1      23.744   4.227  48.832  1.00  0.00    -0.274 OA
HETATM    4  N1  UNL     1      24.323   3.026  50.846  1.00  0.00    -0.329 N 
ENDROOT
BRANCH   4   5
HETATM    5  C3  UNL     1      25.290   2.543  51.803  1.00  0.00     0.090 C 
HETATM    6  C4  UNL     1      26.058   1.465  52.035  1.00  0.00    -0.005 C 
BRANCH   6   7
HETATM    7  C5  UNL     1      26.959   1.364  53.191  1.00  0.00     0.065 C 
BRANCH   7   8
HETATM    8  C6  UNL     1      27.661   0.050  53.212  1.00  0.00    -0.051 A 
HETATM    9  C7  UNL     1      27.113  -1.117  52.938  1.00  0.00     0.144 A 
HETATM   10  O2  UNL     1      27.915  -2.268  53.002  1.00  0.00    -0.335 OA
HETATM   11  C8  UNL     1      29.243  -2.178  53.345  1.00  0.00     0.137 A 
HETATM   12  C9  UNL     1      29.815  -1.022  53.623  1.00  0.00     0.002 A 
HETATM   13  C10 UNL     1      29.079   0.263  53.591  1.00  0.00     0.065 A 
ENDBRANCH   7   8
ENDBRANCH   6   7
ENDBRANCH   4   5
BRANCH   4  14
HETATM   14  C11 UNL     1      22.902   2.714  51.048  1.00  0.00     0.133 C 
BRANCH  14  15
HETATM   15  C12 UNL     1      22.677   1.214  50.950  1.00  0.00     0.050 C 
BRANCH  15  16
HETATM   16  C13 UNL     1      21.558   0.846  51.897  1.00  0.00     0.274 C 
BRANCH  16  17
HETATM   17  N2  UNL     1      21.958   0.914  53.272  1.00  0.00     0.092 N 
HETATM   18  C14 UNL     1      23.024   0.021  53.637  1.00  0.00     0.298 C 
HETATM   19  C15 UNL     1      22.520  -1.210  54.356  1.00  0.00     0.198 C 
HETATM   20  O3  UNL     1      21.315  -1.663  53.851  1.00  0.00    -0.388 OA
HETATM   21  C16 UNL     1      20.310  -0.738  53.791  1.00  0.00     0.198 C 
HETATM   22  C17 UNL     1      20.782   0.645  54.081  1.00  0.00     0.298 C 
ENDBRANCH  16  17
ENDBRANCH  15  16
ENDBRANCH  14  15
ENDBRANCH   4  14
TORSDOF 7
ENDMDL
MODEL 5
REMARK VINA RESULT:      -6.6      1.890      6.125
REMARK  7 active torsions:
REMARK  status: ('A' for Active; 'I' for Inactive)
REMARK       I    between atoms: C2_2  and  N1_4 
REMARK    1  A    between atoms: N1_4  and  C3_5 
REMARK    2  A    between atoms: N1_4  and  C11_14 
REMARK    3  A    between atoms: C4_6  and  C5_7 
REMARK    4  A    between atoms: C5_7  and  C6_8 
REMARK    5  A    between atoms: C11_14  and  C12_15 
REMARK    6  A    between atoms: C12_15  and  C13_16 
REMARK    7  A    between atoms: C13_16  and  N2_17 
ROOT
HETATM    1  C1  UNL     1      21.879  -1.428  54.771  1.00  0.00     0.117 C 
HETATM    2  C2  UNL     1      21.336  -0.261  53.990  1.00  0.00     0.219 C 
HETATM    3  O1  UNL     1      20.153   0.069  54.152  1.00  0.00    -0.274 OA
HETATM    4  N1  UNL     1      22.338   0.299  53.146  1.00  0.00    -0.329 N 
ENDROOT
BRANCH   4   5
HETATM    5  C3  UNL     1      23.712  -0.114  52.987  1.00  0.00     0.090 C 
HETATM    6  C4  UNL     1      24.787  -0.421  53.733  1.00  0.00    -0.005 C 
BRANCH   6   7
HETATM    7  C5  UNL     1      26.075  -0.816  53.147  1.00  0.00     0.065 C 
BRANCH   7   8
HETATM    8  C6  UNL     1      27.153   0.141  53.524  1.00  0.00    -0.051 A 
HETATM    9  C7  UNL     1      26.976   1.407  53.848  1.00  0.00     0.144 A 
HETATM   10  O2  UNL     1      28.102   2.178  54.180  1.00  0.00    -0.335 OA
HETATM   11  C8  UNL     1      29.359   1.626  54.169  1.00  0.00     0.137 A 
HETATM   12  C9  UNL     1      29.562   0.361  53.849  1.00  0.00     0.002 A 
HETATM   13  C10 UNL     1      28.461  -0.557  53.480  1.00  0.00     0.065 A 
ENDBRANCH   7   8
ENDBRANCH   6   7
ENDBRANCH   4   5
BRANCH   4  14
HETATM   14  C11 UNL     1      21.840   1.439  52.366  1.00  0.00     0.133 C 
BRANCH  14  15
HETATM   15  C12 UNL     1      22.234   1.285  50.906  1.00  0.00     0.050 C 
BRANCH  15  16
HETATM   16  C13 UNL     1      22.698   2.632  50.403  1.00  0.00     0.274 C 
BRANCH  16  17
HETATM   17  N2  UNL     1      23.582   3.288  51.323  1.00  0.00     0.092 N 
HETATM   18  C14 UNL     1      23.437   4.717  51.386  1.00  0.00     0.298 C 
HETATM   19  C15 UNL     1      24.512   5.438  50.604  1.00  0.00     0.198 C 
HETATM   20  O3  UNL     1      24.850   4.779  49.436  1.00  0.00    -0.388 OA
HETATM   21  C16 UNL     1      25.204   3.465  49.575  1.00  0.00     0.198 C 
HETATM   22  C17 UNL     1      24.940   2.939  50.944  1.00  0.00     0.298 C 
ENDBRANCH  16  17
ENDBRANCH  15  16
ENDBRANCH  14  15
ENDBRANCH   4  14
TORSDOF 7
ENDMDL
MODEL 6
REMARK VINA RESULT:      -6.5      2.341      4.913
REMARK  7 active torsions:
REMARK  status: ('A' for Active; 'I' for Inactive)
REMARK       I    between atoms: C2_2  and  N1_4 
REMARK    1  A    between atoms: N1_4  and  C3_5 
REMARK    2  A    between atoms: N1_4  and  C11_14 
REMARK    3  A    between atoms: C4_6  and  C5_7 
REMARK    4  A    between atoms: C5_7  and  C6_8 
REMARK    5  A    between atoms: C11_14  and  C12_15 
REMARK    6  A    between atoms: C12_15  and  C13_16 
REMARK    7  A    between atoms: C13_16  and  N2_17 
ROOT
HETATM    1  C1  UNL     1      22.158   4.741  49.259  1.00  0.00     0.117 C 
HETATM    2  C2  UNL     1      21.913   3.539  50.132  1.00  0.00     0.219 C 
HETATM    3  O1  UNL     1      20.763   3.319  50.536  1.00  0.00    -0.274 OA
HETATM    4  N1  UNL     1      23.119   2.818  50.359  1.00  0.00    -0.329 N 
ENDROOT
BRANCH   4   5
HETATM    5  C3  UNL     1      24.445   3.108  49.867  1.00  0.00     0.090 C 
HETATM    6  C4  UNL     1      25.556   3.771  50.231  1.00  0.00    -0.005 C 
BRANCH   6   7
HETATM    7  C5  UNL     1      26.761   3.823  49.394  1.00  0.00     0.065 C 
BRANCH   7   8
HETATM    8  C6  UNL     1      26.957   5.183  48.818  1.00  0.00    -0.051 A 
HETATM    9  C7  UNL     1      26.028   6.113  48.711  1.00  0.00     0.144 A 
HETATM   10  O2  UNL     1      26.377   7.348  48.142  1.00  0.00    -0.335 OA
HETATM   11  C8  UNL     1      27.659   7.584  47.707  1.00  0.00     0.137 A 
HETATM   12  C9  UNL     1      28.607   6.670  47.804  1.00  0.00     0.002 A 
HETATM   13  C10 UNL     1      28.369   5.328  48.383  1.00  0.00     0.065 A 
ENDBRANCH   7   8
ENDBRANCH   6   7
ENDBRANCH   4   5
BRANCH   4  14
HETATM   14  C11 UNL     1      22.916   1.641  51.212  1.00  0.00     0.133 C 
BRANCH  14  15
HETATM   15  C12 UNL     1      23.473   1.900  52.603  1.00  0.00     0.050 C 
BRANCH  15  16
HETATM   16  C13 UNL     1      24.427   0.780  52.941  1.00  0.00     0.274 C 
BRANCH  16  17
HETATM   17  N2  UNL     1      25.796   1.129  52.691  1.00  0.00     0.092 N 
HETATM   18  C14 UNL     1      26.556   0.131  51.989  1.00  0.00     0.298 C 
HETATM   19  C15 UNL     1      27.444  -0.669  52.915  1.00  0.00     0.198 C 
HETATM   20  O3  UNL     1      26.849  -0.917  54.138  1.00  0.00    -0.388 OA
HETATM   21  C16 UNL     1      26.383   0.182  54.806  1.00  0.00     0.198 C 
HETATM   22  C17 UNL     1      26.413   1.417  53.974  1.00  0.00     0.298 C 
ENDBRANCH  16  17
ENDBRANCH  15  16
ENDBRANCH  14  15
ENDBRANCH   4  14
TORSDOF 7
ENDMDL
MODEL 7
REMARK VINA RESULT:      -6.4      2.345      5.665
REMARK  7 active torsions:
REMARK  status: ('A' for Active; 'I' for Inactive)
REMARK       I    between atoms: C2_2  and  N1_4 
REMARK    1  A    between atoms: N1_4  and  C3_5 
REMARK    2  A    between atoms: N1_4  and  C11_14 
REMARK    3  A    between atoms: C4_6  and  C5_7 
REMARK    4  A    between atoms: C5_7  and  C6_8 
REMARK    5  A    between atoms: C11_14  and  C12_15 
REMARK    6  A    between atoms: C12_15  and  C13_16 
REMARK    7  A    between atoms: C13_16  and  N2_17 
ROOT
HETATM    1  C1  UNL     1      26.331   3.232  50.108  1.00  0.00     0.117 C 
HETATM    2  C2  UNL     1      24.915   3.674  49.849  1.00  0.00     0.219 C 
HETATM    3  O1  UNL     1      24.719   4.651  49.113  1.00  0.00    -0.274 OA
HETATM    4  N1  UNL     1      23.986   2.842  50.537  1.00  0.00    -0.329 N 
ENDROOT
BRANCH   4   5
HETATM    5  C3  UNL     1      24.255   1.707  51.387  1.00  0.00     0.090 C 
HETATM    6  C4  UNL     1      24.507   1.424  52.677  1.00  0.00    -0.005 C 
BRANCH   6   7
HETATM    7  C5  UNL     1      24.738   0.056  53.160  1.00  0.00     0.065 C 
BRANCH   7   8
HETATM    8  C6  UNL     1      26.127  -0.105  53.673  1.00  0.00    -0.051 A 
HETATM    9  C7  UNL     1      26.524   0.148  54.904  1.00  0.00     0.144 A 
HETATM   10  O2  UNL     1      27.875  -0.058  55.230  1.00  0.00    -0.335 OA
HETATM   11  C8  UNL     1      28.763  -0.513  54.285  1.00  0.00     0.137 A 
HETATM   12  C9  UNL     1      28.390  -0.773  53.046  1.00  0.00     0.002 A 
HETATM   13  C10 UNL     1      26.996  -0.598  52.576  1.00  0.00     0.065 A 
ENDBRANCH   7   8
ENDBRANCH   6   7
ENDBRANCH   4   5
BRANCH   4  14
HETATM   14  C11 UNL     1      22.594   3.250  50.308  1.00  0.00     0.133 C 
BRANCH  14  15
HETATM   15  C12 UNL     1      21.921   3.577  51.632  1.00  0.00     0.050 C 
BRANCH  15  16
HETATM   16  C13 UNL     1      20.430   3.418  51.449  1.00  0.00     0.274 C 
BRANCH  16  17
HETATM   17  N2  UNL     1      19.864   2.461  52.355  1.00  0.00     0.092 N 
HETATM   18  C14 UNL     1      20.814   1.562  52.955  1.00  0.00     0.298 C 
HETATM   19  C15 UNL     1      20.813   0.202  52.294  1.00  0.00     0.198 C 
HETATM   20  O3  UNL     1      20.627   0.278  50.926  1.00  0.00    -0.388 OA
HETATM   21  C16 UNL     1      19.526   0.976  50.512  1.00  0.00     0.198 C 
HETATM   22  C17 UNL     1      18.859   1.710  51.623  1.00  0.00     0.298 C 
ENDBRANCH  16  17
ENDBRANCH  15  16
ENDBRANCH  14  15
ENDBRANCH   4  14
TORSDOF 7
ENDMDL
MODEL 8
REMARK VINA RESULT:      -6.4      2.303      7.305
REMARK  7 active torsions:
REMARK  status: ('A' for Active; 'I' for Inactive)
REMARK       I    between atoms: C2_2  and  N1_4 
REMARK    1  A    between atoms: N1_4  and  C3_5 
REMARK    2  A    between atoms: N1_4  and  C11_14 
REMARK    3  A    between atoms: C4_6  and  C5_7 
REMARK    4  A    between atoms: C5_7  and  C6_8 
REMARK    5  A    between atoms: C11_14  and  C12_15 
REMARK    6  A    between atoms: C12_15  and  C13_16 
REMARK    7  A    between atoms: C13_16  and  N2_17 
ROOT
HETATM    1  C1  UNL     1      23.893   3.632  49.167  1.00  0.00     0.117 C 
HETATM    2  C2  UNL     1      24.497   3.620  50.547  1.00  0.00     0.219 C 
HETATM    3  O1  UNL     1      25.642   4.067  50.702  1.00  0.00    -0.274 OA
HETATM    4  N1  UNL     1      23.593   3.063  51.495  1.00  0.00    -0.329 N 
ENDROOT
BRANCH   4   5
HETATM    5  C3  UNL     1      22.260   2.553  51.274  1.00  0.00     0.090 C 
HETATM    6  C4  UNL     1      21.630   1.391  51.032  1.00  0.00    -0.005 C 
BRANCH   6   7
HETATM    7  C5  UNL     1      20.175   1.297  50.860  1.00  0.00     0.065 C 
BRANCH   7   8
HETATM    8  C6  UNL     1      19.580   0.341  51.836  1.00  0.00    -0.051 A 
HETATM    9  C7  UNL     1      20.130  -0.038  52.972  1.00  0.00     0.144 A 
HETATM   10  O2  UNL     1      19.436  -0.950  53.783  1.00  0.00    -0.335 OA
HETATM   11  C8  UNL     1      18.209  -1.437  53.401  1.00  0.00     0.137 A 
HETATM   12  C9  UNL     1      17.637  -1.073  52.268  1.00  0.00     0.002 A 
HETATM   13  C10 UNL     1      18.264  -0.118  51.326  1.00  0.00     0.065 A 
ENDBRANCH   7   8
ENDBRANCH   6   7
ENDBRANCH   4   5
BRANCH   4  14
HETATM   14  C11 UNL     1      24.154   3.033  52.852  1.00  0.00     0.133 C 
BRANCH  14  15
HETATM   15  C12 UNL     1      24.752   1.665  53.141  1.00  0.00     0.050 C 
BRANCH  15  16
HETATM   16  C13 UNL     1      26.191   1.863  53.556  1.00  0.00     0.274 C 
BRANCH  16  17
HETATM   17  N2  UNL     1      27.114   1.230  52.659  1.00  0.00     0.092 N 
HETATM   18  C14 UNL     1      26.708  -0.068  52.190  1.00  0.00     0.298 C 
HETATM   19  C15 UNL     1      27.413  -1.188  52.921  1.00  0.00     0.198 C 
HETATM   20  O3  UNL     1      27.599  -0.911  54.263  1.00  0.00    -0.388 OA
HETATM   21  C16 UNL     1      28.227   0.271  54.545  1.00  0.00     0.198 C 
HETATM   22  C17 UNL     1      28.391   1.137  53.343  1.00  0.00     0.298 C 
ENDBRANCH  16  17
ENDBRANCH  15  16
ENDBRANCH  14  15
ENDBRANCH   4  14
TORSDOF 7
ENDMDL
MODEL 9
REMARK VINA RESULT:      -6.3      2.689      5.811
REMARK  7 active torsions:
REMARK  status: ('A' for Active; 'I' for Inactive)
REMARK       I    between atoms: C2_2  and  N1_4 
REMARK    1  A    between atoms: N1_4  and  C3_5 
REMARK    2  A    between atoms: N1_4  and  C11_14 
REMARK    3  A    between atoms: C4_6  and  C5_7 
REMARK    4  A    between atoms: C5_7  and  C6_8 
REMARK    5  A    between atoms: C11_14  and  C12_15 
REMARK    6  A    between atoms: C12_15  and  C13_16 
REMARK    7  A    between atoms: C13_16  and  N2_17 
ROOT
HETATM    1  C1  UNL     1      27.404   4.732  48.931  1.00  0.00     0.117 C 
HETATM    2  C2  UNL     1      26.058   5.362  49.178  1.00  0.00     0.219 C 
HETATM    3  O1  UNL     1      25.843   6.502  48.742  1.00  0.00    -0.274 OA
HETATM    4  N1  UNL     1      25.212   4.487  49.915  1.00  0.00    -0.329 N 
ENDROOT
BRANCH   4   5
HETATM    5  C3  UNL     1      25.500   3.159  50.404  1.00  0.00     0.090 C 
HETATM    6  C4  UNL     1      25.854   2.536  51.541  1.00  0.00    -0.005 C 
BRANCH   6   7
HETATM    7  C5  UNL     1      26.059   1.084  51.620  1.00  0.00     0.065 C 
BRANCH   7   8
HETATM    8  C6  UNL     1      27.030   0.736  52.696  1.00  0.00    -0.051 A 
HETATM    9  C7  UNL     1      27.112  -0.429  53.308  1.00  0.00     0.144 A 
HETATM   10  O2  UNL     1      28.088  -0.596  54.304  1.00  0.00    -0.335 OA
HETATM   11  C8  UNL     1      28.937   0.432  54.634  1.00  0.00     0.137 A 
HETATM   12  C9  UNL     1      28.874   1.607  54.036  1.00  0.00     0.002 A 
HETATM   13  C10 UNL     1      27.893   1.911  52.971  1.00  0.00     0.065 A 
ENDBRANCH   7   8
ENDBRANCH   6   7
ENDBRANCH   4   5
BRANCH   4  14
HETATM   14  C11 UNL     1      23.892   5.073  50.177  1.00  0.00     0.133 C 
BRANCH  14  15
HETATM   15  C12 UNL     1      23.717   5.324  51.666  1.00  0.00     0.050 C 
BRANCH  15  16
HETATM   16  C13 UNL     1      22.392   4.732  52.087  1.00  0.00     0.274 C 
BRANCH  16  17
HETATM   17  N2  UNL     1      21.691   4.122  50.995  1.00  0.00     0.092 N 
HETATM   18  C14 UNL     1      20.404   4.696  50.706  1.00  0.00     0.298 C 
HETATM   19  C15 UNL     1      19.268   3.865  51.256  1.00  0.00     0.198 C 
HETATM   20  O3  UNL     1      19.568   3.302  52.483  1.00  0.00    -0.388 OA
HETATM   21  C16 UNL     1      20.723   2.571  52.536  1.00  0.00     0.198 C 
HETATM   22  C17 UNL     1      21.549   2.710  51.304  1.00  0.00     0.298 C 
ENDBRANCH  16  17
ENDBRANCH  15  16
ENDBRANCH  14  15
ENDBRANCH   4  14
TORSDOF 7
ENDMDL
