MODEL 1
REMARK VINA RESULT:      -6.9      0.000      0.000
REMARK  7 active torsions:
REMARK  status: ('A' for Active; 'I' for Inactive)
REMARK    1  A    between atoms: C2_2  and  C4_4 
REMARK    2  A    between atoms: C6_6  and  C7_7 
REMARK    3  A    between atoms: C7_7  and  C9_10 
REMARK    4  A    between atoms: C11_13  and  C12_14 
REMARK    5  A    between atoms: C15_17  and  O2_18 
REMARK    6  A    between atoms: O2_18  and  C16_19 
REMARK    7  A    between atoms: C16_19  and  N2_20 
ROOT
HETATM    1  C7  UNL     1      22.050  -0.874  53.572  1.00  0.00     0.186 C 
HETATM    2  C8  UNL     1      20.781  -0.361  53.050  1.00  0.00     0.075 C 
HETATM    3  N1  UNL     1      19.779   0.062  52.643  1.00  0.00    -0.196 NA
ENDROOT
BRANCH   1   4
HETATM    4  C6  UNL     1      23.146   0.031  53.148  1.00  0.00    -0.033 A 
HETATM    5  C5  UNL     1      24.490  -0.347  53.140  1.00  0.00     0.019 A 
HETATM    6  C4  UNL     1      25.482   0.536  52.735  1.00  0.00    -0.020 A 
HETATM    7  C15 UNL     1      25.189   1.814  52.326  1.00  0.00     0.084 A 
HETATM    8  C11 UNL     1      23.880   2.209  52.324  1.00  0.00    -0.020 A 
HETATM    9  C10 UNL     1      22.887   1.340  52.725  1.00  0.00     0.019 A 
BRANCH   6  10
HETATM   10  C2  UNL     1      26.815  -0.110  52.804  1.00  0.00     0.013 C 
HETATM   11  C1  UNL     1      26.731  -1.592  52.487  1.00  0.00     0.015 C 
HETATM   12  C3  UNL     1      27.549   0.153  54.091  1.00  0.00     0.015 C 
ENDBRANCH   6  10
BRANCH   7  13
HETATM   13  O2  UNL     1      26.252   2.611  51.943  1.00  0.00    -0.321 OA
BRANCH  13  14
HETATM   14  C16 UNL     1      26.528   2.778  50.577  1.00  0.00     0.441 C 
BRANCH  14  15
HETATM   15  N2  UNL     1      26.700   4.177  50.219  1.00  0.00     0.101 N 
HETATM   16  H21 UNL     1      27.203   4.622  51.017  1.00  0.00     0.315 HD
HETATM   17  H22 UNL     1      27.343   4.275  49.394  1.00  0.00     0.315 HD
ENDBRANCH  14  15
ENDBRANCH  13  14
ENDBRANCH   7  13
BRANCH   8  18
HETATM   18  C12 UNL     1      23.493   3.576  51.893  1.00  0.00     0.013 C 
HETATM   19  C13 UNL     1      23.577   4.607  52.968  1.00  0.00     0.015 C 
HETATM   20  C14 UNL     1      22.015   3.486  51.484  1.00  0.00     0.015 C 
ENDBRANCH   8  18
ENDBRANCH   1   4
BRANCH   1  21
HETATM   21  C9  UNL     1      21.992  -1.031  55.050  1.00  0.00     0.255 C 
HETATM   22  O1  UNL     1      22.627  -1.905  55.624  1.00  0.00    -0.305 OA
ENDBRANCH   1  21
TORSDOF 7
ENDMDL
MODEL 2
REMARK VINA RESULT:      -6.8      0.226      3.656
REMARK  7 active torsions:
REMARK  status: ('A' for Active; 'I' for Inactive)
REMARK    1  A    between atoms: C2_2  and  C4_4 
REMARK    2  A    between atoms: C6_6  and  C7_7 
REMARK    3  A    between atoms: C7_7  and  C9_10 
REMARK    4  A    between atoms: C11_13  and  C12_14 
REMARK    5  A    between atoms: C15_17  and  O2_18 
REMARK    6  A    between atoms: O2_18  and  C16_19 
REMARK    7  A    between atoms: C16_19  and  N2_20 
ROOT
HETATM    1  C7  UNL     1      21.875  -0.736  53.443  1.00  0.00     0.186 C 
HETATM    2  C8  UNL     1      20.620  -0.139  52.980  1.00  0.00     0.075 C 
HETATM    3  N1  UNL     1      19.630   0.350  52.622  1.00  0.00    -0.196 NA
ENDROOT
BRANCH   1   4
HETATM    4  C6  UNL     1      23.003   0.137  53.038  1.00  0.00    -0.033 A 
HETATM    5  C5  UNL     1      22.835   1.452  52.599  1.00  0.00     0.019 A 
HETATM    6  C4  UNL     1      23.923   2.230  52.230  1.00  0.00    -0.020 A 
HETATM    7  C15 UNL     1      25.208   1.747  52.279  1.00  0.00     0.084 A 
HETATM    8  C11 UNL     1      25.400   0.462  52.707  1.00  0.00    -0.020 A 
HETATM    9  C10 UNL     1      24.326  -0.320  53.075  1.00  0.00     0.019 A 
BRANCH   6  10
HETATM   10  C2  UNL     1      23.480   3.585  51.818  1.00  0.00     0.013 C 
HETATM   11  C1  UNL     1      23.546   4.565  52.974  1.00  0.00     0.015 C 
HETATM   12  C3  UNL     1      22.138   3.601  51.138  1.00  0.00     0.015 C 
ENDBRANCH   6  10
BRANCH   7  13
HETATM   13  O2  UNL     1      26.219   2.606  51.889  1.00  0.00    -0.321 OA
BRANCH  13  14
HETATM   14  C16 UNL     1      26.476   2.788  50.521  1.00  0.00     0.441 C 
BRANCH  14  15
HETATM   15  N2  UNL     1      26.773   4.174  50.198  1.00  0.00     0.101 N 
HETATM   16  H21 UNL     1      27.045   4.631  51.097  1.00  0.00     0.315 HD
HETATM   17  H22 UNL     1      27.622   4.241  49.583  1.00  0.00     0.315 HD
ENDBRANCH  14  15
ENDBRANCH  13  14
ENDBRANCH   7  13
BRANCH   8  18
HETATM   18  C12 UNL     1      26.763  -0.122  52.785  1.00  0.00     0.013 C 
HETATM   19  C13 UNL     1      26.816  -1.593  52.539  1.00  0.00     0.015 C 
HETATM   20  C14 UNL     1      27.233   0.099  54.231  1.00  0.00     0.015 C 
ENDBRANCH   8  18
ENDBRANCH   1   4
BRANCH   1  21
HETATM   21  C9  UNL     1      21.845  -0.967  54.912  1.00  0.00     0.255 C 
HETATM   22  O1  UNL     1      22.175  -2.041  55.396  1.00  0.00    -0.305 OA
ENDBRANCH   1  21
TORSDOF 7
ENDMDL
MODEL 3
REMARK VINA RESULT:      -6.8      2.340      4.780
REMARK  7 active torsions:
REMARK  status: ('A' for Active; 'I' for Inactive)
REMARK    1  A    between atoms: C2_2  and  C4_4 
REMARK    2  A    between atoms: C6_6  and  C7_7 
REMARK    3  A    between atoms: C7_7  and  C9_10 
REMARK    4  A    between atoms: C11_13  and  C12_14 
REMARK    5  A    between atoms: C15_17  and  O2_18 
REMARK    6  A    between atoms: O2_18  and  C16_19 
REMARK    7  A    between atoms: C16_19  and  N2_20 
ROOT
HETATM    1  C7  UNL     1      27.017   0.029  52.916  1.00  0.00     0.186 C 
HETATM    2  C8  UNL     1      27.164  -1.423  52.786  1.00  0.00     0.075 C 
HETATM    3  N1  UNL     1      27.270  -2.576  52.697  1.00  0.00    -0.196 NA
ENDROOT
BRANCH   1   4
HETATM    4  C6  UNL     1      25.574   0.371  52.889  1.00  0.00    -0.033 A 
HETATM    5  C5  UNL     1      24.614  -0.298  53.650  1.00  0.00     0.019 A 
HETATM    6  C4  UNL     1      23.273   0.060  53.591  1.00  0.00    -0.020 A 
HETATM    7  C15 UNL     1      22.833   1.082  52.786  1.00  0.00     0.084 A 
HETATM    8  C11 UNL     1      23.754   1.754  52.031  1.00  0.00    -0.020 A 
HETATM    9  C10 UNL     1      25.088   1.407  52.082  1.00  0.00     0.019 A 
BRANCH   6  10
HETATM   10  C2  UNL     1      22.466  -0.790  54.500  1.00  0.00     0.013 C 
HETATM   11  C1  UNL     1      23.309  -1.347  55.633  1.00  0.00     0.015 C 
HETATM   12  C3  UNL     1      21.688  -1.866  53.791  1.00  0.00     0.015 C 
ENDBRANCH   6  10
BRANCH   7  13
HETATM   13  O2  UNL     1      21.478   1.356  52.802  1.00  0.00    -0.321 OA
BRANCH  13  14
HETATM   14  C16 UNL     1      20.671   0.890  51.752  1.00  0.00     0.441 C 
BRANCH  14  15
HETATM   15  N2  UNL     1      19.370   0.437  52.219  1.00  0.00     0.101 N 
HETATM   16  H21 UNL     1      19.392  -0.606  52.175  1.00  0.00     0.315 HD
HETATM   17  H22 UNL     1      19.235   0.671  53.234  1.00  0.00     0.315 HD
ENDBRANCH  14  15
ENDBRANCH  13  14
ENDBRANCH   7  13
BRANCH   8  18
HETATM   18  C12 UNL     1      23.346   2.870  51.141  1.00  0.00     0.013 C 
HETATM   19  C13 UNL     1      24.220   3.055  49.946  1.00  0.00     0.015 C 
HETATM   20  C14 UNL     1      23.474   4.148  51.982  1.00  0.00     0.015 C 
ENDBRANCH   8  18
ENDBRANCH   1   4
BRANCH   1  21
HETATM   21  C9  UNL     1      27.687   0.523  54.148  1.00  0.00     0.255 C 
HETATM   22  O1  UNL     1      28.001  -0.238  55.053  1.00  0.00    -0.305 OA
ENDBRANCH   1  21
TORSDOF 7
ENDMDL
MODEL 4
REMARK VINA RESULT:      -6.7      2.822      5.006
REMARK  7 active torsions:
REMARK  status: ('A' for Active; 'I' for Inactive)
REMARK    1  A    between atoms: C2_2  and  C4_4 
REMARK    2  A    between atoms: C6_6  and  C7_7 
REMARK    3  A    between atoms: C7_7  and  C9_10 
REMARK    4  A    between atoms: C11_13  and  C12_14 
REMARK    5  A    between atoms: C15_17  and  O2_18 
REMARK    6  A    between atoms: O2_18  and  C16_19 
REMARK    7  A    between atoms: C16_19  and  N2_20 
ROOT
HETATM    1  C7  UNL     1      27.258   0.853  53.055  1.00  0.00     0.186 C 
HETATM    2  C8  UNL     1      26.813   0.247  54.313  1.00  0.00     0.075 C 
HETATM    3  N1  UNL     1      26.451  -0.218  55.313  1.00  0.00    -0.196 NA
ENDROOT
BRANCH   1   4
HETATM    4  C6  UNL     1      26.072   1.337  52.307  1.00  0.00    -0.033 A 
HETATM    5  C5  UNL     1      26.130   2.365  51.364  1.00  0.00     0.019 A 
HETATM    6  C4  UNL     1      24.991   2.784  50.689  1.00  0.00    -0.020 A 
HETATM    7  C15 UNL     1      23.764   2.211  50.916  1.00  0.00     0.084 A 
HETATM    8  C11 UNL     1      23.681   1.202  51.834  1.00  0.00    -0.020 A 
HETATM    9  C10 UNL     1      24.805   0.777  52.511  1.00  0.00     0.019 A 
BRANCH   6  10
HETATM   10  C2  UNL     1      25.321   3.873  49.737  1.00  0.00     0.013 C 
HETATM   11  C1  UNL     1      26.775   3.812  49.307  1.00  0.00     0.015 C 
HETATM   12  C3  UNL     1      24.931   5.242  50.224  1.00  0.00     0.015 C 
ENDBRANCH   6  10
BRANCH   7  13
HETATM   13  O2  UNL     1      22.695   2.704  50.189  1.00  0.00    -0.321 OA
BRANCH  13  14
HETATM   14  C16 UNL     1      22.496   2.258  48.873  1.00  0.00     0.441 C 
BRANCH  14  15
HETATM   15  N2  UNL     1      21.490   1.211  48.796  1.00  0.00     0.101 N 
HETATM   16  H21 UNL     1      20.592   1.687  48.560  1.00  0.00     0.315 HD
HETATM   17  H22 UNL     1      21.685   0.565  47.990  1.00  0.00     0.315 HD
ENDBRANCH  14  15
ENDBRANCH  13  14
ENDBRANCH   7  13
BRANCH   8  18
HETATM   18  C12 UNL     1      22.386   0.537  52.127  1.00  0.00     0.013 C 
HETATM   19  C13 UNL     1      21.422   1.380  52.892  1.00  0.00     0.015 C 
HETATM   20  C14 UNL     1      22.722  -0.667  53.019  1.00  0.00     0.015 C 
ENDBRANCH   8  18
ENDBRANCH   1   4
BRANCH   1  21
HETATM   21  C9  UNL     1      28.244   1.938  53.306  1.00  0.00     0.255 C 
HETATM   22  O1  UNL     1      28.130   2.694  54.262  1.00  0.00    -0.305 OA
ENDBRANCH   1  21
TORSDOF 7
ENDMDL
MODEL 5
REMARK VINA RESULT:      -6.7      2.489      4.684
REMARK  7 active torsions:
REMARK  status: ('A' for Active; 'I' for Inactive)
REMARK    1  A    between atoms: C2_2  and  C4_4 
REMARK    2  A    between atoms: C6_6  and  C7_7 
REMARK    3  A    between atoms: C7_7  and  C9_10 
REMARK    4  A    between atoms: C11_13  and  C12_14 
REMARK    5  A    between atoms: C15_17  and  O2_18 
REMARK    6  A    between atoms: O2_18  and  C16_19 
REMARK    7  A    between atoms: C16_19  and  N2_20 
ROOT
HETATM    1  C7  UNL     1      26.066  -0.693  53.602  1.00  0.00     0.186 C 
HETATM    2  C8  UNL     1      27.070   0.095  54.322  1.00  0.00     0.075 C 
HETATM    3  N1  UNL     1      27.867   0.730  54.878  1.00  0.00    -0.196 NA
ENDROOT
BRANCH   1   4
HETATM    4  C6  UNL     1      25.032   0.222  53.061  1.00  0.00    -0.033 A 
HETATM    5  C5  UNL     1      23.675   0.111  53.369  1.00  0.00     0.019 A 
HETATM    6  C4  UNL     1      22.743   0.993  52.837  1.00  0.00    -0.020 A 
HETATM    7  C15 UNL     1      23.111   2.008  51.988  1.00  0.00     0.084 A 
HETATM    8  C11 UNL     1      24.435   2.138  51.671  1.00  0.00    -0.020 A 
HETATM    9  C10 UNL     1      25.369   1.268  52.193  1.00  0.00     0.019 A 
BRANCH   6  10
HETATM   10  C2  UNL     1      21.381   0.671  53.328  1.00  0.00     0.013 C 
HETATM   11  C1  UNL     1      21.431  -0.135  54.613  1.00  0.00     0.015 C 
HETATM   12  C3  UNL     1      20.499   0.030  52.291  1.00  0.00     0.015 C 
ENDBRANCH   6  10
BRANCH   7  13
HETATM   13  O2  UNL     1      22.104   2.829  51.515  1.00  0.00    -0.321 OA
BRANCH  13  14
HETATM   14  C16 UNL     1      21.722   3.950  52.268  1.00  0.00     0.441 C 
BRANCH  14  15
HETATM   15  N2  UNL     1      22.005   5.198  51.577  1.00  0.00     0.101 N 
HETATM   16  H21 UNL     1      22.665   5.726  52.188  1.00  0.00     0.315 HD
HETATM   17  H22 UNL     1      22.530   5.020  50.685  1.00  0.00     0.315 HD
ENDBRANCH  14  15
ENDBRANCH  13  14
ENDBRANCH   7  13
BRANCH   8  18
HETATM   18  C12 UNL     1      24.901   3.215  50.760  1.00  0.00     0.013 C 
HETATM   19  C13 UNL     1      24.358   3.126  49.374  1.00  0.00     0.015 C 
HETATM   20  C14 UNL     1      26.423   3.042  50.649  1.00  0.00     0.015 C 
ENDBRANCH   8  18
ENDBRANCH   1   4
BRANCH   1  21
HETATM   21  C9  UNL     1      26.700  -1.515  52.536  1.00  0.00     0.255 C 
HETATM   22  O1  UNL     1      27.349  -2.517  52.805  1.00  0.00    -0.305 OA
ENDBRANCH   1  21
TORSDOF 7
ENDMDL
MODEL 6
REMARK VINA RESULT:      -6.7      1.519      1.984
REMARK  7 active torsions:
REMARK  status: ('A' for Active; 'I' for Inactive)
REMARK    1  A    between atoms: C2_2  and  C4_4 
REMARK    2  A    between atoms: C6_6  and  C7_7 
REMARK    3  A    between atoms: C7_7  and  C9_10 
REMARK    4  A    between atoms: C11_13  and  C12_14 
REMARK    5  A    between atoms: C15_17  and  O2_18 
REMARK    6  A    between atoms: O2_18  and  C16_19 
REMARK    7  A    between atoms: C16_19  and  N2_20 
ROOT
HETATM    1  C7  UNL     1      21.792  -1.055  53.621  1.00  0.00     0.186 C 
HETATM    2  C8  UNL     1      20.353  -0.821  53.475  1.00  0.00     0.075 C 
HETATM    3  N1  UNL     1      19.216  -0.618  53.363  1.00  0.00    -0.196 NA
ENDROOT
BRANCH   1   4
HETATM    4  C6  UNL     1      22.527  -0.080  52.778  1.00  0.00    -0.033 A 
HETATM    5  C5  UNL     1      23.882   0.211  52.948  1.00  0.00     0.019 A 
HETATM    6  C4  UNL     1      24.527   1.132  52.134  1.00  0.00    -0.020 A 
HETATM    7  C15 UNL     1      23.865   1.795  51.128  1.00  0.00     0.084 A 
HETATM    8  C11 UNL     1      22.538   1.527  50.940  1.00  0.00    -0.020 A 
HETATM    9  C10 UNL     1      21.888   0.614  51.744  1.00  0.00     0.019 A 
BRANCH   6  10
HETATM   10  C2  UNL     1      25.957   1.248  52.509  1.00  0.00     0.013 C 
HETATM   11  C1  UNL     1      26.632  -0.110  52.549  1.00  0.00     0.015 C 
HETATM   12  C3  UNL     1      26.189   2.034  53.771  1.00  0.00     0.015 C 
ENDBRANCH   6  10
BRANCH   7  13
HETATM   13  O2  UNL     1      24.602   2.691  50.376  1.00  0.00    -0.321 OA
BRANCH  13  14
HETATM   14  C16 UNL     1      24.624   4.045  50.748  1.00  0.00     0.441 C 
BRANCH  14  15
HETATM   15  N2  UNL     1      25.901   4.674  50.456  1.00  0.00     0.101 N 
HETATM   16  H21 UNL     1      26.525   4.458  51.264  1.00  0.00     0.315 HD
HETATM   17  H22 UNL     1      26.358   4.225  49.623  1.00  0.00     0.315 HD
ENDBRANCH  14  15
ENDBRANCH  13  14
ENDBRANCH   7  13
BRANCH   8  18
HETATM   18  C12 UNL     1      21.764   2.207  49.871  1.00  0.00     0.013 C 
HETATM   19  C13 UNL     1      20.445   2.745  50.314  1.00  0.00     0.015 C 
HETATM   20  C14 UNL     1      21.469   1.131  48.815  1.00  0.00     0.015 C 
ENDBRANCH   8  18
ENDBRANCH   1   4
BRANCH   1  21
HETATM   21  C9  UNL     1      22.201  -0.981  55.049  1.00  0.00     0.255 C 
HETATM   22  O1  UNL     1      22.688  -1.945  55.624  1.00  0.00    -0.305 OA
ENDBRANCH   1  21
TORSDOF 7
ENDMDL
MODEL 7
REMARK VINA RESULT:      -6.6      2.319      4.969
REMARK  7 active torsions:
REMARK  status: ('A' for Active; 'I' for Inactive)
REMARK    1  A    between atoms: C2_2  and  C4_4 
REMARK    2  A    between atoms: C6_6  and  C7_7 
REMARK    3  A    between atoms: C7_7  and  C9_10 
REMARK    4  A    between atoms: C11_13  and  C12_14 
REMARK    5  A    between atoms: C15_17  and  O2_18 
REMARK    6  A    between atoms: O2_18  and  C16_19 
REMARK    7  A    between atoms: C16_19  and  N2_20 
ROOT
HETATM    1  C7  UNL     1      26.448  -0.775  53.791  1.00  0.00     0.186 C 
HETATM    2  C8  UNL     1      27.343   0.235  54.359  1.00  0.00     0.075 C 
HETATM    3  N1  UNL     1      28.052   1.045  54.794  1.00  0.00    -0.196 NA
ENDROOT
BRANCH   1   4
HETATM    4  C6  UNL     1      25.260  -0.099  53.215  1.00  0.00    -0.033 A 
HETATM    5  C5  UNL     1      25.346   0.989  52.345  1.00  0.00     0.019 A 
HETATM    6  C4  UNL     1      24.204   1.590  51.832  1.00  0.00    -0.020 A 
HETATM    7  C15 UNL     1      22.945   1.143  52.154  1.00  0.00     0.084 A 
HETATM    8  C11 UNL     1      22.834   0.078  53.005  1.00  0.00    -0.020 A 
HETATM    9  C10 UNL     1      23.962  -0.525  53.520  1.00  0.00     0.019 A 
BRANCH   6  10
HETATM   10  C2  UNL     1      24.565   2.708  50.926  1.00  0.00     0.013 C 
HETATM   11  C1  UNL     1      26.029   2.651  50.531  1.00  0.00     0.015 C 
HETATM   12  C3  UNL     1      24.172   4.062  51.451  1.00  0.00     0.015 C 
ENDBRANCH   6  10
BRANCH   7  13
HETATM   13  O2  UNL     1      21.876   1.813  51.588  1.00  0.00    -0.321 OA
BRANCH  13  14
HETATM   14  C16 UNL     1      21.376   1.384  50.348  1.00  0.00     0.441 C 
BRANCH  14  15
HETATM   15  N2  UNL     1      20.000   0.924  50.441  1.00  0.00     0.101 N 
HETATM   16  H21 UNL     1      19.989   0.184  51.177  1.00  0.00     0.315 HD
HETATM   17  H22 UNL     1      19.375   1.687  50.802  1.00  0.00     0.315 HD
ENDBRANCH  14  15
ENDBRANCH  13  14
ENDBRANCH   7  13
BRANCH   8  18
HETATM   18  C12 UNL     1      21.504  -0.455  53.393  1.00  0.00     0.013 C 
HETATM   19  C13 UNL     1      20.764   0.392  54.373  1.00  0.00     0.015 C 
HETATM   20  C14 UNL     1      21.776  -1.797  54.089  1.00  0.00     0.015 C 
ENDBRANCH   8  18
ENDBRANCH   1   4
BRANCH   1  21
HETATM   21  C9  UNL     1      27.158  -1.611  52.787  1.00  0.00     0.255 C 
HETATM   22  O1  UNL     1      27.826  -2.581  53.121  1.00  0.00    -0.305 OA
ENDBRANCH   1  21
TORSDOF 7
ENDMDL
MODEL 8
REMARK VINA RESULT:      -6.6      2.027      5.916
REMARK  7 active torsions:
REMARK  status: ('A' for Active; 'I' for Inactive)
REMARK    1  A    between atoms: C2_2  and  C4_4 
REMARK    2  A    between atoms: C6_6  and  C7_7 
REMARK    3  A    between atoms: C7_7  and  C9_10 
REMARK    4  A    between atoms: C11_13  and  C12_14 
REMARK    5  A    between atoms: C15_17  and  O2_18 
REMARK    6  A    between atoms: O2_18  and  C16_19 
REMARK    7  A    between atoms: C16_19  and  N2_20 
ROOT
HETATM    1  C7  UNL     1      25.122   3.293  50.654  1.00  0.00     0.186 C 
HETATM    2  C8  UNL     1      24.170   3.677  49.609  1.00  0.00     0.075 C 
HETATM    3  N1  UNL     1      23.415   3.963  48.774  1.00  0.00    -0.196 NA
ENDROOT
BRANCH   1   4
HETATM    4  C6  UNL     1      24.563   2.152  51.420  1.00  0.00    -0.033 A 
HETATM    5  C5  UNL     1      23.201   1.847  51.455  1.00  0.00     0.019 A 
HETATM    6  C4  UNL     1      22.726   0.767  52.188  1.00  0.00    -0.020 A 
HETATM    7  C15 UNL     1      23.569  -0.045  52.907  1.00  0.00     0.084 A 
HETATM    8  C11 UNL     1      24.907   0.233  52.888  1.00  0.00    -0.020 A 
HETATM    9  C10 UNL     1      25.390   1.303  52.164  1.00  0.00     0.019 A 
BRANCH   6  10
HETATM   10  C2  UNL     1      21.254   0.651  52.049  1.00  0.00     0.013 C 
HETATM   11  C1  UNL     1      20.822   0.780  50.600  1.00  0.00     0.015 C 
HETATM   12  C3  UNL     1      20.486   1.576  52.954  1.00  0.00     0.015 C 
ENDBRANCH   6  10
BRANCH   7  13
HETATM   13  O2  UNL     1      22.991  -1.092  53.601  1.00  0.00    -0.321 OA
BRANCH  13  14
HETATM   14  C16 UNL     1      22.579  -0.891  54.928  1.00  0.00     0.441 C 
BRANCH  14  15
HETATM   15  N2  UNL     1      23.393  -1.637  55.875  1.00  0.00     0.101 N 
HETATM   16  H21 UNL     1      23.079  -1.340  56.825  1.00  0.00     0.315 HD
HETATM   17  H22 UNL     1      23.184  -2.665  55.819  1.00  0.00     0.315 HD
ENDBRANCH  14  15
ENDBRANCH  13  14
ENDBRANCH   7  13
BRANCH   8  18
HETATM   18  C12 UNL     1      25.873  -0.606  53.643  1.00  0.00     0.013 C 
HETATM   19  C13 UNL     1      26.542   0.095  54.777  1.00  0.00     0.015 C 
HETATM   20  C14 UNL     1      26.978  -0.979  52.643  1.00  0.00     0.015 C 
ENDBRANCH   8  18
ENDBRANCH   1   4
BRANCH   1  21
HETATM   21  C9  UNL     1      26.454   2.978  50.071  1.00  0.00     0.255 C 
HETATM   22  O1  UNL     1      27.165   3.853  49.596  1.00  0.00    -0.305 OA
ENDBRANCH   1  21
TORSDOF 7
ENDMDL
MODEL 9
REMARK VINA RESULT:      -6.6      1.674      3.758
REMARK  7 active torsions:
REMARK  status: ('A' for Active; 'I' for Inactive)
REMARK    1  A    between atoms: C2_2  and  C4_4 
REMARK    2  A    between atoms: C6_6  and  C7_7 
REMARK    3  A    between atoms: C7_7  and  C9_10 
REMARK    4  A    between atoms: C11_13  and  C12_14 
REMARK    5  A    between atoms: C15_17  and  O2_18 
REMARK    6  A    between atoms: O2_18  and  C16_19 
REMARK    7  A    between atoms: C16_19  and  N2_20 
ROOT
HETATM    1  C7  UNL     1      21.693  -1.016  53.578  1.00  0.00     0.186 C 
HETATM    2  C8  UNL     1      20.244  -0.819  53.493  1.00  0.00     0.075 C 
HETATM    3  N1  UNL     1      19.098  -0.646  53.429  1.00  0.00    -0.196 NA
ENDROOT
BRANCH   1   4
HETATM    4  C6  UNL     1      22.367  -0.028  52.700  1.00  0.00    -0.033 A 
HETATM    5  C5  UNL     1      21.740   0.583  51.613  1.00  0.00     0.019 A 
HETATM    6  C4  UNL     1      22.413   1.503  50.820  1.00  0.00    -0.020 A 
HETATM    7  C15 UNL     1      23.719   1.851  51.067  1.00  0.00     0.084 A 
HETATM    8  C11 UNL     1      24.355   1.267  52.127  1.00  0.00    -0.020 A 
HETATM    9  C10 UNL     1      23.696   0.352  52.921  1.00  0.00     0.019 A 
BRANCH   6  10
HETATM   10  C2  UNL     1      21.526   2.014  49.747  1.00  0.00     0.013 C 
HETATM   11  C1  UNL     1      20.068   1.971  50.166  1.00  0.00     0.015 C 
HETATM   12  C3  UNL     1      21.751   1.358  48.412  1.00  0.00     0.015 C 
ENDBRANCH   6  10
BRANCH   7  13
HETATM   13  O2  UNL     1      24.294   2.777  50.216  1.00  0.00    -0.321 OA
BRANCH  13  14
HETATM   14  C16 UNL     1      24.386   4.118  50.620  1.00  0.00     0.441 C 
BRANCH  14  15
HETATM   15  N2  UNL     1      25.751   4.614  50.570  1.00  0.00     0.101 N 
HETATM   16  H21 UNL     1      26.072   4.685  51.561  1.00  0.00     0.315 HD
HETATM   17  H22 UNL     1      26.389   3.911  50.120  1.00  0.00     0.315 HD
ENDBRANCH  14  15
ENDBRANCH  13  14
ENDBRANCH   7  13
BRANCH   8  18
HETATM   18  C12 UNL     1      25.766   1.600  52.450  1.00  0.00     0.013 C 
HETATM   19  C13 UNL     1      26.771   0.691  51.825  1.00  0.00     0.015 C 
HETATM   20  C14 UNL     1      25.901   1.427  53.970  1.00  0.00     0.015 C 
ENDBRANCH   8  18
ENDBRANCH   1   4
BRANCH   1  21
HETATM   21  C9  UNL     1      22.161  -0.924  54.987  1.00  0.00     0.255 C 
HETATM   22  O1  UNL     1      22.584  -1.905  55.584  1.00  0.00    -0.305 OA
ENDBRANCH   1  21
TORSDOF 7
ENDMDL
