MODEL 1
REMARK VINA RESULT:      -7.6      0.000      0.000
REMARK  4 active torsions:
REMARK  status: ('A' for Active; 'I' for Inactive)
REMARK    1  A    between atoms: O1_2  and  C2_3 
REMARK    2  A    between atoms: C6_10  and  O2_11 
REMARK    3  A    between atoms: O2_11  and  C7_12 
REMARK    4  A    between atoms: C15_21  and  O3_22 
ROOT
HETATM    1  C2  UNL     1      22.691  -0.908  53.529  1.00  0.00     0.148 C 
HETATM    2  C3  UNL     1      23.652  -0.009  53.198  1.00  0.00     0.021 C 
HETATM    3  C4  UNL     1      25.018  -0.133  53.786  1.00  0.00     0.040 C 
HETATM    4  P1  UNL     1      25.675   1.327  53.948  1.00  0.00    -0.010 P 
HETATM    5  N1  UNL     1      27.370   1.349  54.301  1.00  0.00    -0.359 N 
HETATM    6  C5  UNL     1      28.239   1.932  53.340  1.00  0.00     0.209 A 
HETATM    7  N2  UNL     1      27.907   2.416  52.213  1.00  0.00    -0.219 NA
HETATM    8  C6  UNL     1      26.628   2.496  51.656  1.00  0.00     0.183 A 
HETATM    9  C13 UNL     1      25.549   2.057  52.286  1.00  0.00     0.040 A 
HETATM   10  C14 UNL     1      24.171   2.004  51.831  1.00  0.00     0.055 C 
HETATM   11  C15 UNL     1      23.308   1.051  52.257  1.00  0.00     0.081 C 
HETATM   12  H6  UNL     1      24.945   2.140  54.854  1.00  0.00     0.083 HD
HETATM   13  H7  UNL     1      27.968   1.033  55.073  1.00  0.00     0.165 HD
ENDROOT
BRANCH   8  14
HETATM   14  O2  UNL     1      26.250   2.990  50.468  1.00  0.00    -0.291 OA
BRANCH  14  15
HETATM   15  C7  UNL     1      26.405   4.163  49.829  1.00  0.00     0.079 A 
HETATM   16  C8  UNL     1      27.404   4.498  48.939  1.00  0.00     0.037 A 
HETATM   17  C9  UNL     1      27.438   5.747  48.358  1.00  0.00     0.004 A 
HETATM   18  C10 UNL     1      26.438   6.630  48.705  1.00  0.00     0.019 A 
HETATM   19  C11 UNL     1      25.380   6.384  49.599  1.00  0.00     0.013 A 
HETATM   20 BR1  UNL     1      24.041   7.628  50.047  1.00  0.00    -0.051 Br
HETATM   21  C12 UNL     1      25.437   5.087  50.135  1.00  0.00     0.056 A 
ENDBRANCH  14  15
ENDBRANCH   8  14
BRANCH  11  22
HETATM   22  O3  UNL     1      22.079   1.253  51.658  1.00  0.00    -0.355 OA
HETATM   23  C16 UNL     1      21.983   1.388  50.234  1.00  0.00     0.210 C 
ENDBRANCH  11  22
BRANCH   1  24
HETATM   24  O1  UNL     1      21.420  -0.825  53.007  1.00  0.00    -0.367 OA
HETATM   25  C1  UNL     1      20.254  -0.828  53.795  1.00  0.00     0.208 C 
ENDBRANCH   1  24
TORSDOF 4
ENDMDL
MODEL 2
REMARK VINA RESULT:      -7.3      3.610      5.250
REMARK  4 active torsions:
REMARK  status: ('A' for Active; 'I' for Inactive)
REMARK    1  A    between atoms: O1_2  and  C2_3 
REMARK    2  A    between atoms: C6_10  and  O2_11 
REMARK    3  A    between atoms: O2_11  and  C7_12 
REMARK    4  A    between atoms: C15_21  and  O3_22 
ROOT
HETATM    1  C2  UNL     1      19.283   0.277  52.639  1.00  0.00     0.148 C 
HETATM    2  C3  UNL     1      20.560   0.602  52.316  1.00  0.00     0.021 C 
HETATM    3  C4  UNL     1      20.826   1.770  51.426  1.00  0.00     0.040 C 
HETATM    4  P1  UNL     1      22.155   1.502  50.559  1.00  0.00    -0.010 P 
HETATM    5  N1  UNL     1      22.793   2.878  49.723  1.00  0.00    -0.359 N 
HETATM    6  C5  UNL     1      24.083   3.340  50.097  1.00  0.00     0.209 A 
HETATM    7  N2  UNL     1      24.819   2.869  51.020  1.00  0.00    -0.219 NA
HETATM    8  C6  UNL     1      24.546   1.797  51.872  1.00  0.00     0.183 A 
HETATM    9  C13 UNL     1      23.422   1.100  51.802  1.00  0.00     0.040 A 
HETATM   10  C14 UNL     1      22.955   0.011  52.643  1.00  0.00     0.055 C 
HETATM   11  C15 UNL     1      21.638  -0.208  52.872  1.00  0.00     0.081 C 
HETATM   12  H6  UNL     1      22.008   0.388  49.691  1.00  0.00     0.083 HD
HETATM   13  H7  UNL     1      22.472   3.500  48.973  1.00  0.00     0.165 HD
ENDROOT
BRANCH   8  14
HETATM   14  O2  UNL     1      25.297   1.285  52.858  1.00  0.00    -0.291 OA
BRANCH  14  15
HETATM   15  C7  UNL     1      26.609   1.271  53.150  1.00  0.00     0.079 A 
HETATM   16  C8  UNL     1      27.399   2.355  53.475  1.00  0.00     0.037 A 
HETATM   17  C9  UNL     1      28.739   2.190  53.751  1.00  0.00     0.004 A 
HETATM   18  C10 UNL     1      29.242   0.908  53.686  1.00  0.00     0.019 A 
HETATM   19  C11 UNL     1      28.521  -0.257  53.366  1.00  0.00     0.013 A 
HETATM   20 BR1  UNL     1      29.257  -1.987  53.284  1.00  0.00    -0.051 Br
HETATM   21  C12 UNL     1      27.170   0.019  53.102  1.00  0.00     0.056 A 
ENDBRANCH  14  15
ENDBRANCH   8  14
BRANCH  11  22
HETATM   22  O3  UNL     1      21.500  -1.304  53.702  1.00  0.00    -0.355 OA
HETATM   23  C16 UNL     1      22.270  -1.397  54.908  1.00  0.00     0.210 C 
ENDBRANCH  11  22
BRANCH   1  24
HETATM   24  O1  UNL     1      19.000  -0.794  53.457  1.00  0.00    -0.367 OA
HETATM   25  C1  UNL     1      17.905  -1.655  53.260  1.00  0.00     0.208 C 
ENDBRANCH   1  24
TORSDOF 4
ENDMDL
MODEL 3
REMARK VINA RESULT:      -7.3      1.440      1.615
REMARK  4 active torsions:
REMARK  status: ('A' for Active; 'I' for Inactive)
REMARK    1  A    between atoms: O1_2  and  C2_3 
REMARK    2  A    between atoms: C6_10  and  O2_11 
REMARK    3  A    between atoms: O2_11  and  C7_12 
REMARK    4  A    between atoms: C15_21  and  O3_22 
ROOT
HETATM    1  C2  UNL     1      20.961  -0.876  53.742  1.00  0.00     0.148 C 
HETATM    2  C3  UNL     1      22.095  -0.242  53.348  1.00  0.00     0.021 C 
HETATM    3  C4  UNL     1      23.408  -0.947  53.436  1.00  0.00     0.040 C 
HETATM    4  P1  UNL     1      24.579   0.119  53.722  1.00  0.00    -0.010 P 
HETATM    5  N1  UNL     1      26.194  -0.475  53.527  1.00  0.00    -0.359 N 
HETATM    6  C5  UNL     1      26.994   0.107  52.508  1.00  0.00     0.209 A 
HETATM    7  N2  UNL     1      26.636   1.007  51.684  1.00  0.00    -0.219 NA
HETATM    8  C6  UNL     1      25.393   1.636  51.586  1.00  0.00     0.183 A 
HETATM    9  C13 UNL     1      24.387   1.354  52.400  1.00  0.00     0.040 A 
HETATM   10  C14 UNL     1      23.025   1.860  52.396  1.00  0.00     0.055 C 
HETATM   11  C15 UNL     1      21.980   1.118  52.834  1.00  0.00     0.081 C 
HETATM   12  H6  UNL     1      24.412   0.769  54.973  1.00  0.00     0.083 HD
HETATM   13  H7  UNL     1      26.779  -1.186  53.979  1.00  0.00     0.165 HD
ENDROOT
BRANCH   8  14
HETATM   14  O2  UNL     1      24.986   2.579  50.724  1.00  0.00    -0.291 OA
BRANCH  14  15
HETATM   15  C7  UNL     1      25.549   3.657  50.151  1.00  0.00     0.079 A 
HETATM   16  C8  UNL     1      26.665   3.677  49.340  1.00  0.00     0.037 A 
HETATM   17  C9  UNL     1      27.134   4.864  48.820  1.00  0.00     0.004 A 
HETATM   18  C10 UNL     1      26.443   6.011  49.146  1.00  0.00     0.019 A 
HETATM   19  C11 UNL     1      25.299   6.093  49.961  1.00  0.00     0.013 A 
HETATM   20 BR1  UNL     1      24.394   7.688  50.384  1.00  0.00    -0.051 Br
HETATM   21  C12 UNL     1      24.904   4.833  50.440  1.00  0.00     0.056 A 
ENDBRANCH  14  15
ENDBRANCH   8  14
BRANCH  11  22
HETATM   22  O3  UNL     1      20.818   1.856  52.711  1.00  0.00    -0.355 OA
HETATM   23  C16 UNL     1      20.876   3.231  52.310  1.00  0.00     0.210 C 
ENDBRANCH  11  22
BRANCH   1  24
HETATM   24  O1  UNL     1      19.733  -0.257  53.674  1.00  0.00    -0.367 OA
HETATM   25  C1  UNL     1      18.580  -0.874  53.157  1.00  0.00     0.208 C 
ENDBRANCH   1  24
TORSDOF 4
ENDMDL
MODEL 4
REMARK VINA RESULT:      -7.1      3.106      5.325
REMARK  4 active torsions:
REMARK  status: ('A' for Active; 'I' for Inactive)
REMARK    1  A    between atoms: O1_2  and  C2_3 
REMARK    2  A    between atoms: C6_10  and  O2_11 
REMARK    3  A    between atoms: O2_11  and  C7_12 
REMARK    4  A    between atoms: C15_21  and  O3_22 
ROOT
HETATM    1  C2  UNL     1      27.786   0.132  54.674  1.00  0.00     0.148 C 
HETATM    2  C3  UNL     1      26.487   0.160  54.281  1.00  0.00     0.021 C 
HETATM    3  C4  UNL     1      25.425  -0.367  55.188  1.00  0.00     0.040 C 
HETATM    4  P1  UNL     1      24.220  -0.981  54.316  1.00  0.00    -0.010 P 
HETATM    5  N1  UNL     1      22.768  -1.333  55.191  1.00  0.00    -0.359 N 
HETATM    6  C5  UNL     1      21.596  -0.607  54.848  1.00  0.00     0.209 A 
HETATM    7  N2  UNL     1      21.503   0.315  53.978  1.00  0.00    -0.219 NA
HETATM    8  C6  UNL     1      22.511   0.826  53.157  1.00  0.00     0.183 A 
HETATM    9  C13 UNL     1      23.754   0.371  53.190  1.00  0.00     0.040 A 
HETATM   10  C14 UNL     1      24.926   0.827  52.462  1.00  0.00     0.055 C 
HETATM   11  C15 UNL     1      26.176   0.725  52.972  1.00  0.00     0.081 C 
HETATM   12  H6  UNL     1      24.640  -2.091  53.537  1.00  0.00     0.083 HD
HETATM   13  H7  UNL     1      22.498  -1.970  55.948  1.00  0.00     0.165 HD
ENDROOT
BRANCH   8  14
HETATM   14  O2  UNL     1      22.445   1.802  52.240  1.00  0.00    -0.291 OA
BRANCH  14  15
HETATM   15  C7  UNL     1      22.191   1.857  50.921  1.00  0.00     0.079 A 
HETATM   16  C8  UNL     1      21.595   0.881  50.149  1.00  0.00     0.037 A 
HETATM   17  C9  UNL     1      21.398   1.076  48.799  1.00  0.00     0.004 A 
HETATM   18  C10 UNL     1      21.821   2.276  48.268  1.00  0.00     0.019 A 
HETATM   19  C11 UNL     1      22.436   3.330  48.970  1.00  0.00     0.013 A 
HETATM   20 BR1  UNL     1      23.001   4.949  48.196  1.00  0.00    -0.051 Br
HETATM   21  C12 UNL     1      22.590   3.032  50.333  1.00  0.00     0.056 A 
ENDBRANCH  14  15
ENDBRANCH   8  14
BRANCH  11  22
HETATM   22  O3  UNL     1      27.080   1.238  52.061  1.00  0.00    -0.355 OA
HETATM   23  C16 UNL     1      26.716   2.348  51.230  1.00  0.00     0.210 C 
ENDBRANCH  11  22
BRANCH   1  24
HETATM   24  O1  UNL     1      28.791   0.609  53.863  1.00  0.00    -0.367 OA
HETATM   25  C1  UNL     1      29.958  -0.118  53.563  1.00  0.00     0.208 C 
ENDBRANCH   1  24
TORSDOF 4
ENDMDL
MODEL 5
REMARK VINA RESULT:      -7.0      3.391      6.701
REMARK  4 active torsions:
REMARK  status: ('A' for Active; 'I' for Inactive)
REMARK    1  A    between atoms: O1_2  and  C2_3 
REMARK    2  A    between atoms: C6_10  and  O2_11 
REMARK    3  A    between atoms: O2_11  and  C7_12 
REMARK    4  A    between atoms: C15_21  and  O3_22 
ROOT
HETATM    1  C2  UNL     1      28.241   0.679  53.104  1.00  0.00     0.148 C 
HETATM    2  C3  UNL     1      26.969   1.016  52.776  1.00  0.00     0.021 C 
HETATM    3  C4  UNL     1      26.715   2.209  51.915  1.00  0.00     0.040 C 
HETATM    4  P1  UNL     1      25.306   2.876  52.311  1.00  0.00    -0.010 P 
HETATM    5  N1  UNL     1      24.702   4.061  51.202  1.00  0.00    -0.359 N 
HETATM    6  C5  UNL     1      23.482   3.779  50.531  1.00  0.00     0.209 A 
HETATM    7  N2  UNL     1      22.791   2.717  50.629  1.00  0.00    -0.219 NA
HETATM    8  C6  UNL     1      23.054   1.591  51.412  1.00  0.00     0.183 A 
HETATM    9  C13 UNL     1      24.117   1.503  52.197  1.00  0.00     0.040 A 
HETATM   10  C14 UNL     1      24.572   0.393  53.017  1.00  0.00     0.055 C 
HETATM   11  C15 UNL     1      25.884   0.179  53.277  1.00  0.00     0.081 C 
HETATM   12  H6  UNL     1      25.304   3.364  53.644  1.00  0.00     0.083 HD
HETATM   13  H7  UNL     1      25.005   4.983  50.868  1.00  0.00     0.165 HD
ENDROOT
BRANCH   8  14
HETATM   14  O2  UNL     1      22.350   0.455  51.529  1.00  0.00    -0.291 OA
BRANCH  14  15
HETATM   15  C7  UNL     1      21.123   0.134  51.974  1.00  0.00     0.079 A 
HETATM   16  C8  UNL     1      20.801  -0.401  53.204  1.00  0.00     0.037 A 
HETATM   17  C9  UNL     1      19.491  -0.684  53.526  1.00  0.00     0.004 A 
HETATM   18  C10 UNL     1      18.535  -0.410  52.571  1.00  0.00     0.019 A 
HETATM   19  C11 UNL     1      18.762   0.134  51.294  1.00  0.00     0.013 A 
HETATM   20 BR1  UNL     1      17.422   0.484  50.021  1.00  0.00    -0.051 Br
HETATM   21  C12 UNL     1      20.125   0.384  51.065  1.00  0.00     0.056 A 
ENDBRANCH  14  15
ENDBRANCH   8  14
BRANCH  11  22
HETATM   22  O3  UNL     1      26.010  -0.941  54.076  1.00  0.00    -0.355 OA
HETATM   23  C16 UNL     1      25.213  -1.076  55.260  1.00  0.00     0.210 C 
ENDBRANCH  11  22
BRANCH   1  24
HETATM   24  O1  UNL     1      28.512  -0.414  53.896  1.00  0.00    -0.367 OA
HETATM   25  C1  UNL     1      29.632  -1.246  53.715  1.00  0.00     0.208 C 
ENDBRANCH   1  24
TORSDOF 4
ENDMDL
MODEL 6
REMARK VINA RESULT:      -7.0      3.030      7.275
REMARK  4 active torsions:
REMARK  status: ('A' for Active; 'I' for Inactive)
REMARK    1  A    between atoms: O1_2  and  C2_3 
REMARK    2  A    between atoms: C6_10  and  O2_11 
REMARK    3  A    between atoms: O2_11  and  C7_12 
REMARK    4  A    between atoms: C15_21  and  O3_22 
ROOT
HETATM    1  C2  UNL     1      25.762   2.774  51.694  1.00  0.00     0.148 C 
HETATM    2  C3  UNL     1      24.891   1.892  52.246  1.00  0.00     0.021 C 
HETATM    3  C4  UNL     1      25.281   1.132  53.470  1.00  0.00     0.040 C 
HETATM    4  P1  UNL     1      24.567  -0.311  53.465  1.00  0.00    -0.010 P 
HETATM    5  N1  UNL     1      24.643  -1.188  54.956  1.00  0.00    -0.359 N 
HETATM    6  C5  UNL     1      23.420  -1.463  55.624  1.00  0.00     0.209 A 
HETATM    7  N2  UNL     1      22.258  -1.098  55.260  1.00  0.00    -0.219 NA
HETATM    8  C6  UNL     1      21.906  -0.356  54.131  1.00  0.00     0.183 A 
HETATM    9  C13 UNL     1      22.801   0.070  53.252  1.00  0.00     0.040 A 
HETATM   10  C14 UNL     1      22.617   0.898  52.072  1.00  0.00     0.055 C 
HETATM   11  C15 UNL     1      23.584   1.731  51.619  1.00  0.00     0.081 C 
HETATM   12  H6  UNL     1      24.991  -1.109  52.370  1.00  0.00     0.083 HD
HETATM   13  H7  UNL     1      25.384  -1.596  55.536  1.00  0.00     0.165 HD
ENDROOT
BRANCH   8  14
HETATM   14  O2  UNL     1      20.694   0.051  53.727  1.00  0.00    -0.291 OA
BRANCH  14  15
HETATM   15  C7  UNL     1      19.558  -0.561  53.349  1.00  0.00     0.079 A 
HETATM   16  C8  UNL     1      18.966  -1.655  53.946  1.00  0.00     0.037 A 
HETATM   17  C9  UNL     1      17.795  -2.181  53.445  1.00  0.00     0.004 A 
HETATM   18  C10 UNL     1      17.254  -1.568  52.334  1.00  0.00     0.019 A 
HETATM   19  C11 UNL     1      17.781  -0.453  51.656  1.00  0.00     0.013 A 
HETATM   20 BR1  UNL     1      17.008   0.343  50.137  1.00  0.00    -0.051 Br
HETATM   21  C12 UNL     1      18.971   0.004  52.244  1.00  0.00     0.056 A 
ENDBRANCH  14  15
ENDBRANCH   8  14
BRANCH  11  22
HETATM   22  O3  UNL     1      23.126   2.384  50.491  1.00  0.00    -0.355 OA
HETATM   23  C16 UNL     1      22.303   1.694  49.542  1.00  0.00     0.210 C 
ENDBRANCH  11  22
BRANCH   1  24
HETATM   24  O1  UNL     1      25.436   3.493  50.565  1.00  0.00    -0.367 OA
HETATM   25  C1  UNL     1      26.353   3.785  49.539  1.00  0.00     0.208 C 
ENDBRANCH   1  24
TORSDOF 4
ENDMDL
MODEL 7
REMARK VINA RESULT:      -6.8      3.053      4.069
REMARK  4 active torsions:
REMARK  status: ('A' for Active; 'I' for Inactive)
REMARK    1  A    between atoms: O1_2  and  C2_3 
REMARK    2  A    between atoms: C6_10  and  O2_11 
REMARK    3  A    between atoms: O2_11  and  C7_12 
REMARK    4  A    between atoms: C15_21  and  O3_22 
ROOT
HETATM    1  C2  UNL     1      20.946  -0.030  53.167  1.00  0.00     0.148 C 
HETATM    2  C3  UNL     1      21.440   0.704  52.138  1.00  0.00     0.021 C 
HETATM    3  C4  UNL     1      20.576   1.006  50.959  1.00  0.00     0.040 C 
HETATM    4  P1  UNL     1      21.482   1.113  49.634  1.00  0.00    -0.010 P 
HETATM    5  N1  UNL     1      20.696   1.780  48.242  1.00  0.00    -0.359 N 
HETATM    6  C5  UNL     1      21.193   3.006  47.726  1.00  0.00     0.209 A 
HETATM    7  N2  UNL     1      22.145   3.700  48.203  1.00  0.00    -0.219 NA
HETATM    8  C6  UNL     1      22.926   3.427  49.328  1.00  0.00     0.183 A 
HETATM    9  C13 UNL     1      22.756   2.339  50.065  1.00  0.00     0.040 A 
HETATM   10  C14 UNL     1      23.427   1.938  51.289  1.00  0.00     0.055 C 
HETATM   11  C15 UNL     1      22.814   1.187  52.235  1.00  0.00     0.081 C 
HETATM   12  H6  UNL     1      22.125  -0.115  49.329  1.00  0.00     0.083 HD
HETATM   13  H7  UNL     1      19.909   1.513  47.640  1.00  0.00     0.165 HD
ENDROOT
BRANCH   8  14
HETATM   14  O2  UNL     1      23.928   4.142  49.859  1.00  0.00    -0.291 OA
BRANCH  14  15
HETATM   15  C7  UNL     1      25.111   4.602  49.418  1.00  0.00     0.079 A 
HETATM   16  C8  UNL     1      26.298   3.903  49.344  1.00  0.00     0.037 A 
HETATM   17  C9  UNL     1      27.442   4.508  48.869  1.00  0.00     0.004 A 
HETATM   18  C10 UNL     1      27.340   5.826  48.477  1.00  0.00     0.019 A 
HETATM   19  C11 UNL     1      26.180   6.621  48.513  1.00  0.00     0.013 A 
HETATM   20 BR1  UNL     1      26.094   8.421  47.972  1.00  0.00    -0.051 Br
HETATM   21  C12 UNL     1      25.075   5.913  49.012  1.00  0.00     0.056 A 
ENDBRANCH  14  15
ENDBRANCH   8  14
BRANCH  11  22
HETATM   22  O3  UNL     1      23.693   0.965  53.277  1.00  0.00    -0.355 OA
HETATM   23  C16 UNL     1      25.095   0.818  53.020  1.00  0.00     0.210 C 
ENDBRANCH  11  22
BRANCH   1  24
HETATM   24  O1  UNL     1      21.714  -0.327  54.270  1.00  0.00    -0.367 OA
HETATM   25  C1  UNL     1      21.885  -1.631  54.769  1.00  0.00     0.208 C 
ENDBRANCH   1  24
TORSDOF 4
ENDMDL
MODEL 8
REMARK VINA RESULT:      -6.7      2.191      2.637
REMARK  4 active torsions:
REMARK  status: ('A' for Active; 'I' for Inactive)
REMARK    1  A    between atoms: O1_2  and  C2_3 
REMARK    2  A    between atoms: C6_10  and  O2_11 
REMARK    3  A    between atoms: O2_11  and  C7_12 
REMARK    4  A    between atoms: C15_21  and  O3_22 
ROOT
HETATM    1  C2  UNL     1      21.098   0.938  52.095  1.00  0.00     0.148 C 
HETATM    2  C3  UNL     1      22.296   1.542  51.894  1.00  0.00     0.021 C 
HETATM    3  C4  UNL     1      23.527   0.978  52.523  1.00  0.00     0.040 C 
HETATM    4  P1  UNL     1      24.561   2.165  52.855  1.00  0.00    -0.010 P 
HETATM    5  N1  UNL     1      26.164   1.663  53.280  1.00  0.00    -0.359 N 
HETATM    6  C5  UNL     1      27.226   2.044  52.418  1.00  0.00     0.209 A 
HETATM    7  N2  UNL     1      27.125   2.694  51.330  1.00  0.00    -0.219 NA
HETATM    8  C6  UNL     1      25.964   3.188  50.731  1.00  0.00     0.183 A 
HETATM    9  C13 UNL     1      24.764   3.033  51.269  1.00  0.00     0.040 A 
HETATM   10  C14 UNL     1      23.462   3.421  50.754  1.00  0.00     0.055 C 
HETATM   11  C15 UNL     1      22.336   2.729  51.047  1.00  0.00     0.081 C 
HETATM   12  H6  UNL     1      24.034   3.079  53.804  1.00  0.00     0.083 HD
HETATM   13  H7  UNL     1      26.592   1.125  54.041  1.00  0.00     0.165 HD
ENDROOT
BRANCH   8  14
HETATM   14  O2  UNL     1      25.826   3.866  49.582  1.00  0.00    -0.291 OA
BRANCH  14  15
HETATM   15  C7  UNL     1      26.393   4.961  49.045  1.00  0.00     0.079 A 
HETATM   16  C8  UNL     1      25.777   6.165  48.772  1.00  0.00     0.037 A 
HETATM   17  C9  UNL     1      26.487   7.207  48.215  1.00  0.00     0.004 A 
HETATM   18  C10 UNL     1      27.822   6.987  47.949  1.00  0.00     0.019 A 
HETATM   19  C11 UNL     1      28.537   5.800  48.190  1.00  0.00     0.013 A 
HETATM   20 BR1  UNL     1      30.361   5.547  47.801  1.00  0.00    -0.051 Br
HETATM   21  C12 UNL     1      27.725   4.804  48.756  1.00  0.00     0.056 A 
ENDBRANCH  14  15
ENDBRANCH   8  14
BRANCH  11  22
HETATM   22  O3  UNL     1      21.260   3.328  50.420  1.00  0.00    -0.355 OA
HETATM   23  C16 UNL     1      21.417   3.915  49.121  1.00  0.00     0.210 C 
ENDBRANCH  11  22
BRANCH   1  24
HETATM   24  O1  UNL     1      19.943   1.430  51.530  1.00  0.00    -0.367 OA
HETATM   25  C1  UNL     1      18.942   0.614  50.974  1.00  0.00     0.208 C 
ENDBRANCH   1  24
TORSDOF 4
ENDMDL
MODEL 9
REMARK VINA RESULT:      -6.6      3.896      5.743
REMARK  4 active torsions:
REMARK  status: ('A' for Active; 'I' for Inactive)
REMARK    1  A    between atoms: O1_2  and  C2_3 
REMARK    2  A    between atoms: C6_10  and  O2_11 
REMARK    3  A    between atoms: O2_11  and  C7_12 
REMARK    4  A    between atoms: C15_21  and  O3_22 
ROOT
HETATM    1  C2  UNL     1      20.100   3.597  50.538  1.00  0.00     0.148 C 
HETATM    2  C3  UNL     1      21.028   2.871  51.210  1.00  0.00     0.021 C 
HETATM    3  C4  UNL     1      20.647   1.565  51.824  1.00  0.00     0.040 C 
HETATM    4  P1  UNL     1      21.524   1.310  53.149  1.00  0.00    -0.010 P 
HETATM    5  N1  UNL     1      21.449  -0.294  53.797  1.00  0.00    -0.359 N 
HETATM    6  C5  UNL     1      22.647  -1.058  53.813  1.00  0.00     0.209 A 
HETATM    7  N2  UNL     1      23.780  -0.700  53.362  1.00  0.00    -0.219 NA
HETATM    8  C6  UNL     1      24.120   0.512  52.757  1.00  0.00     0.183 A 
HETATM    9  C13 UNL     1      23.244   1.490  52.584  1.00  0.00     0.040 A 
HETATM   10  C14 UNL     1      23.410   2.774  51.923  1.00  0.00     0.055 C 
HETATM   11  C15 UNL     1      22.386   3.399  51.296  1.00  0.00     0.081 C 
HETATM   12  H6  UNL     1      21.273   2.286  54.148  1.00  0.00     0.083 HD
HETATM   13  H7  UNL     1      20.723  -0.893  54.205  1.00  0.00     0.165 HD
ENDROOT
BRANCH   8  14
HETATM   14  O2  UNL     1      25.301   0.912  52.265  1.00  0.00    -0.291 OA
BRANCH  14  15
HETATM   15  C7  UNL     1      26.539   1.074  52.764  1.00  0.00     0.079 A 
HETATM   16  C8  UNL     1      27.114   2.253  53.192  1.00  0.00     0.037 A 
HETATM   17  C9  UNL     1      28.402   2.269  53.682  1.00  0.00     0.004 A 
HETATM   18  C10 UNL     1      29.075   1.066  53.723  1.00  0.00     0.019 A 
HETATM   19  C11 UNL     1      28.577  -0.184  53.312  1.00  0.00     0.013 A 
HETATM   20 BR1  UNL     1      29.540  -1.799  53.381  1.00  0.00    -0.051 Br
HETATM   21  C12 UNL     1      27.261  -0.092  52.829  1.00  0.00     0.056 A 
ENDBRANCH  14  15
ENDBRANCH   8  14
BRANCH  11  22
HETATM   22  O3  UNL     1      22.840   4.591  50.765  1.00  0.00    -0.355 OA
HETATM   23  C16 UNL     1      23.432   5.581  51.616  1.00  0.00     0.210 C 
ENDBRANCH  11  22
BRANCH   1  24
HETATM   24  O1  UNL     1      20.416   4.806  49.959  1.00  0.00    -0.367 OA
HETATM   25  C1  UNL     1      19.919   5.223  48.711  1.00  0.00     0.208 C 
ENDBRANCH   1  24
TORSDOF 4
ENDMDL
