MODEL 1
REMARK VINA RESULT:      -8.5      0.000      0.000
REMARK  9 active torsions:
REMARK  status: ('A' for Active; 'I' for Inactive)
REMARK    1  A    between atoms: C2_2  and  C3_3 
REMARK    2  A    between atoms: C2_2  and  N1_12 
REMARK    3  A    between atoms: C3_3  and  O1_4 
REMARK    4  A    between atoms: O1_4  and  C4_5 
REMARK    5  A    between atoms: C4_5  and  C5_6 
REMARK    6  A    between atoms: C6_7  and  C7_9 
REMARK    7  A    between atoms: C7_9  and  C8_10 
REMARK    8  A    between atoms: C8_10  and  O2_11 
REMARK    9  A    between atoms: N1_12  and  C9_13 
ROOT
HETATM    1  C9  UNL     1      23.834   2.099  52.984  1.00  0.00     0.110 C 
HETATM    2  C10 UNL     1      25.314   2.058  53.124  1.00  0.00     0.009 C 
HETATM    3  C11 UNL     1      26.252   1.347  53.774  1.00  0.00    -0.011 A 
HETATM    4  C12 UNL     1      27.524   1.983  53.343  1.00  0.00     0.191 A 
HETATM    5  N2  UNL     1      28.712   1.409  53.853  1.00  0.00    -0.278 NA
HETATM    6  C13 UNL     1      28.799   0.423  54.643  1.00  0.00     0.227 A 
HETATM    7  N3  UNL     1      27.565  -0.113  55.012  1.00  0.00    -0.242 NA
HETATM    8  C14 UNL     1      26.379   0.224  54.685  1.00  0.00     0.065 A 
HETATM    9  C15 UNL     1      25.481  -0.710  55.402  1.00  0.00     0.029 C 
HETATM   10  C16 UNL     1      24.204  -1.124  55.302  1.00  0.00    -0.015 C 
HETATM   11  C17 UNL     1      22.834  -1.254  54.815  1.00  0.00     0.042 C 
HETATM   12  C18 UNL     1      21.890  -0.892  53.932  1.00  0.00    -0.016 C 
HETATM   13  C19 UNL     1      21.313  -0.166  52.775  1.00  0.00     0.011 C 
HETATM   14  C20 UNL     1      22.003   0.678  52.035  1.00  0.00    -0.009 C 
HETATM   15 BR1  UNL     1      20.841   1.394  50.671  1.00  0.00    -0.056 Br
HETATM   16  C21 UNL     1      23.446   0.958  52.083  1.00  0.00     0.075 C 
ENDROOT
BRANCH   1  17
HETATM   17  N1  UNL     1      23.263   3.336  52.620  1.00  0.00    -0.384 N 
HETATM   18  H13 UNL     1      22.563   3.838  53.249  1.00  0.00     0.160 HD
BRANCH  17  19
HETATM   19  C2  UNL     1      23.382   4.183  51.516  1.00  0.00     0.020 C 
HETATM   20  C1  UNL     1      22.478   5.142  51.786  1.00  0.00     0.040 C 
BRANCH  19  21
HETATM   21  C3  UNL     1      24.176   4.243  50.285  1.00  0.00     0.223 C 
BRANCH  21  22
HETATM   22  O1  UNL     1      25.545   4.353  50.482  1.00  0.00    -0.382 OA
BRANCH  22  23
HETATM   23  C4  UNL     1      26.289   3.683  49.545  1.00  0.00     0.198 C 
BRANCH  23  24
HETATM   24  C5  UNL     1      27.371   4.483  48.921  1.00  0.00     0.037 C 
HETATM   25  C6  UNL     1      27.492   5.721  48.433  1.00  0.00     0.094 C 
HETATM   26  F1  UNL     1      28.594   6.294  47.884  1.00  0.00    -0.211 F 
BRANCH  25  27
HETATM   27  C7  UNL     1      26.383   6.696  48.423  1.00  0.00     0.096 C 
BRANCH  27  28
HETATM   28  C8  UNL     1      26.568   7.737  49.509  1.00  0.00     0.170 C 
BRANCH  28  29
HETATM   29  O2  UNL     1      26.173   7.278  50.745  1.00  0.00    -0.400 OA
HETATM   30  H12 UNL     1      26.549   7.895  51.441  1.00  0.00     0.209 HD
ENDBRANCH  28  29
ENDBRANCH  27  28
ENDBRANCH  25  27
ENDBRANCH  23  24
ENDBRANCH  22  23
ENDBRANCH  21  22
ENDBRANCH  19  21
ENDBRANCH  17  19
ENDBRANCH   1  17
TORSDOF 9
ENDMDL
MODEL 2
REMARK VINA RESULT:      -8.2      1.180      1.380
REMARK  9 active torsions:
REMARK  status: ('A' for Active; 'I' for Inactive)
REMARK    1  A    between atoms: C2_2  and  C3_3 
REMARK    2  A    between atoms: C2_2  and  N1_12 
REMARK    3  A    between atoms: C3_3  and  O1_4 
REMARK    4  A    between atoms: O1_4  and  C4_5 
REMARK    5  A    between atoms: C4_5  and  C5_6 
REMARK    6  A    between atoms: C6_7  and  C7_9 
REMARK    7  A    between atoms: C7_9  and  C8_10 
REMARK    8  A    between atoms: C8_10  and  O2_11 
REMARK    9  A    between atoms: N1_12  and  C9_13 
ROOT
HETATM    1  C9  UNL     1      23.654   1.796  53.031  1.00  0.00     0.110 C 
HETATM    2  C10 UNL     1      25.139   1.780  53.103  1.00  0.00     0.009 C 
HETATM    3  C11 UNL     1      26.116   1.135  53.765  1.00  0.00    -0.011 A 
HETATM    4  C12 UNL     1      27.358   1.743  53.222  1.00  0.00     0.191 A 
HETATM    5  N2  UNL     1      28.575   1.226  53.721  1.00  0.00    -0.278 NA
HETATM    6  C13 UNL     1      28.711   0.311  54.587  1.00  0.00     0.227 A 
HETATM    7  N3  UNL     1      27.504  -0.201  55.059  1.00  0.00    -0.242 NA
HETATM    8  C14 UNL     1      26.299   0.096  54.761  1.00  0.00     0.065 A 
HETATM    9  C15 UNL     1      25.448  -0.781  55.598  1.00  0.00     0.029 C 
HETATM   10  C16 UNL     1      24.173  -1.213  55.595  1.00  0.00    -0.015 C 
HETATM   11  C17 UNL     1      22.784  -1.396  55.186  1.00  0.00     0.042 C 
HETATM   12  C18 UNL     1      21.794  -1.120  54.322  1.00  0.00    -0.016 C 
HETATM   13  C19 UNL     1      21.155  -0.500  53.137  1.00  0.00     0.011 C 
HETATM   14  C20 UNL     1      21.798   0.283  52.296  1.00  0.00    -0.009 C 
HETATM   15 BR1  UNL     1      20.564   0.870  50.933  1.00  0.00    -0.056 Br
HETATM   16  C21 UNL     1      23.238   0.579  52.250  1.00  0.00     0.075 C 
ENDROOT
BRANCH   1  17
HETATM   17  N1  UNL     1      23.050   2.993  52.590  1.00  0.00    -0.384 N 
HETATM   18  H13 UNL     1      22.196   3.403  53.080  1.00  0.00     0.160 HD
BRANCH  17  19
HETATM   19  C2  UNL     1      23.301   3.892  51.553  1.00  0.00     0.020 C 
HETATM   20  C1  UNL     1      23.097   5.083  52.144  1.00  0.00     0.040 C 
BRANCH  19  21
HETATM   21  C3  UNL     1      23.689   3.827  50.141  1.00  0.00     0.223 C 
BRANCH  21  22
HETATM   22  O1  UNL     1      24.790   3.023  49.877  1.00  0.00    -0.382 OA
BRANCH  22  23
HETATM   23  C4  UNL     1      25.989   3.638  50.127  1.00  0.00     0.198 C 
BRANCH  23  24
HETATM   24  C5  UNL     1      26.172   4.947  49.453  1.00  0.00     0.037 C 
HETATM   25  C6  UNL     1      27.111   5.513  48.691  1.00  0.00     0.094 C 
HETATM   26  F1  UNL     1      27.103   6.758  48.149  1.00  0.00    -0.211 F 
BRANCH  25  27
HETATM   27  C7  UNL     1      28.360   4.825  48.306  1.00  0.00     0.096 C 
BRANCH  27  28
HETATM   28  C8  UNL     1      29.515   5.804  48.232  1.00  0.00     0.170 C 
BRANCH  28  29
HETATM   29  O2  UNL     1      30.252   5.831  49.394  1.00  0.00    -0.400 OA
HETATM   30  H12 UNL     1      30.113   4.960  49.871  1.00  0.00     0.209 HD
ENDBRANCH  28  29
ENDBRANCH  27  28
ENDBRANCH  25  27
ENDBRANCH  23  24
ENDBRANCH  22  23
ENDBRANCH  21  22
ENDBRANCH  19  21
ENDBRANCH  17  19
ENDBRANCH   1  17
TORSDOF 9
ENDMDL
MODEL 3
REMARK VINA RESULT:      -8.0      1.011      1.131
REMARK  9 active torsions:
REMARK  status: ('A' for Active; 'I' for Inactive)
REMARK    1  A    between atoms: C2_2  and  C3_3 
REMARK    2  A    between atoms: C2_2  and  N1_12 
REMARK    3  A    between atoms: C3_3  and  O1_4 
REMARK    4  A    between atoms: O1_4  and  C4_5 
REMARK    5  A    between atoms: C4_5  and  C5_6 
REMARK    6  A    between atoms: C6_7  and  C7_9 
REMARK    7  A    between atoms: C7_9  and  C8_10 
REMARK    8  A    between atoms: C8_10  and  O2_11 
REMARK    9  A    between atoms: N1_12  and  C9_13 
ROOT
HETATM    1  C9  UNL     1      22.812   1.777  52.393  1.00  0.00     0.110 C 
HETATM    2  C10 UNL     1      24.277   1.523  52.375  1.00  0.00     0.009 C 
HETATM    3  C11 UNL     1      25.178   0.732  52.984  1.00  0.00    -0.011 A 
HETATM    4  C12 UNL     1      26.465   1.132  52.359  1.00  0.00     0.191 A 
HETATM    5  N2  UNL     1      27.612   0.427  52.789  1.00  0.00    -0.278 NA
HETATM    6  C13 UNL     1      27.654  -0.495  53.657  1.00  0.00     0.227 A 
HETATM    7  N3  UNL     1      26.412  -0.807  54.208  1.00  0.00    -0.242 NA
HETATM    8  C14 UNL     1      25.254  -0.321  53.980  1.00  0.00     0.065 A 
HETATM    9  C15 UNL     1      24.327  -1.048  54.877  1.00  0.00     0.029 C 
HETATM   10  C16 UNL     1      23.002  -1.270  54.957  1.00  0.00    -0.015 C 
HETATM   11  C17 UNL     1      21.579  -1.230  54.636  1.00  0.00     0.042 C 
HETATM   12  C18 UNL     1      20.594  -0.801  53.830  1.00  0.00    -0.016 C 
HETATM   13  C19 UNL     1      19.990  -0.089  52.679  1.00  0.00     0.011 C 
HETATM   14  C20 UNL     1      20.697   0.579  51.790  1.00  0.00    -0.009 C 
HETATM   15 BR1  UNL     1      19.490   1.352  50.497  1.00  0.00    -0.056 Br
HETATM   16  C21 UNL     1      22.160   0.640  51.654  1.00  0.00     0.075 C 
ENDROOT
BRANCH   1  17
HETATM   17  N1  UNL     1      22.382   3.053  51.975  1.00  0.00    -0.384 N 
HETATM   18  H13 UNL     1      21.446   3.459  52.287  1.00  0.00     0.160 HD
BRANCH  17  19
HETATM   19  C2  UNL     1      22.918   4.049  51.158  1.00  0.00     0.020 C 
HETATM   20  C1  UNL     1      22.351   5.166  51.648  1.00  0.00     0.040 C 
BRANCH  19  21
HETATM   21  C3  UNL     1      23.847   4.129  50.025  1.00  0.00     0.223 C 
BRANCH  21  22
HETATM   22  O1  UNL     1      25.187   4.205  50.378  1.00  0.00    -0.382 OA
BRANCH  22  23
HETATM   23  C4  UNL     1      26.021   3.553  49.507  1.00  0.00     0.198 C 
BRANCH  23  24
HETATM   24  C5  UNL     1      27.167   4.360  49.020  1.00  0.00     0.037 C 
HETATM   25  C6  UNL     1      27.346   5.609  48.583  1.00  0.00     0.094 C 
HETATM   26  F1  UNL     1      28.503   6.186  48.166  1.00  0.00    -0.211 F 
BRANCH  25  27
HETATM   27  C7  UNL     1      26.252   6.594  48.486  1.00  0.00     0.096 C 
BRANCH  27  28
HETATM   28  C8  UNL     1      26.342   7.615  49.604  1.00  0.00     0.170 C 
BRANCH  28  29
HETATM   29  O2  UNL     1      26.042   7.073  50.832  1.00  0.00    -0.400 OA
HETATM   30  H12 UNL     1      26.677   7.458  51.506  1.00  0.00     0.209 HD
ENDBRANCH  28  29
ENDBRANCH  27  28
ENDBRANCH  25  27
ENDBRANCH  23  24
ENDBRANCH  22  23
ENDBRANCH  21  22
ENDBRANCH  19  21
ENDBRANCH  17  19
ENDBRANCH   1  17
TORSDOF 9
ENDMDL
MODEL 4
REMARK VINA RESULT:      -7.7      1.484      2.170
REMARK  9 active torsions:
REMARK  status: ('A' for Active; 'I' for Inactive)
REMARK    1  A    between atoms: C2_2  and  C3_3 
REMARK    2  A    between atoms: C2_2  and  N1_12 
REMARK    3  A    between atoms: C3_3  and  O1_4 
REMARK    4  A    between atoms: O1_4  and  C4_5 
REMARK    5  A    between atoms: C4_5  and  C5_6 
REMARK    6  A    between atoms: C6_7  and  C7_9 
REMARK    7  A    between atoms: C7_9  and  C8_10 
REMARK    8  A    between atoms: C8_10  and  O2_11 
REMARK    9  A    between atoms: N1_12  and  C9_13 
ROOT
HETATM    1  C9  UNL     1      24.901   2.824  51.943  1.00  0.00     0.110 C 
HETATM    2  C10 UNL     1      26.228   2.422  52.478  1.00  0.00     0.009 C 
HETATM    3  C11 UNL     1      26.755   1.487  53.289  1.00  0.00    -0.011 A 
HETATM    4  C12 UNL     1      28.205   1.808  53.287  1.00  0.00     0.191 A 
HETATM    5  N2  UNL     1      29.035   0.951  54.045  1.00  0.00    -0.278 NA
HETATM    6  C13 UNL     1      28.667  -0.050  54.729  1.00  0.00     0.227 A 
HETATM    7  N3  UNL     1      27.293  -0.282  54.693  1.00  0.00    -0.242 NA
HETATM    8  C14 UNL     1      26.358   0.341  54.086  1.00  0.00     0.065 A 
HETATM    9  C15 UNL     1      25.106  -0.368  54.436  1.00  0.00     0.029 C 
HETATM   10  C16 UNL     1      23.854  -0.458  53.951  1.00  0.00    -0.015 C 
HETATM   11  C17 UNL     1      22.691  -0.239  53.096  1.00  0.00     0.042 C 
HETATM   12  C18 UNL     1      22.148   0.365  52.027  1.00  0.00    -0.016 C 
HETATM   13  C19 UNL     1      22.108   1.242  50.833  1.00  0.00     0.011 C 
HETATM   14  C20 UNL     1      23.153   1.915  50.395  1.00  0.00    -0.009 C 
HETATM   15 BR1  UNL     1      22.626   2.930  48.841  1.00  0.00    -0.056 Br
HETATM   16  C21 UNL     1      24.545   1.837  50.864  1.00  0.00     0.075 C 
ENDROOT
BRANCH   1  17
HETATM   17  N1  UNL     1      24.751   4.172  51.557  1.00  0.00    -0.384 N 
HETATM   18  H13 UNL     1      25.485   4.671  50.965  1.00  0.00     0.160 HD
BRANCH  17  19
HETATM   19  C2  UNL     1      23.779   5.150  51.773  1.00  0.00     0.020 C 
HETATM   20  C1  UNL     1      23.077   4.641  52.801  1.00  0.00     0.040 C 
BRANCH  19  21
HETATM   21  C3  UNL     1      23.407   6.445  51.195  1.00  0.00     0.223 C 
BRANCH  21  22
HETATM   22  O1  UNL     1      23.951   6.701  49.944  1.00  0.00    -0.382 OA
BRANCH  22  23
HETATM   23  C4  UNL     1      24.281   8.017  49.748  1.00  0.00     0.198 C 
BRANCH  23  24
HETATM   24  C5  UNL     1      25.726   8.324  49.882  1.00  0.00     0.037 C 
HETATM   25  C6  UNL     1      26.849   7.947  49.265  1.00  0.00     0.094 C 
HETATM   26  F1  UNL     1      28.119   8.346  49.535  1.00  0.00    -0.211 F 
BRANCH  25  27
HETATM   27  C7  UNL     1      26.870   6.992  48.140  1.00  0.00     0.096 C 
BRANCH  27  28
HETATM   28  C8  UNL     1      27.374   5.635  48.593  1.00  0.00     0.170 C 
BRANCH  28  29
HETATM   29  O2  UNL     1      26.628   5.119  49.627  1.00  0.00    -0.400 OA
HETATM   30  H12 UNL     1      27.254   4.890  50.377  1.00  0.00     0.209 HD
ENDBRANCH  28  29
ENDBRANCH  27  28
ENDBRANCH  25  27
ENDBRANCH  23  24
ENDBRANCH  22  23
ENDBRANCH  21  22
ENDBRANCH  19  21
ENDBRANCH  17  19
ENDBRANCH   1  17
TORSDOF 9
ENDMDL
MODEL 5
REMARK VINA RESULT:      -7.6      2.857      4.931
REMARK  9 active torsions:
REMARK  status: ('A' for Active; 'I' for Inactive)
REMARK    1  A    between atoms: C2_2  and  C3_3 
REMARK    2  A    between atoms: C2_2  and  N1_12 
REMARK    3  A    between atoms: C3_3  and  O1_4 
REMARK    4  A    between atoms: O1_4  and  C4_5 
REMARK    5  A    between atoms: C4_5  and  C5_6 
REMARK    6  A    between atoms: C6_7  and  C7_9 
REMARK    7  A    between atoms: C7_9  and  C8_10 
REMARK    8  A    between atoms: C8_10  and  O2_11 
REMARK    9  A    between atoms: N1_12  and  C9_13 
ROOT
HETATM    1  C9  UNL     1      22.181   1.958  51.649  1.00  0.00     0.110 C 
HETATM    2  C10 UNL     1      22.951   1.150  52.631  1.00  0.00     0.009 C 
HETATM    3  C11 UNL     1      22.735   0.182  53.540  1.00  0.00    -0.011 A 
HETATM    4  C12 UNL     1      24.087  -0.065  54.104  1.00  0.00     0.191 A 
HETATM    5  N2  UNL     1      24.178  -1.082  55.082  1.00  0.00    -0.278 NA
HETATM    6  C13 UNL     1      23.227  -1.788  55.532  1.00  0.00     0.227 A 
HETATM    7  N3  UNL     1      21.988  -1.490  54.965  1.00  0.00    -0.242 NA
HETATM    8  C14 UNL     1      21.663  -0.634  54.077  1.00  0.00     0.065 A 
HETATM    9  C15 UNL     1      20.200  -0.778  53.893  1.00  0.00     0.029 C 
HETATM   10  C16 UNL     1      19.285  -0.445  52.964  1.00  0.00    -0.015 C 
HETATM   11  C17 UNL     1      18.699   0.097  51.742  1.00  0.00     0.042 C 
HETATM   12  C18 UNL     1      18.867   0.738  50.574  1.00  0.00    -0.016 C 
HETATM   13  C19 UNL     1      19.612   1.427  49.494  1.00  0.00     0.011 C 
HETATM   14  C20 UNL     1      20.917   1.605  49.516  1.00  0.00    -0.009 C 
HETATM   15 BR1  UNL     1      21.435   2.564  47.922  1.00  0.00    -0.056 Br
HETATM   16  C21 UNL     1      21.891   1.063  50.474  1.00  0.00     0.075 C 
ENDROOT
BRANCH   1  17
HETATM   17  N1  UNL     1      22.720   3.212  51.294  1.00  0.00    -0.384 N 
HETATM   18  H13 UNL     1      22.137   4.105  51.333  1.00  0.00     0.160 HD
BRANCH  17  19
HETATM   19  C2  UNL     1      23.967   3.651  50.845  1.00  0.00     0.020 C 
HETATM   20  C1  UNL     1      23.645   4.709  50.078  1.00  0.00     0.040 C 
BRANCH  19  21
HETATM   21  C3  UNL     1      25.370   3.258  51.009  1.00  0.00     0.223 C 
BRANCH  21  22
HETATM   22  O1  UNL     1      25.644   1.936  50.688  1.00  0.00    -0.382 OA
BRANCH  22  23
HETATM   23  C4  UNL     1      26.391   1.286  51.636  1.00  0.00     0.198 C 
BRANCH  23  24
HETATM   24  C5  UNL     1      27.296   2.159  52.423  1.00  0.00     0.037 C 
HETATM   25  C6  UNL     1      28.351   1.978  53.222  1.00  0.00     0.094 C 
HETATM   26  F1  UNL     1      29.072   2.926  53.875  1.00  0.00    -0.211 F 
BRANCH  25  27
HETATM   27  C7  UNL     1      28.915   0.648  53.523  1.00  0.00     0.096 C 
BRANCH  27  28
HETATM   28  C8  UNL     1      28.575   0.224  54.939  1.00  0.00     0.170 C 
BRANCH  28  29
HETATM   29  O2  UNL     1      27.367  -0.431  55.012  1.00  0.00    -0.400 OA
HETATM   30  H12 UNL     1      26.742   0.130  55.560  1.00  0.00     0.209 HD
ENDBRANCH  28  29
ENDBRANCH  27  28
ENDBRANCH  25  27
ENDBRANCH  23  24
ENDBRANCH  22  23
ENDBRANCH  21  22
ENDBRANCH  19  21
ENDBRANCH  17  19
ENDBRANCH   1  17
TORSDOF 9
ENDMDL
MODEL 6
REMARK VINA RESULT:      -7.0      2.018      2.767
REMARK  9 active torsions:
REMARK  status: ('A' for Active; 'I' for Inactive)
REMARK    1  A    between atoms: C2_2  and  C3_3 
REMARK    2  A    between atoms: C2_2  and  N1_12 
REMARK    3  A    between atoms: C3_3  and  O1_4 
REMARK    4  A    between atoms: O1_4  and  C4_5 
REMARK    5  A    between atoms: C4_5  and  C5_6 
REMARK    6  A    between atoms: C6_7  and  C7_9 
REMARK    7  A    between atoms: C7_9  and  C8_10 
REMARK    8  A    between atoms: C8_10  and  O2_11 
REMARK    9  A    between atoms: N1_12  and  C9_13 
ROOT
HETATM    1  C9  UNL     1      21.832   1.888  52.487  1.00  0.00     0.110 C 
HETATM    2  C10 UNL     1      23.283   1.909  52.160  1.00  0.00     0.009 C 
HETATM    3  C11 UNL     1      24.411   1.264  52.508  1.00  0.00    -0.011 A 
HETATM    4  C12 UNL     1      25.453   1.928  51.683  1.00  0.00     0.191 A 
HETATM    5  N2  UNL     1      26.767   1.423  51.815  1.00  0.00    -0.278 NA
HETATM    6  C13 UNL     1      27.144   0.478  52.571  1.00  0.00     0.227 A 
HETATM    7  N3  UNL     1      26.114  -0.086  53.322  1.00  0.00    -0.242 NA
HETATM    8  C14 UNL     1      24.869   0.190  53.370  1.00  0.00     0.065 A 
HETATM    9  C15 UNL     1      24.285  -0.743  54.360  1.00  0.00     0.029 C 
HETATM   10  C16 UNL     1      23.063  -1.209  54.676  1.00  0.00    -0.015 C 
HETATM   11  C17 UNL     1      21.618  -1.413  54.644  1.00  0.00     0.042 C 
HETATM   12  C18 UNL     1      20.429  -1.129  54.087  1.00  0.00    -0.016 C 
HETATM   13  C19 UNL     1      19.488  -0.478  53.145  1.00  0.00     0.011 C 
HETATM   14  C20 UNL     1      19.871   0.356  52.201  1.00  0.00    -0.009 C 
HETATM   15 BR1  UNL     1      18.309   0.965  51.244  1.00  0.00    -0.056 Br
HETATM   16  C21 UNL     1      21.242   0.693  51.788  1.00  0.00     0.075 C 
ENDROOT
BRANCH   1  17
HETATM   17  N1  UNL     1      21.115   3.084  52.279  1.00  0.00    -0.384 N 
HETATM   18  H13 UNL     1      20.146   3.237  52.698  1.00  0.00     0.160 HD
BRANCH  17  19
HETATM   19  C2  UNL     1      21.365   4.267  51.582  1.00  0.00     0.020 C 
HETATM   20  C1  UNL     1      20.344   4.311  50.706  1.00  0.00     0.040 C 
BRANCH  19  21
HETATM   21  C3  UNL     1      22.370   5.335  51.596  1.00  0.00     0.223 C 
BRANCH  21  22
HETATM   22  O1  UNL     1      21.895   6.584  51.219  1.00  0.00    -0.382 OA
BRANCH  22  23
HETATM   23  C4  UNL     1      22.622   7.165  50.213  1.00  0.00     0.198 C 
BRANCH  23  24
HETATM   24  C5  UNL     1      23.978   7.622  50.606  1.00  0.00     0.037 C 
HETATM   25  C6  UNL     1      25.228   7.376  50.207  1.00  0.00     0.094 C 
HETATM   26  F1  UNL     1      26.378   7.904  50.701  1.00  0.00    -0.211 F 
BRANCH  25  27
HETATM   27  C7  UNL     1      25.556   6.444  49.110  1.00  0.00     0.096 C 
BRANCH  27  28
HETATM   28  C8  UNL     1      25.623   5.016  49.614  1.00  0.00     0.170 C 
BRANCH  28  29
HETATM   29  O2  UNL     1      24.601   4.239  49.120  1.00  0.00    -0.400 OA
HETATM   30  H12 UNL     1      23.941   4.843  48.667  1.00  0.00     0.209 HD
ENDBRANCH  28  29
ENDBRANCH  27  28
ENDBRANCH  25  27
ENDBRANCH  23  24
ENDBRANCH  22  23
ENDBRANCH  21  22
ENDBRANCH  19  21
ENDBRANCH  17  19
ENDBRANCH   1  17
TORSDOF 9
ENDMDL
MODEL 7
REMARK VINA RESULT:      -6.9      2.833      3.575
REMARK  9 active torsions:
REMARK  status: ('A' for Active; 'I' for Inactive)
REMARK    1  A    between atoms: C2_2  and  C3_3 
REMARK    2  A    between atoms: C2_2  and  N1_12 
REMARK    3  A    between atoms: C3_3  and  O1_4 
REMARK    4  A    between atoms: O1_4  and  C4_5 
REMARK    5  A    between atoms: C4_5  and  C5_6 
REMARK    6  A    between atoms: C6_7  and  C7_9 
REMARK    7  A    between atoms: C7_9  and  C8_10 
REMARK    8  A    between atoms: C8_10  and  O2_11 
REMARK    9  A    between atoms: N1_12  and  C9_13 
ROOT
HETATM    1  C9  UNL     1      22.545   1.707  52.081  1.00  0.00     0.110 C 
HETATM    2  C10 UNL     1      23.996   1.383  52.070  1.00  0.00     0.009 C 
HETATM    3  C11 UNL     1      24.864   0.592  52.724  1.00  0.00    -0.011 A 
HETATM    4  C12 UNL     1      26.162   0.888  52.065  1.00  0.00     0.191 A 
HETATM    5  N2  UNL     1      27.280   0.160  52.533  1.00  0.00    -0.278 NA
HETATM    6  C13 UNL     1      27.287  -0.704  53.460  1.00  0.00     0.227 A 
HETATM    7  N3  UNL     1      26.037  -0.918  54.039  1.00  0.00    -0.242 NA
HETATM    8  C14 UNL     1      24.901  -0.394  53.788  1.00  0.00     0.065 A 
HETATM    9  C15 UNL     1      23.950  -1.016  54.738  1.00  0.00     0.029 C 
HETATM   10  C16 UNL     1      22.617  -1.169  54.842  1.00  0.00    -0.015 C 
HETATM   11  C17 UNL     1      21.194  -1.082  54.529  1.00  0.00     0.042 C 
HETATM   12  C18 UNL     1      20.223  -0.661  53.703  1.00  0.00    -0.016 C 
HETATM   13  C19 UNL     1      19.641   0.000  52.511  1.00  0.00     0.011 C 
HETATM   14  C20 UNL     1      20.369   0.573  51.575  1.00  0.00    -0.009 C 
HETATM   15 BR1  UNL     1      19.187   1.316  50.242  1.00  0.00    -0.056 Br
HETATM   16  C21 UNL     1      21.832   0.556  51.424  1.00  0.00     0.075 C 
ENDROOT
BRANCH   1  17
HETATM   17  N1  UNL     1      22.170   2.972  51.582  1.00  0.00    -0.384 N 
HETATM   18  H13 UNL     1      21.146   3.257  51.490  1.00  0.00     0.160 HD
BRANCH  17  19
HETATM   19  C2  UNL     1      22.868   4.086  51.115  1.00  0.00     0.020 C 
HETATM   20  C1  UNL     1      22.715   3.990  49.782  1.00  0.00     0.040 C 
BRANCH  19  21
HETATM   21  C3  UNL     1      23.635   5.196  51.690  1.00  0.00     0.223 C 
BRANCH  21  22
HETATM   22  O1  UNL     1      24.186   6.065  50.759  1.00  0.00    -0.382 OA
BRANCH  22  23
HETATM   23  C4  UNL     1      23.926   7.386  51.020  1.00  0.00     0.198 C 
BRANCH  23  24
HETATM   24  C5  UNL     1      23.280   8.126  49.908  1.00  0.00     0.037 C 
HETATM   25  C6  UNL     1      22.026   8.389  49.529  1.00  0.00     0.094 C 
HETATM   26  F1  UNL     1      21.617   9.104  48.450  1.00  0.00    -0.211 F 
BRANCH  25  27
HETATM   27  C7  UNL     1      20.843   7.913  50.272  1.00  0.00     0.096 C 
BRANCH  27  28
HETATM   28  C8  UNL     1      19.592   8.020  49.422  1.00  0.00     0.170 C 
BRANCH  28  29
HETATM   29  O2  UNL     1      18.929   6.820  49.315  1.00  0.00    -0.400 OA
HETATM   30  H12 UNL     1      18.713   6.669  48.347  1.00  0.00     0.209 HD
ENDBRANCH  28  29
ENDBRANCH  27  28
ENDBRANCH  25  27
ENDBRANCH  23  24
ENDBRANCH  22  23
ENDBRANCH  21  22
ENDBRANCH  19  21
ENDBRANCH  17  19
ENDBRANCH   1  17
TORSDOF 9
ENDMDL
MODEL 8
REMARK VINA RESULT:      -6.8      4.916      7.663
REMARK  9 active torsions:
REMARK  status: ('A' for Active; 'I' for Inactive)
REMARK    1  A    between atoms: C2_2  and  C3_3 
REMARK    2  A    between atoms: C2_2  and  N1_12 
REMARK    3  A    between atoms: C3_3  and  O1_4 
REMARK    4  A    between atoms: O1_4  and  C4_5 
REMARK    5  A    between atoms: C4_5  and  C5_6 
REMARK    6  A    between atoms: C6_7  and  C7_9 
REMARK    7  A    between atoms: C7_9  and  C8_10 
REMARK    8  A    between atoms: C8_10  and  O2_11 
REMARK    9  A    between atoms: N1_12  and  C9_13 
ROOT
HETATM    1  C9  UNL     1      22.953   1.644  50.520  1.00  0.00     0.110 C 
HETATM    2  C10 UNL     1      22.310   0.934  51.657  1.00  0.00     0.009 C 
HETATM    3  C11 UNL     1      22.665   0.209  52.733  1.00  0.00    -0.011 A 
HETATM    4  C12 UNL     1      21.363  -0.131  53.363  1.00  0.00     0.191 A 
HETATM    5  N2  UNL     1      21.427  -0.878  54.561  1.00  0.00    -0.278 NA
HETATM    6  C13 UNL     1      22.474  -1.295  55.140  1.00  0.00     0.227 A 
HETATM    7  N3  UNL     1      23.655  -0.948  54.484  1.00  0.00    -0.242 NA
HETATM    8  C14 UNL     1      23.849  -0.286  53.411  1.00  0.00     0.065 A 
HETATM    9  C15 UNL     1      25.316  -0.255  53.214  1.00  0.00     0.029 C 
HETATM   10  C16 UNL     1      26.203   0.476  52.514  1.00  0.00    -0.015 C 
HETATM   11  C17 UNL     1      26.744   1.493  51.617  1.00  0.00     0.042 C 
HETATM   12  C18 UNL     1      26.527   2.528  50.789  1.00  0.00    -0.016 C 
HETATM   13  C19 UNL     1      25.732   3.537  50.051  1.00  0.00     0.011 C 
HETATM   14  C20 UNL     1      24.423   3.638  50.148  1.00  0.00    -0.009 C 
HETATM   15 BR1  UNL     1      23.827   5.068  48.997  1.00  0.00    -0.056 Br
HETATM   16  C21 UNL     1      23.523   2.925  51.067  1.00  0.00     0.075 C 
ENDROOT
BRANCH   1  17
HETATM   17  N1  UNL     1      22.178   1.814  49.354  1.00  0.00    -0.384 N 
HETATM   18  H13 UNL     1      22.532   1.509  48.396  1.00  0.00     0.160 HD
BRANCH  17  19
HETATM   19  C2  UNL     1      20.915   2.344  49.087  1.00  0.00     0.020 C 
HETATM   20  C1  UNL     1      20.963   2.558  47.759  1.00  0.00     0.040 C 
BRANCH  19  21
HETATM   21  C3  UNL     1      19.703   2.677  49.844  1.00  0.00     0.223 C 
BRANCH  21  22
HETATM   22  O1  UNL     1      18.722   1.695  49.829  1.00  0.00    -0.382 OA
BRANCH  22  23
HETATM   23  C4  UNL     1      18.058   1.567  51.021  1.00  0.00     0.198 C 
BRANCH  23  24
HETATM   24  C5  UNL     1      18.291   0.285  51.730  1.00  0.00     0.037 C 
HETATM   25  C6  UNL     1      17.542  -0.756  52.105  1.00  0.00     0.094 C 
HETATM   26  F1  UNL     1      17.943  -1.873  52.765  1.00  0.00    -0.211 F 
BRANCH  25  27
HETATM   27  C7  UNL     1      16.093  -0.844  51.839  1.00  0.00     0.096 C 
BRANCH  27  28
HETATM   28  C8  UNL     1      15.311   0.017  52.812  1.00  0.00     0.170 C 
BRANCH  28  29
HETATM   29  O2  UNL     1      14.252  -0.658  53.373  1.00  0.00    -0.400 OA
HETATM   30  H12 UNL     1      14.458  -0.810  54.343  1.00  0.00     0.209 HD
ENDBRANCH  28  29
ENDBRANCH  27  28
ENDBRANCH  25  27
ENDBRANCH  23  24
ENDBRANCH  22  23
ENDBRANCH  21  22
ENDBRANCH  19  21
ENDBRANCH  17  19
ENDBRANCH   1  17
TORSDOF 9
ENDMDL
MODEL 9
REMARK VINA RESULT:      -6.8      3.170      4.034
REMARK  9 active torsions:
REMARK  status: ('A' for Active; 'I' for Inactive)
REMARK    1  A    between atoms: C2_2  and  C3_3 
REMARK    2  A    between atoms: C2_2  and  N1_12 
REMARK    3  A    between atoms: C3_3  and  O1_4 
REMARK    4  A    between atoms: O1_4  and  C4_5 
REMARK    5  A    between atoms: C4_5  and  C5_6 
REMARK    6  A    between atoms: C6_7  and  C7_9 
REMARK    7  A    between atoms: C7_9  and  C8_10 
REMARK    8  A    between atoms: C8_10  and  O2_11 
REMARK    9  A    between atoms: N1_12  and  C9_13 
ROOT
HETATM    1  C9  UNL     1      23.760   1.775  53.035  1.00  0.00     0.110 C 
HETATM    2  C10 UNL     1      25.247   1.766  53.065  1.00  0.00     0.009 C 
HETATM    3  C11 UNL     1      26.245   1.144  53.717  1.00  0.00    -0.011 A 
HETATM    4  C12 UNL     1      27.468   1.741  53.121  1.00  0.00     0.191 A 
HETATM    5  N2  UNL     1      28.702   1.242  53.600  1.00  0.00    -0.278 NA
HETATM    6  C13 UNL     1      28.867   0.354  54.488  1.00  0.00     0.227 A 
HETATM    7  N3  UNL     1      27.675  -0.149  55.009  1.00  0.00    -0.242 NA
HETATM    8  C14 UNL     1      26.461   0.135  54.737  1.00  0.00     0.065 A 
HETATM    9  C15 UNL     1      25.638  -0.720  55.623  1.00  0.00     0.029 C 
HETATM   10  C16 UNL     1      24.365  -1.157  55.668  1.00  0.00    -0.015 C 
HETATM   11  C17 UNL     1      22.966  -1.357  55.306  1.00  0.00     0.042 C 
HETATM   12  C18 UNL     1      21.951  -1.109  54.462  1.00  0.00    -0.016 C 
HETATM   13  C19 UNL     1      21.275  -0.526  53.278  1.00  0.00     0.011 C 
HETATM   14  C20 UNL     1      21.891   0.234  52.397  1.00  0.00    -0.009 C 
HETATM   15 BR1  UNL     1      20.616   0.777  51.053  1.00  0.00    -0.056 Br
HETATM   16  C21 UNL     1      23.328   0.534  52.301  1.00  0.00     0.075 C 
ENDROOT
BRANCH   1  17
HETATM   17  N1  UNL     1      23.139   2.956  52.577  1.00  0.00    -0.384 N 
HETATM   18  H13 UNL     1      22.282   3.363  53.064  1.00  0.00     0.160 HD
BRANCH  17  19
HETATM   19  C2  UNL     1      23.374   3.841  51.524  1.00  0.00     0.020 C 
HETATM   20  C1  UNL     1      23.427   5.031  52.150  1.00  0.00     0.040 C 
BRANCH  19  21
HETATM   21  C3  UNL     1      23.553   3.764  50.071  1.00  0.00     0.223 C 
BRANCH  21  22
HETATM   22  O1  UNL     1      22.386   3.918  49.334  1.00  0.00    -0.382 OA
BRANCH  22  23
HETATM   23  C4  UNL     1      22.192   2.931  48.403  1.00  0.00     0.198 C 
BRANCH  23  24
HETATM   24  C5  UNL     1      21.141   3.222  47.396  1.00  0.00     0.037 C 
HETATM   25  C6  UNL     1      19.818   3.400  47.413  1.00  0.00     0.094 C 
HETATM   26  F1  UNL     1      19.001   3.665  46.360  1.00  0.00    -0.211 F 
BRANCH  25  27
HETATM   27  C7  UNL     1      19.010   3.332  48.647  1.00  0.00     0.096 C 
BRANCH  27  28
HETATM   28  C8  UNL     1      18.945   4.686  49.325  1.00  0.00     0.170 C 
BRANCH  28  29
HETATM   29  O2  UNL     1      17.695   5.255  49.237  1.00  0.00    -0.400 OA
HETATM   30  H12 UNL     1      17.800   6.250  49.314  1.00  0.00     0.209 HD
ENDBRANCH  28  29
ENDBRANCH  27  28
ENDBRANCH  25  27
ENDBRANCH  23  24
ENDBRANCH  22  23
ENDBRANCH  21  22
ENDBRANCH  19  21
ENDBRANCH  17  19
ENDBRANCH   1  17
TORSDOF 9
ENDMDL
