MODEL 1
REMARK VINA RESULT:      -9.1      0.000      0.000
REMARK  5 active torsions:
REMARK  status: ('A' for Active; 'I' for Inactive)
REMARK    1  A    between atoms: C5_5  and  C6_6 
REMARK    2  A    between atoms: C6_6  and  C7_8 
REMARK    3  A    between atoms: C7_8  and  N2_9 
REMARK    4  A    between atoms: N2_9  and  C8_10 
REMARK    5  A    between atoms: C9_12  and  O1_13 
ROOT
HETATM    1  C7  UNL     1      25.466   0.914  53.449  1.00  0.00     0.080 C 
HETATM    2  C11 UNL     1      24.863   2.298  53.414  1.00  0.00     0.067 C 
HETATM    3  C12 UNL     1      24.795   2.887  52.050  1.00  0.00     0.014 C 
HETATM    4  C13 UNL     1      25.663   2.692  51.061  1.00  0.00     0.090 C 
HETATM    5  F1  UNL     1      25.590   3.233  49.827  1.00  0.00    -0.211 F 
HETATM    6  C14 UNL     1      26.752   1.759  51.539  1.00  0.00     0.072 C 
HETATM    7  C15 UNL     1      25.995   0.558  52.090  1.00  0.00     0.045 C 
ENDROOT
BRANCH   1   8
HETATM    8  C6  UNL     1      24.500  -0.093  53.962  1.00  0.00     0.064 C 
HETATM    9  N1  UNL     1      24.988  -0.952  54.786  1.00  0.00    -0.301 NA
HETATM   10  H6  UNL     1      24.468  -1.724  55.246  1.00  0.00     0.186 HD
BRANCH   8  11
HETATM   11  C5  UNL     1      23.102  -0.120  53.571  1.00  0.00    -0.010 A 
HETATM   12  C4  UNL     1      22.095  -0.372  54.475  1.00  0.00     0.014 A 
HETATM   13  C3  UNL     1      20.753  -0.408  54.154  1.00  0.00     0.007 A 
HETATM   14  C2  UNL     1      20.365  -0.181  52.850  1.00  0.00    -0.062 A 
HETATM   15  C1  UNL     1      18.936  -0.206  52.440  1.00  0.00     0.048 C 
HETATM   16  C17 UNL     1      21.325   0.078  51.895  1.00  0.00     0.007 A 
HETATM   17  C16 UNL     1      22.645   0.098  52.292  1.00  0.00     0.014 A 
ENDBRANCH   8  11
ENDBRANCH   1   8
BRANCH   1  18
HETATM   18  N2  UNL     1      26.610   0.949  54.343  1.00  0.00    -0.354 N 
HETATM   19  H7  UNL     1      26.710   1.617  55.156  1.00  0.00     0.162 HD
BRANCH  18  20
HETATM   20  C8  UNL     1      27.589  -0.027  53.990  1.00  0.00     0.170 A 
HETATM   21  N3  UNL     1      27.688  -1.158  53.724  1.00  0.00    -0.200 NA
HETATM   22  C9  UNL     1      28.796  -1.815  53.425  1.00  0.00     0.171 A 
HETATM   23  C10 UNL     1      30.008  -1.047  53.433  1.00  0.00     0.111 A 
HETATM   24  S1  UNL     1      29.375   0.579  53.883  1.00  0.00    -0.060 SA
BRANCH  22  25
HETATM   25  O1  UNL     1      28.665  -3.186  53.136  1.00  0.00    -0.344 OA
HETATM   26  H8  UNL     1      28.555  -3.456  52.165  1.00  0.00     0.219 HD
ENDBRANCH  22  25
ENDBRANCH  18  20
ENDBRANCH   1  18
TORSDOF 5
ENDMDL
MODEL 2
REMARK VINA RESULT:      -8.6      3.514      6.293
REMARK  5 active torsions:
REMARK  status: ('A' for Active; 'I' for Inactive)
REMARK    1  A    between atoms: C5_5  and  C6_6 
REMARK    2  A    between atoms: C6_6  and  C7_8 
REMARK    3  A    between atoms: C7_8  and  N2_9 
REMARK    4  A    between atoms: N2_9  and  C8_10 
REMARK    5  A    between atoms: C9_12  and  O1_13 
ROOT
HETATM    1  C7  UNL     1      25.091   2.877  51.145  1.00  0.00     0.080 C 
HETATM    2  C11 UNL     1      26.257   2.857  50.185  1.00  0.00     0.067 C 
HETATM    3  C12 UNL     1      26.488   4.156  49.498  1.00  0.00     0.014 C 
HETATM    4  C13 UNL     1      25.558   5.038  49.141  1.00  0.00     0.090 C 
HETATM    5  F1  UNL     1      25.780   6.213  48.517  1.00  0.00    -0.211 F 
HETATM    6  C14 UNL     1      24.200   4.514  49.550  1.00  0.00     0.072 C 
HETATM    7  C15 UNL     1      24.361   4.183  51.027  1.00  0.00     0.045 C 
ENDROOT
BRANCH   1   8
HETATM    8  C6  UNL     1      25.523   2.592  52.539  1.00  0.00     0.064 C 
HETATM    9  N1  UNL     1      24.882   3.229  53.453  1.00  0.00    -0.301 NA
HETATM   10  H6  UNL     1      25.043   3.159  54.477  1.00  0.00     0.186 HD
BRANCH   8  11
HETATM   11  C5  UNL     1      26.593   1.664  52.862  1.00  0.00    -0.010 A 
HETATM   12  C4  UNL     1      27.803   2.090  53.360  1.00  0.00     0.014 A 
HETATM   13  C3  UNL     1      28.850   1.250  53.682  1.00  0.00     0.007 A 
HETATM   14  C2  UNL     1      28.703  -0.110  53.504  1.00  0.00    -0.062 A 
HETATM   15  C1  UNL     1      29.793  -1.067  53.833  1.00  0.00     0.048 C 
HETATM   16  C17 UNL     1      27.514  -0.602  53.009  1.00  0.00     0.007 A 
HETATM   17  C16 UNL     1      26.515   0.300  52.710  1.00  0.00     0.014 A 
ENDBRANCH   8  11
ENDBRANCH   1   8
BRANCH   1  18
HETATM   18  N2  UNL     1      24.159   1.843  50.734  1.00  0.00    -0.354 N 
HETATM   19  H7  UNL     1      24.334   1.161  49.945  1.00  0.00     0.162 HD
BRANCH  18  20
HETATM   20  C8  UNL     1      22.969   1.857  51.522  1.00  0.00     0.170 A 
HETATM   21  N3  UNL     1      22.047   2.531  51.760  1.00  0.00    -0.200 NA
HETATM   22  C9  UNL     1      21.048   2.257  52.582  1.00  0.00     0.171 A 
HETATM   23  C10 UNL     1      21.112   0.990  53.253  1.00  0.00     0.111 A 
HETATM   24  S1  UNL     1      22.654   0.333  52.592  1.00  0.00    -0.060 SA
BRANCH  22  25
HETATM   25  O1  UNL     1      20.041   3.232  52.708  1.00  0.00    -0.344 OA
HETATM   26  H8  UNL     1      20.182   3.974  53.385  1.00  0.00     0.219 HD
ENDBRANCH  22  25
ENDBRANCH  18  20
ENDBRANCH   1  18
TORSDOF 5
ENDMDL
MODEL 3
REMARK VINA RESULT:      -8.4      3.846      6.171
REMARK  5 active torsions:
REMARK  status: ('A' for Active; 'I' for Inactive)
REMARK    1  A    between atoms: C5_5  and  C6_6 
REMARK    2  A    between atoms: C6_6  and  C7_8 
REMARK    3  A    between atoms: C7_8  and  N2_9 
REMARK    4  A    between atoms: N2_9  and  C8_10 
REMARK    5  A    between atoms: C9_12  and  O1_13 
ROOT
HETATM    1  C7  UNL     1      22.804   2.988  51.645  1.00  0.00     0.080 C 
HETATM    2  C11 UNL     1      22.581   1.777  50.770  1.00  0.00     0.067 C 
HETATM    3  C12 UNL     1      22.708   2.058  49.315  1.00  0.00     0.014 C 
HETATM    4  C13 UNL     1      22.381   3.191  48.698  1.00  0.00     0.090 C 
HETATM    5  F1  UNL     1      22.501   3.434  47.376  1.00  0.00    -0.211 F 
HETATM    6  C14 UNL     1      21.855   4.174  49.719  1.00  0.00     0.072 C 
HETATM    7  C15 UNL     1      22.937   4.213  50.788  1.00  0.00     0.045 C 
ENDROOT
BRANCH   1   8
HETATM    8  C6  UNL     1      23.966   2.803  52.554  1.00  0.00     0.064 C 
HETATM    9  N1  UNL     1      24.230   3.802  53.318  1.00  0.00    -0.301 NA
HETATM   10  H6  UNL     1      24.999   3.856  54.014  1.00  0.00     0.186 HD
BRANCH   8  11
HETATM   11  C5  UNL     1      24.757   1.586  52.588  1.00  0.00    -0.010 A 
HETATM   12  C4  UNL     1      25.894   1.432  51.828  1.00  0.00     0.014 A 
HETATM   13  C3  UNL     1      26.680   0.297  51.825  1.00  0.00     0.007 A 
HETATM   14  C2  UNL     1      26.328  -0.770  52.625  1.00  0.00    -0.062 A 
HETATM   15  C1  UNL     1      27.132  -2.020  52.667  1.00  0.00     0.048 C 
HETATM   16  C17 UNL     1      25.199  -0.680  53.412  1.00  0.00     0.007 A 
HETATM   17  C16 UNL     1      24.465   0.487  53.362  1.00  0.00     0.014 A 
ENDBRANCH   8  11
ENDBRANCH   1   8
BRANCH   1  18
HETATM   18  N2  UNL     1      21.614   3.177  52.455  1.00  0.00    -0.354 N 
HETATM   19  H7  UNL     1      21.284   4.113  52.820  1.00  0.00     0.162 HD
BRANCH  18  20
HETATM   20  C8  UNL     1      20.941   1.944  52.706  1.00  0.00     0.170 A 
HETATM   21  N3  UNL     1      20.997   1.004  53.392  1.00  0.00    -0.200 NA
HETATM   22  C9  UNL     1      20.182  -0.038  53.390  1.00  0.00     0.171 A 
HETATM   23  C10 UNL     1      19.113  -0.001  52.433  1.00  0.00     0.111 A 
HETATM   24  S1  UNL     1      19.429   1.583  51.634  1.00  0.00    -0.060 SA
BRANCH  22  25
HETATM   25  O1  UNL     1      20.452  -1.060  54.318  1.00  0.00    -0.344 OA
HETATM   26  H8  UNL     1      21.343  -1.036  54.803  1.00  0.00     0.219 HD
ENDBRANCH  22  25
ENDBRANCH  18  20
ENDBRANCH   1  18
TORSDOF 5
ENDMDL
MODEL 4
REMARK VINA RESULT:      -8.4      4.400      6.453
REMARK  5 active torsions:
REMARK  status: ('A' for Active; 'I' for Inactive)
REMARK    1  A    between atoms: C5_5  and  C6_6 
REMARK    2  A    between atoms: C6_6  and  C7_8 
REMARK    3  A    between atoms: C7_8  and  N2_9 
REMARK    4  A    between atoms: N2_9  and  C8_10 
REMARK    5  A    between atoms: C9_12  and  O1_13 
ROOT
HETATM    1  C7  UNL     1      23.117   2.997  51.557  1.00  0.00     0.080 C 
HETATM    2  C11 UNL     1      22.320   4.228  51.920  1.00  0.00     0.067 C 
HETATM    3  C12 UNL     1      20.887   3.950  52.204  1.00  0.00     0.014 C 
HETATM    4  C13 UNL     1      20.134   3.015  51.630  1.00  0.00     0.090 C 
HETATM    5  F1  UNL     1      18.834   2.773  51.896  1.00  0.00    -0.211 F 
HETATM    6  C14 UNL     1      20.972   2.256  50.626  1.00  0.00     0.072 C 
HETATM    7  C15 UNL     1      22.196   1.820  51.420  1.00  0.00     0.045 C 
ENDROOT
BRANCH   1   8
HETATM    8  C6  UNL     1      24.214   2.747  52.529  1.00  0.00     0.064 C 
HETATM    9  N1  UNL     1      24.450   3.709  53.350  1.00  0.00    -0.301 NA
HETATM   10  H6  UNL     1      25.174   3.716  54.095  1.00  0.00     0.186 HD
BRANCH   8  11
HETATM   11  C5  UNL     1      24.976   1.512  52.563  1.00  0.00    -0.010 A 
HETATM   12  C4  UNL     1      24.613   0.451  53.363  1.00  0.00     0.014 A 
HETATM   13  C3  UNL     1      25.302  -0.742  53.431  1.00  0.00     0.007 A 
HETATM   14  C2  UNL     1      26.432  -0.915  52.659  1.00  0.00    -0.062 A 
HETATM   15  C1  UNL     1      27.217  -2.177  52.688  1.00  0.00     0.048 C 
HETATM   16  C17 UNL     1      26.849   0.109  51.836  1.00  0.00     0.007 A 
HETATM   17  C16 UNL     1      26.109   1.272  51.822  1.00  0.00     0.014 A 
ENDBRANCH   8  11
ENDBRANCH   1   8
BRANCH   1  18
HETATM   18  N2  UNL     1      23.706   3.217  50.249  1.00  0.00    -0.354 N 
HETATM   19  H7  UNL     1      23.791   2.474  49.501  1.00  0.00     0.162 HD
BRANCH  18  20
HETATM   20  C8  UNL     1      24.163   4.560  50.091  1.00  0.00     0.170 A 
HETATM   21  N3  UNL     1      24.911   5.323  50.556  1.00  0.00    -0.200 NA
HETATM   22  C9  UNL     1      25.123   6.570  50.169  1.00  0.00     0.171 A 
HETATM   23  C10 UNL     1      24.344   7.028  49.055  1.00  0.00     0.111 A 
HETATM   24  S1  UNL     1      23.372   5.555  48.694  1.00  0.00    -0.060 SA
BRANCH  22  25
HETATM   25  O1  UNL     1      26.084   7.305  50.889  1.00  0.00    -0.344 OA
HETATM   26  H8  UNL     1      25.768   7.836  51.694  1.00  0.00     0.219 HD
ENDBRANCH  22  25
ENDBRANCH  18  20
ENDBRANCH   1  18
TORSDOF 5
ENDMDL
MODEL 5
REMARK VINA RESULT:      -8.3      3.265      5.339
REMARK  5 active torsions:
REMARK  status: ('A' for Active; 'I' for Inactive)
REMARK    1  A    between atoms: C5_5  and  C6_6 
REMARK    2  A    between atoms: C6_6  and  C7_8 
REMARK    3  A    between atoms: C7_8  and  N2_9 
REMARK    4  A    between atoms: N2_9  and  C8_10 
REMARK    5  A    between atoms: C9_12  and  O1_13 
ROOT
HETATM    1  C7  UNL     1      25.183   1.484  52.521  1.00  0.00     0.080 C 
HETATM    2  C11 UNL     1      25.523   1.119  53.947  1.00  0.00     0.067 C 
HETATM    3  C12 UNL     1      26.959   0.796  54.156  1.00  0.00     0.014 C 
HETATM    4  C13 UNL     1      27.773   0.211  53.280  1.00  0.00     0.090 C 
HETATM    5  F1  UNL     1      29.075  -0.077  53.482  1.00  0.00    -0.211 F 
HETATM    6  C14 UNL     1      27.005  -0.077  52.011  1.00  0.00     0.072 C 
HETATM    7  C15 UNL     1      26.380   1.262  51.643  1.00  0.00     0.045 C 
ENDROOT
BRANCH   1   8
HETATM    8  C6  UNL     1      24.656   2.871  52.420  1.00  0.00     0.064 C 
HETATM    9  N1  UNL     1      24.672   3.546  53.515  1.00  0.00    -0.301 NA
HETATM   10  H6  UNL     1      24.346   4.524  53.637  1.00  0.00     0.186 HD
BRANCH   8  11
HETATM   11  C5  UNL     1      24.155   3.439  51.181  1.00  0.00    -0.010 A 
HETATM   12  C4  UNL     1      24.958   4.170  50.335  1.00  0.00     0.014 A 
HETATM   13  C3  UNL     1      24.531   4.730  49.148  1.00  0.00     0.007 A 
HETATM   14  C2  UNL     1      23.219   4.563  48.757  1.00  0.00    -0.062 A 
HETATM   15  C1  UNL     1      22.697   5.141  47.490  1.00  0.00     0.048 C 
HETATM   16  C17 UNL     1      22.362   3.841  49.560  1.00  0.00     0.007 A 
HETATM   17  C16 UNL     1      22.862   3.312  50.731  1.00  0.00     0.014 A 
ENDBRANCH   8  11
ENDBRANCH   1   8
BRANCH   1  18
HETATM   18  N2  UNL     1      24.156   0.569  52.059  1.00  0.00    -0.354 N 
HETATM   19  H7  UNL     1      23.985   0.327  51.044  1.00  0.00     0.162 HD
BRANCH  18  20
HETATM   20  C8  UNL     1      23.395   0.034  53.142  1.00  0.00     0.170 A 
HETATM   21  N3  UNL     1      23.472  -0.744  54.006  1.00  0.00    -0.200 NA
HETATM   22  C9  UNL     1      22.546  -1.036  54.904  1.00  0.00     0.171 A 
HETATM   23  C10 UNL     1      21.312  -0.312  54.797  1.00  0.00     0.111 A 
HETATM   24  S1  UNL     1      21.655   0.732  53.369  1.00  0.00    -0.060 SA
BRANCH  22  25
HETATM   25  O1  UNL     1      22.871  -2.018  55.858  1.00  0.00    -0.344 OA
HETATM   26  H8  UNL     1      23.284  -2.882  55.526  1.00  0.00     0.219 HD
ENDBRANCH  22  25
ENDBRANCH  18  20
ENDBRANCH   1  18
TORSDOF 5
ENDMDL
MODEL 6
REMARK VINA RESULT:      -8.2      2.717      3.948
REMARK  5 active torsions:
REMARK  status: ('A' for Active; 'I' for Inactive)
REMARK    1  A    between atoms: C5_5  and  C6_6 
REMARK    2  A    between atoms: C6_6  and  C7_8 
REMARK    3  A    between atoms: C7_8  and  N2_9 
REMARK    4  A    between atoms: N2_9  and  C8_10 
REMARK    5  A    between atoms: C9_12  and  O1_13 
ROOT
HETATM    1  C7  UNL     1      25.744   0.080  54.219  1.00  0.00     0.080 C 
HETATM    2  C11 UNL     1      26.060  -0.265  52.783  1.00  0.00     0.067 C 
HETATM    3  C12 UNL     1      27.424  -0.825  52.589  1.00  0.00     0.014 C 
HETATM    4  C13 UNL     1      28.515  -0.507  53.281  1.00  0.00     0.090 C 
HETATM    5  F1  UNL     1      29.748  -1.022  53.095  1.00  0.00    -0.211 F 
HETATM    6  C14 UNL     1      28.153   0.529  54.322  1.00  0.00     0.072 C 
HETATM    7  C15 UNL     1      26.974  -0.087  55.062  1.00  0.00     0.045 C 
ENDROOT
BRANCH   1   8
HETATM    8  C6  UNL     1      24.593  -0.709  54.733  1.00  0.00     0.064 C 
HETATM    9  N1  UNL     1      24.872  -1.534  55.680  1.00  0.00    -0.301 NA
HETATM   10  H6  UNL     1      24.202  -2.165  56.160  1.00  0.00     0.186 HD
BRANCH   8  11
HETATM   11  C5  UNL     1      23.244  -0.572  54.214  1.00  0.00    -0.010 A 
HETATM   12  C4  UNL     1      22.939  -0.828  52.896  1.00  0.00     0.014 A 
HETATM   13  C3  UNL     1      21.675  -0.713  52.354  1.00  0.00     0.007 A 
HETATM   14  C2  UNL     1      20.629  -0.317  53.160  1.00  0.00    -0.062 A 
HETATM   15  C1  UNL     1      19.244  -0.174  52.637  1.00  0.00     0.048 C 
HETATM   16  C17 UNL     1      20.867  -0.045  54.491  1.00  0.00     0.007 A 
HETATM   17  C16 UNL     1      22.157  -0.183  54.959  1.00  0.00     0.014 A 
ENDBRANCH   8  11
ENDBRANCH   1   8
BRANCH   1  18
HETATM   18  N2  UNL     1      25.393   1.488  54.273  1.00  0.00    -0.354 N 
HETATM   19  H7  UNL     1      25.104   1.997  55.153  1.00  0.00     0.162 HD
BRANCH  18  20
HETATM   20  C8  UNL     1      25.482   2.106  52.990  1.00  0.00     0.170 A 
HETATM   21  N3  UNL     1      26.270   2.476  52.214  1.00  0.00    -0.200 NA
HETATM   22  C9  UNL     1      26.034   3.043  51.043  1.00  0.00     0.171 A 
HETATM   23  C10 UNL     1      24.654   3.220  50.694  1.00  0.00     0.111 A 
HETATM   24  S1  UNL     1      23.845   2.524  52.146  1.00  0.00    -0.060 SA
BRANCH  22  25
HETATM   25  O1  UNL     1      27.155   3.407  50.274  1.00  0.00    -0.344 OA
HETATM   26  H8  UNL     1      27.851   4.006  50.706  1.00  0.00     0.219 HD
ENDBRANCH  22  25
ENDBRANCH  18  20
ENDBRANCH   1  18
TORSDOF 5
ENDMDL
MODEL 7
REMARK VINA RESULT:      -8.1      4.672      7.647
REMARK  5 active torsions:
REMARK  status: ('A' for Active; 'I' for Inactive)
REMARK    1  A    between atoms: C5_5  and  C6_6 
REMARK    2  A    between atoms: C6_6  and  C7_8 
REMARK    3  A    between atoms: C7_8  and  N2_9 
REMARK    4  A    between atoms: N2_9  and  C8_10 
REMARK    5  A    between atoms: C9_12  and  O1_13 
ROOT
HETATM    1  C7  UNL     1      25.026   2.839  51.225  1.00  0.00     0.080 C 
HETATM    2  C11 UNL     1      26.462   2.513  51.566  1.00  0.00     0.067 C 
HETATM    3  C12 UNL     1      26.694   1.075  51.867  1.00  0.00     0.014 C 
HETATM    4  C13 UNL     1      25.837   0.242  52.453  1.00  0.00     0.090 C 
HETATM    5  F1  UNL     1      26.060  -1.061  52.721  1.00  0.00    -0.211 F 
HETATM    6  C14 UNL     1      24.562   0.990  52.769  1.00  0.00     0.072 C 
HETATM    7  C15 UNL     1      24.168   1.627  51.444  1.00  0.00     0.045 C 
ENDROOT
BRANCH   1   8
HETATM    8  C6  UNL     1      24.899   3.383  49.847  1.00  0.00     0.064 C 
HETATM    9  N1  UNL     1      23.920   2.912  49.159  1.00  0.00    -0.301 NA
HETATM   10  H6  UNL     1      23.674   3.172  48.184  1.00  0.00     0.186 HD
BRANCH   8  11
HETATM   11  C5  UNL     1      25.808   4.375  49.301  1.00  0.00    -0.010 A 
HETATM   12  C4  UNL     1      27.133   4.095  49.055  1.00  0.00     0.014 A 
HETATM   13  C3  UNL     1      28.036   5.001  48.538  1.00  0.00     0.007 A 
HETATM   14  C2  UNL     1      27.613   6.279  48.237  1.00  0.00    -0.062 A 
HETATM   15  C1  UNL     1      28.536   7.302  47.678  1.00  0.00     0.048 C 
HETATM   16  C17 UNL     1      26.296   6.624  48.460  1.00  0.00     0.007 A 
HETATM   17  C16 UNL     1      25.454   5.664  48.979  1.00  0.00     0.014 A 
ENDBRANCH   8  11
ENDBRANCH   1   8
BRANCH   1  18
HETATM   18  N2  UNL     1      24.565   3.848  52.160  1.00  0.00    -0.354 N 
HETATM   19  H7  UNL     1      25.171   4.296  52.902  1.00  0.00     0.162 HD
BRANCH  18  20
HETATM   20  C8  UNL     1      23.187   4.164  51.964  1.00  0.00     0.170 A 
HETATM   21  N3  UNL     1      22.122   3.720  52.132  1.00  0.00    -0.200 NA
HETATM   22  C9  UNL     1      20.965   4.283  51.828  1.00  0.00     0.171 A 
HETATM   23  C10 UNL     1      21.033   5.583  51.224  1.00  0.00     0.111 A 
HETATM   24  S1  UNL     1      22.817   5.838  51.170  1.00  0.00    -0.060 SA
BRANCH  22  25
HETATM   25  O1  UNL     1      19.802   3.550  52.127  1.00  0.00    -0.344 OA
HETATM   26  H8  UNL     1      19.916   2.621  52.518  1.00  0.00     0.219 HD
ENDBRANCH  22  25
ENDBRANCH  18  20
ENDBRANCH   1  18
TORSDOF 5
ENDMDL
MODEL 8
REMARK VINA RESULT:      -7.9      8.655     10.733
REMARK  5 active torsions:
REMARK  status: ('A' for Active; 'I' for Inactive)
REMARK    1  A    between atoms: C5_5  and  C6_6 
REMARK    2  A    between atoms: C6_6  and  C7_8 
REMARK    3  A    between atoms: C7_8  and  N2_9 
REMARK    4  A    between atoms: N2_9  and  C8_10 
REMARK    5  A    between atoms: C9_12  and  O1_13 
ROOT
HETATM    1  C7  UNL     1      30.732   8.851  47.077  1.00  0.00     0.080 C 
HETATM    2  C11 UNL     1      30.750   8.689  48.579  1.00  0.00     0.067 C 
HETATM    3  C12 UNL     1      30.486   9.950  49.321  1.00  0.00     0.014 C 
HETATM    4  C13 UNL     1      30.837  11.178  48.944  1.00  0.00     0.090 C 
HETATM    5  F1  UNL     1      30.591  12.315  49.626  1.00  0.00    -0.211 F 
HETATM    6  C14 UNL     1      31.557  11.097  47.617  1.00  0.00     0.072 C 
HETATM    7  C15 UNL     1      30.609  10.306  46.728  1.00  0.00     0.045 C 
ENDROOT
BRANCH   1   8
HETATM    8  C6  UNL     1      29.668   8.025  46.449  1.00  0.00     0.064 C 
HETATM    9  N1  UNL     1      29.655   8.031  45.163  1.00  0.00    -0.301 NA
HETATM   10  H6  UNL     1      28.990   7.516  44.554  1.00  0.00     0.186 HD
BRANCH   8  11
HETATM   11  C5  UNL     1      28.702   7.260  47.218  1.00  0.00    -0.010 A 
HETATM   12  C4  UNL     1      29.012   6.039  47.772  1.00  0.00     0.014 A 
HETATM   13  C3  UNL     1      28.131   5.274  48.510  1.00  0.00     0.007 A 
HETATM   14  C2  UNL     1      26.850   5.737  48.723  1.00  0.00    -0.062 A 
HETATM   15  C1  UNL     1      25.854   4.960  49.508  1.00  0.00     0.048 C 
HETATM   16  C17 UNL     1      26.475   6.954  48.194  1.00  0.00     0.007 A 
HETATM   17  C16 UNL     1      27.410   7.661  47.468  1.00  0.00     0.014 A 
ENDBRANCH   8  11
ENDBRANCH   1   8
BRANCH   1  18
HETATM   18  N2  UNL     1      32.016   8.410  46.566  1.00  0.00    -0.354 N 
HETATM   19  H7  UNL     1      32.511   8.846  45.739  1.00  0.00     0.162 HD
BRANCH  18  20
HETATM   20  C8  UNL     1      32.535   7.309  47.311  1.00  0.00     0.170 A 
HETATM   21  N3  UNL     1      32.278   6.210  47.602  1.00  0.00    -0.200 NA
HETATM   22  C9  UNL     1      32.998   5.392  48.352  1.00  0.00     0.171 A 
HETATM   23  C10 UNL     1      34.230   5.922  48.861  1.00  0.00     0.111 A 
HETATM   24  S1  UNL     1      34.193   7.587  48.172  1.00  0.00    -0.060 SA
BRANCH  22  25
HETATM   25  O1  UNL     1      32.480   4.101  48.566  1.00  0.00    -0.344 OA
HETATM   26  H8  UNL     1      33.074   3.310  48.346  1.00  0.00     0.219 HD
ENDBRANCH  22  25
ENDBRANCH  18  20
ENDBRANCH   1  18
TORSDOF 5
ENDMDL
MODEL 9
REMARK VINA RESULT:      -7.8      3.906      6.403
REMARK  5 active torsions:
REMARK  status: ('A' for Active; 'I' for Inactive)
REMARK    1  A    between atoms: C5_5  and  C6_6 
REMARK    2  A    between atoms: C6_6  and  C7_8 
REMARK    3  A    between atoms: C7_8  and  N2_9 
REMARK    4  A    between atoms: N2_9  and  C8_10 
REMARK    5  A    between atoms: C9_12  and  O1_13 
ROOT
HETATM    1  C7  UNL     1      22.673   1.246  52.035  1.00  0.00     0.080 C 
HETATM    2  C11 UNL     1      21.839   2.391  52.561  1.00  0.00     0.067 C 
HETATM    3  C12 UNL     1      20.376   2.200  52.374  1.00  0.00     0.014 C 
HETATM    4  C13 UNL     1      19.784   1.570  51.362  1.00  0.00     0.090 C 
HETATM    5  F1  UNL     1      18.455   1.404  51.204  1.00  0.00    -0.211 F 
HETATM    6  C14 UNL     1      20.844   1.061  50.412  1.00  0.00     0.072 C 
HETATM    7  C15 UNL     1      21.794   0.275  51.303  1.00  0.00     0.045 C 
ENDROOT
BRANCH   1   8
HETATM    8  C6  UNL     1      23.458   0.597  53.118  1.00  0.00     0.064 C 
HETATM    9  N1  UNL     1      22.765  -0.050  53.987  1.00  0.00    -0.301 NA
HETATM   10  H6  UNL     1      23.137  -0.564  54.809  1.00  0.00     0.186 HD
BRANCH   8  11
HETATM   11  C5  UNL     1      24.906   0.676  53.203  1.00  0.00    -0.010 A 
HETATM   12  C4  UNL     1      25.720  -0.350  52.779  1.00  0.00     0.014 A 
HETATM   13  C3  UNL     1      27.099  -0.323  52.839  1.00  0.00     0.007 A 
HETATM   14  C2  UNL     1      27.731   0.790  53.351  1.00  0.00    -0.062 A 
HETATM   15  C1  UNL     1      29.212   0.880  53.442  1.00  0.00     0.048 C 
HETATM   16  C17 UNL     1      26.972   1.854  53.793  1.00  0.00     0.007 A 
HETATM   17  C16 UNL     1      25.600   1.753  53.701  1.00  0.00     0.014 A 
ENDBRANCH   8  11
ENDBRANCH   1   8
BRANCH   1  18
HETATM   18  N2  UNL     1      23.600   1.784  51.056  1.00  0.00    -0.354 N 
HETATM   19  H7  UNL     1      24.207   1.194  50.422  1.00  0.00     0.162 HD
BRANCH  18  20
HETATM   20  C8  UNL     1      23.601   3.211  51.053  1.00  0.00     0.170 A 
HETATM   21  N3  UNL     1      23.934   4.119  51.703  1.00  0.00    -0.200 NA
HETATM   22  C9  UNL     1      23.790   5.403  51.418  1.00  0.00     0.171 A 
HETATM   23  C10 UNL     1      23.151   5.704  50.169  1.00  0.00     0.111 A 
HETATM   24  S1  UNL     1      22.830   4.045  49.544  1.00  0.00    -0.060 SA
BRANCH  22  25
HETATM   25  O1  UNL     1      24.274   6.324  52.365  1.00  0.00    -0.344 OA
HETATM   26  H8  UNL     1      23.826   6.348  53.274  1.00  0.00     0.219 HD
ENDBRANCH  22  25
ENDBRANCH  18  20
ENDBRANCH   1  18
TORSDOF 5
ENDMDL
