MODEL 1
REMARK VINA RESULT:      -6.4      0.000      0.000
REMARK  4 active torsions:
REMARK  status: ('A' for Active; 'I' for Inactive)
REMARK    1  A    between atoms: C2_2  and  C3_3 
REMARK    2  A    between atoms: C3_3  and  O1_4 
REMARK    3  A    between atoms: C5_7  and  C6_8 
REMARK    4  A    between atoms: C8_11  and  C9_12 
ROOT
HETATM    1  C1  UNL     1      20.836   0.243  51.106  1.00  0.00     0.042 C 
HETATM    2  C2  UNL     1      21.300   1.320  52.087  1.00  0.00     0.065 C 
HETATM    3  C4  UNL     1      21.608   2.611  51.255  1.00  0.00     0.208 C 
HETATM    4  O2  UNL     1      22.237   3.507  52.186  1.00  0.00    -0.347 OA
HETATM    5  C5  UNL     1      23.491   4.045  51.907  1.00  0.00     0.082 C 
HETATM    6  C7  UNL     1      24.586   3.977  51.154  1.00  0.00     0.017 C 
HETATM    7  C8  UNL     1      25.460   3.444  50.101  1.00  0.00     0.028 C 
HETATM    8  C10 UNL     1      26.768   2.981  50.675  1.00  0.00     0.038 C 
HETATM    9  C11 UNL     1      26.734   1.819  51.545  1.00  0.00    -0.002 C 
HETATM   10  C12 UNL     1      26.301   0.773  52.227  1.00  0.00     0.130 C 
HETATM   11  O3  UNL     1      25.098   0.168  52.383  1.00  0.00    -0.362 OA
HETATM   12  C13 UNL     1      24.378  -0.101  53.554  1.00  0.00     0.193 C 
HETATM   13  C14 UNL     1      22.863  -0.261  53.174  1.00  0.00     0.141 C 
HETATM   14  N2  UNL     1      22.561   0.962  52.569  1.00  0.00    -0.407 N 
HETATM   15  H23 UNL     1      23.053   1.750  53.090  1.00  0.00     0.154 HD
ENDROOT
BRANCH   2  16
HETATM   16  C3  UNL     1      20.229   1.673  53.043  1.00  0.00     0.196 C 
BRANCH  16  17
HETATM   17  O1  UNL     1      19.625   2.858  52.555  1.00  0.00    -0.398 OA
HETATM   18  H6  UNL     1      20.343   3.548  52.460  1.00  0.00     0.209 HD
ENDBRANCH  16  17
ENDBRANCH   2  16
BRANCH   5  19
HETATM   19  C6  UNL     1      23.304   5.028  52.952  1.00  0.00     0.143 C 
HETATM   20  N1  UNL     1      23.978   6.056  52.594  1.00  0.00    -0.310 NA
HETATM   21  H10 UNL     1      23.988   6.886  53.198  1.00  0.00     0.186 HD
ENDBRANCH   5  19
BRANCH   7  22
HETATM   22  C9  UNL     1      25.788   4.503  49.033  1.00  0.00     0.123 C 
HETATM   23 CL1  UNL     1      27.540   4.485  48.775  1.00  0.00    -0.130 Cl
ENDBRANCH   7  22
TORSDOF 4
ENDMDL
MODEL 2
REMARK VINA RESULT:      -6.2      1.489      2.275
REMARK  4 active torsions:
REMARK  status: ('A' for Active; 'I' for Inactive)
REMARK    1  A    between atoms: C2_2  and  C3_3 
REMARK    2  A    between atoms: C3_3  and  O1_4 
REMARK    3  A    between atoms: C5_7  and  C6_8 
REMARK    4  A    between atoms: C8_11  and  C9_12 
ROOT
HETATM    1  C1  UNL     1      20.168   1.272  49.497  1.00  0.00     0.042 C 
HETATM    2  C2  UNL     1      20.465   2.199  50.676  1.00  0.00     0.065 C 
HETATM    3  C4  UNL     1      21.757   3.010  50.321  1.00  0.00     0.208 C 
HETATM    4  O2  UNL     1      22.107   3.694  51.535  1.00  0.00    -0.347 OA
HETATM    5  C5  UNL     1      23.375   3.537  52.091  1.00  0.00     0.082 C 
HETATM    6  C7  UNL     1      24.502   2.829  52.106  1.00  0.00     0.017 C 
HETATM    7  C8  UNL     1      25.417   1.756  51.699  1.00  0.00     0.028 C 
HETATM    8  C10 UNL     1      25.768   0.880  52.868  1.00  0.00     0.038 C 
HETATM    9  C11 UNL     1      24.704   0.065  53.425  1.00  0.00    -0.002 C 
HETATM   10  C12 UNL     1      23.528  -0.508  53.613  1.00  0.00     0.130 C 
HETATM   11  O3  UNL     1      22.330  -0.458  52.979  1.00  0.00    -0.362 OA
HETATM   12  C13 UNL     1      21.066  -0.126  53.483  1.00  0.00     0.193 C 
HETATM   13  C14 UNL     1      20.167   0.342  52.285  1.00  0.00     0.141 C 
HETATM   14  N2  UNL     1      20.886   1.417  51.755  1.00  0.00    -0.407 N 
HETATM   15  H23 UNL     1      21.315   1.985  52.546  1.00  0.00     0.154 HD
ENDROOT
BRANCH   2  16
HETATM   16  C3  UNL     1      19.382   3.185  50.871  1.00  0.00     0.196 C 
BRANCH  16  17
HETATM   17  O1  UNL     1      19.449   3.598  52.224  1.00  0.00    -0.398 OA
HETATM   18  H6  UNL     1      18.876   2.979  52.761  1.00  0.00     0.209 HD
ENDBRANCH  16  17
ENDBRANCH   2  16
BRANCH   5  19
HETATM   19  C6  UNL     1      23.148   4.689  52.938  1.00  0.00     0.143 C 
HETATM   20  N1  UNL     1      23.846   5.638  52.434  1.00  0.00    -0.310 NA
HETATM   21  H10 UNL     1      23.834   6.562  52.882  1.00  0.00     0.186 HD
ENDBRANCH   5  19
BRANCH   7  22
HETATM   22  C9  UNL     1      26.741   2.309  51.139  1.00  0.00     0.123 C 
HETATM   23 CL1  UNL     1      26.381   3.116  49.603  1.00  0.00    -0.130 Cl
ENDBRANCH   7  22
TORSDOF 4
ENDMDL
MODEL 3
REMARK VINA RESULT:      -6.2      2.632      3.862
REMARK  4 active torsions:
REMARK  status: ('A' for Active; 'I' for Inactive)
REMARK    1  A    between atoms: C2_2  and  C3_3 
REMARK    2  A    between atoms: C3_3  and  O1_4 
REMARK    3  A    between atoms: C5_7  and  C6_8 
REMARK    4  A    between atoms: C8_11  and  C9_12 
ROOT
HETATM    1  C1  UNL     1      21.137   1.074  48.905  1.00  0.00     0.042 C 
HETATM    2  C2  UNL     1      21.377   2.050  50.058  1.00  0.00     0.065 C 
HETATM    3  C4  UNL     1      22.925   2.246  50.192  1.00  0.00     0.208 C 
HETATM    4  O2  UNL     1      23.097   2.989  51.410  1.00  0.00    -0.347 OA
HETATM    5  C5  UNL     1      23.920   2.499  52.422  1.00  0.00     0.082 C 
HETATM    6  C7  UNL     1      24.577   1.450  52.910  1.00  0.00     0.017 C 
HETATM    7  C8  UNL     1      25.046   0.058  52.945  1.00  0.00     0.028 C 
HETATM    8  C10 UNL     1      24.591  -0.627  54.202  1.00  0.00     0.038 C 
HETATM    9  C11 UNL     1      23.166  -0.869  54.343  1.00  0.00    -0.002 C 
HETATM   10  C12 UNL     1      21.870  -0.925  54.089  1.00  0.00     0.130 C 
HETATM   11  O3  UNL     1      21.089  -0.574  53.038  1.00  0.00    -0.362 OA
HETATM   12  C13 UNL     1      19.986   0.290  52.993  1.00  0.00     0.193 C 
HETATM   13  C14 UNL     1      19.819   0.797  51.517  1.00  0.00     0.141 C 
HETATM   14  N2  UNL     1      21.049   1.405  51.254  1.00  0.00    -0.407 N 
HETATM   15  H23 UNL     1      21.382   1.927  52.119  1.00  0.00     0.154 HD
ENDROOT
BRANCH   2  16
HETATM   16  C3  UNL     1      20.801   3.379  49.766  1.00  0.00     0.196 C 
BRANCH  16  17
HETATM   17  O1  UNL     1      20.635   4.031  51.012  1.00  0.00    -0.398 OA
HETATM   18  H6  UNL     1      20.162   3.398  51.627  1.00  0.00     0.209 HD
ENDBRANCH  16  17
ENDBRANCH   2  16
BRANCH   5  19
HETATM   19  C6  UNL     1      23.921   3.801  53.054  1.00  0.00     0.143 C 
HETATM   20  N1  UNL     1      24.317   4.627  52.159  1.00  0.00    -0.310 NA
HETATM   21  H10 UNL     1      24.394   5.623  52.393  1.00  0.00     0.186 HD
ENDBRANCH   5  19
BRANCH   7  22
HETATM   22  C9  UNL     1      26.583  -0.033  52.916  1.00  0.00     0.123 C 
HETATM   23 CL1  UNL     1      27.018  -1.731  52.666  1.00  0.00    -0.130 Cl
ENDBRANCH   7  22
TORSDOF 4
ENDMDL
MODEL 4
REMARK VINA RESULT:      -6.1      2.975      5.111
REMARK  4 active torsions:
REMARK  status: ('A' for Active; 'I' for Inactive)
REMARK    1  A    between atoms: C2_2  and  C3_3 
REMARK    2  A    between atoms: C3_3  and  O1_4 
REMARK    3  A    between atoms: C5_7  and  C6_8 
REMARK    4  A    between atoms: C8_11  and  C9_12 
ROOT
HETATM    1  C1  UNL     1      23.587   5.953  51.517  1.00  0.00     0.042 C 
HETATM    2  C2  UNL     1      23.262   4.821  50.542  1.00  0.00     0.065 C 
HETATM    3  C4  UNL     1      22.097   3.982  51.168  1.00  0.00     0.208 C 
HETATM    4  O2  UNL     1      21.984   2.823  50.326  1.00  0.00    -0.347 OA
HETATM    5  C5  UNL     1      22.071   1.545  50.872  1.00  0.00     0.082 C 
HETATM    6  C7  UNL     1      22.415   0.808  51.925  1.00  0.00     0.017 C 
HETATM    7  C8  UNL     1      22.930   0.558  53.278  1.00  0.00     0.028 C 
HETATM    8  C10 UNL     1      24.131  -0.342  53.235  1.00  0.00     0.038 C 
HETATM    9  C11 UNL     1      25.338   0.196  52.634  1.00  0.00    -0.002 C 
HETATM   10  C12 UNL     1      26.196   1.024  52.062  1.00  0.00     0.130 C 
HETATM   11  O3  UNL     1      26.148   2.318  51.659  1.00  0.00    -0.362 OA
HETATM   12  C13 UNL     1      26.396   2.870  50.396  1.00  0.00     0.193 C 
HETATM   13  C14 UNL     1      25.660   4.254  50.312  1.00  0.00     0.141 C 
HETATM   14  N2  UNL     1      24.326   3.915  50.551  1.00  0.00    -0.407 N 
HETATM   15  H23 UNL     1      24.099   2.994  50.068  1.00  0.00     0.154 HD
ENDROOT
BRANCH   2  16
HETATM   16  C3  UNL     1      22.765   5.347  49.253  1.00  0.00     0.196 C 
BRANCH  16  17
HETATM   17  O1  UNL     1      23.009   4.343  48.285  1.00  0.00    -0.398 OA
HETATM   18  H6  UNL     1      23.707   3.728  48.652  1.00  0.00     0.209 HD
ENDBRANCH  16  17
ENDBRANCH   2  16
BRANCH   5  19
HETATM   19  C6  UNL     1      21.526   0.985  49.654  1.00  0.00     0.143 C 
HETATM   20  N1  UNL     1      22.128   1.581  48.693  1.00  0.00    -0.310 NA
HETATM   21  H10 UNL     1      21.893   1.335  47.724  1.00  0.00     0.186 HD
ENDBRANCH   5  19
BRANCH   7  22
HETATM   22  C9  UNL     1      21.884  -0.130  54.174  1.00  0.00     0.123 C 
HETATM   23 CL1  UNL     1      22.736  -1.298  55.198  1.00  0.00    -0.130 Cl
ENDBRANCH   7  22
TORSDOF 4
ENDMDL
MODEL 5
REMARK VINA RESULT:      -5.8      8.776     10.882
REMARK  4 active torsions:
REMARK  status: ('A' for Active; 'I' for Inactive)
REMARK    1  A    between atoms: C2_2  and  C3_3 
REMARK    2  A    between atoms: C3_3  and  O1_4 
REMARK    3  A    between atoms: C5_7  and  C6_8 
REMARK    4  A    between atoms: C8_11  and  C9_12 
ROOT
HETATM    1  C1  UNL     1      29.142  11.201  48.460  1.00  0.00     0.042 C 
HETATM    2  C2  UNL     1      29.256   9.702  48.736  1.00  0.00     0.065 C 
HETATM    3  C4  UNL     1      30.630   9.459  49.447  1.00  0.00     0.208 C 
HETATM    4  O2  UNL     1      30.777   8.030  49.485  1.00  0.00    -0.347 OA
HETATM    5  C5  UNL     1      31.907   7.424  48.941  1.00  0.00     0.082 C 
HETATM    6  C7  UNL     1      32.974   7.563  48.158  1.00  0.00     0.017 C 
HETATM    7  C8  UNL     1      33.897   8.270  47.260  1.00  0.00     0.028 C 
HETATM    8  C10 UNL     1      33.976   7.583  45.927  1.00  0.00     0.038 C 
HETATM    9  C11 UNL     1      32.787   7.616  45.095  1.00  0.00    -0.002 C 
HETATM   10  C12 UNL     1      31.570   7.882  44.653  1.00  0.00     0.130 C 
HETATM   11  O3  UNL     1      30.518   8.594  45.127  1.00  0.00    -0.362 OA
HETATM   12  C13 UNL     1      29.198   8.188  45.367  1.00  0.00     0.193 C 
HETATM   13  C14 UNL     1      28.567   9.165  46.420  1.00  0.00     0.141 C 
HETATM   14  N2  UNL     1      29.426   9.042  47.516  1.00  0.00    -0.407 N 
HETATM   15  H23 UNL     1      29.724   8.026  47.624  1.00  0.00     0.154 HD
ENDROOT
BRANCH   2  16
HETATM   16  C3  UNL     1      28.204   9.246  49.670  1.00  0.00     0.196 C 
BRANCH  16  17
HETATM   17  O1  UNL     1      28.072   7.849  49.480  1.00  0.00    -0.398 OA
HETATM   18  H6  UNL     1      28.991   7.467  49.377  1.00  0.00     0.209 HD
ENDBRANCH  16  17
ENDBRANCH   2  16
BRANCH   5  19
HETATM   19  C6  UNL     1      31.581   6.193  49.629  1.00  0.00     0.143 C 
HETATM   20  N1  UNL     1      30.393   5.887  49.260  1.00  0.00    -0.310 NA
HETATM   21  H10 UNL     1      29.955   5.037  49.632  1.00  0.00     0.186 HD
ENDBRANCH   5  19
BRANCH   7  22
HETATM   22  C9  UNL     1      35.327   8.319  47.827  1.00  0.00     0.123 C 
HETATM   23 CL1  UNL     1      35.656   6.759  48.598  1.00  0.00    -0.130 Cl
ENDBRANCH   7  22
TORSDOF 4
ENDMDL
MODEL 6
REMARK VINA RESULT:      -5.7      2.603      3.966
REMARK  4 active torsions:
REMARK  status: ('A' for Active; 'I' for Inactive)
REMARK    1  A    between atoms: C2_2  and  C3_3 
REMARK    2  A    between atoms: C3_3  and  O1_4 
REMARK    3  A    between atoms: C5_7  and  C6_8 
REMARK    4  A    between atoms: C8_11  and  C9_12 
ROOT
HETATM    1  C1  UNL     1      21.052   1.440  53.055  1.00  0.00     0.042 C 
HETATM    2  C2  UNL     1      22.390   1.107  52.394  1.00  0.00     0.065 C 
HETATM    3  C4  UNL     1      23.402   2.235  52.790  1.00  0.00     0.208 C 
HETATM    4  O2  UNL     1      24.561   1.990  51.978  1.00  0.00    -0.347 OA
HETATM    5  C5  UNL     1      25.065   2.992  51.151  1.00  0.00     0.082 C 
HETATM    6  C7  UNL     1      24.845   4.170  50.571  1.00  0.00     0.017 C 
HETATM    7  C8  UNL     1      24.080   5.378  50.236  1.00  0.00     0.028 C 
HETATM    8  C10 UNL     1      23.876   5.486  48.752  1.00  0.00     0.038 C 
HETATM    9  C11 UNL     1      23.014   4.498  48.130  1.00  0.00    -0.002 C 
HETATM   10  C12 UNL     1      22.185   3.482  47.962  1.00  0.00     0.130 C 
HETATM   11  O3  UNL     1      21.585   2.594  48.792  1.00  0.00    -0.362 OA
HETATM   12  C13 UNL     1      21.624   1.193  48.782  1.00  0.00     0.193 C 
HETATM   13  C14 UNL     1      21.278   0.682  50.225  1.00  0.00     0.141 C 
HETATM   14  N2  UNL     1      22.257   1.290  51.016  1.00  0.00    -0.407 N 
HETATM   15  H23 UNL     1      23.187   1.288  50.498  1.00  0.00     0.154 HD
ENDROOT
BRANCH   2  16
HETATM   16  C3  UNL     1      22.943  -0.164  52.910  1.00  0.00     0.196 C 
BRANCH  16  17
HETATM   17  O1  UNL     1      22.305  -0.409  54.150  1.00  0.00    -0.398 OA
HETATM   18  H6  UNL     1      22.226  -1.399  54.262  1.00  0.00     0.209 HD
ENDBRANCH  16  17
ENDBRANCH   2  16
BRANCH   5  19
HETATM   19  C6  UNL     1      26.295   2.247  50.994  1.00  0.00     0.143 C 
HETATM   20  N1  UNL     1      27.233   3.028  51.383  1.00  0.00    -0.310 NA
HETATM   21  H10 UNL     1      28.205   2.698  51.357  1.00  0.00     0.186 HD
ENDBRANCH   5  19
BRANCH   7  22
HETATM   22  C9  UNL     1      24.805   6.661  50.685  1.00  0.00     0.123 C 
HETATM   23 CL1  UNL     1      23.601   7.957  50.775  1.00  0.00    -0.130 Cl
ENDBRANCH   7  22
TORSDOF 4
ENDMDL
MODEL 7
REMARK VINA RESULT:      -5.5      2.982      5.339
REMARK  4 active torsions:
REMARK  status: ('A' for Active; 'I' for Inactive)
REMARK    1  A    between atoms: C2_2  and  C3_3 
REMARK    2  A    between atoms: C3_3  and  O1_4 
REMARK    3  A    between atoms: C5_7  and  C6_8 
REMARK    4  A    between atoms: C8_11  and  C9_12 
ROOT
HETATM    1  C1  UNL     1      23.403   5.004  52.657  1.00  0.00     0.042 C 
HETATM    2  C2  UNL     1      23.254   4.050  51.471  1.00  0.00     0.065 C 
HETATM    3  C4  UNL     1      21.768   3.555  51.451  1.00  0.00     0.208 C 
HETATM    4  O2  UNL     1      21.742   2.511  50.464  1.00  0.00    -0.347 OA
HETATM    5  C5  UNL     1      21.277   1.240  50.797  1.00  0.00     0.082 C 
HETATM    6  C7  UNL     1      20.956   0.395  51.773  1.00  0.00     0.017 C 
HETATM    7  C8  UNL     1      20.776  -0.043  53.163  1.00  0.00     0.028 C 
HETATM    8  C10 UNL     1      21.625  -1.247  53.458  1.00  0.00     0.038 C 
HETATM    9  C11 UNL     1      23.063  -1.053  53.471  1.00  0.00    -0.002 C 
HETATM   10  C12 UNL     1      24.255  -0.482  53.418  1.00  0.00     0.130 C 
HETATM   11  O3  UNL     1      24.697   0.787  53.234  1.00  0.00    -0.362 OA
HETATM   12  C13 UNL     1      25.580   1.294  52.271  1.00  0.00     0.193 C 
HETATM   13  C14 UNL     1      25.309   2.833  52.119  1.00  0.00     0.141 C 
HETATM   14  N2  UNL     1      23.959   2.879  51.758  1.00  0.00    -0.407 N 
HETATM   15  H23 UNL     1      23.741   2.080  51.090  1.00  0.00     0.154 HD
ENDROOT
BRANCH   2  16
HETATM   16  C3  UNL     1      23.490   4.746  50.188  1.00  0.00     0.196 C 
BRANCH  16  17
HETATM   17  O1  UNL     1      22.236   5.249  49.764  1.00  0.00    -0.398 OA
HETATM   18  H6  UNL     1      22.405   5.921  49.043  1.00  0.00     0.209 HD
ENDBRANCH  16  17
ENDBRANCH   2  16
BRANCH   5  19
HETATM   19  C6  UNL     1      21.178   0.907  49.392  1.00  0.00     0.143 C 
HETATM   20  N1  UNL     1      22.099   1.576  48.805  1.00  0.00    -0.310 NA
HETATM   21  H10 UNL     1      22.212   1.490  47.789  1.00  0.00     0.186 HD
ENDBRANCH   5  19
BRANCH   7  22
HETATM   22  C9  UNL     1      19.317  -0.440  53.457  1.00  0.00     0.123 C 
HETATM   23 CL1  UNL     1      18.456  -0.517  51.911  1.00  0.00    -0.130 Cl
ENDBRANCH   7  22
TORSDOF 4
ENDMDL
MODEL 8
REMARK VINA RESULT:      -5.4      7.738     11.261
REMARK  4 active torsions:
REMARK  status: ('A' for Active; 'I' for Inactive)
REMARK    1  A    between atoms: C2_2  and  C3_3 
REMARK    2  A    between atoms: C3_3  and  O1_4 
REMARK    3  A    between atoms: C5_7  and  C6_8 
REMARK    4  A    between atoms: C8_11  and  C9_12 
ROOT
HETATM    1  C1  UNL     1      32.107   8.305  44.335  1.00  0.00     0.042 C 
HETATM    2  C2  UNL     1      32.492   8.155  45.807  1.00  0.00     0.065 C 
HETATM    3  C4  UNL     1      32.020   6.736  46.272  1.00  0.00     0.208 C 
HETATM    4  O2  UNL     1      32.209   6.734  47.697  1.00  0.00    -0.347 OA
HETATM    5  C5  UNL     1      31.145   6.441  48.547  1.00  0.00     0.082 C 
HETATM    6  C7  UNL     1      29.828   6.302  48.671  1.00  0.00     0.017 C 
HETATM    7  C8  UNL     1      28.431   6.296  48.218  1.00  0.00     0.028 C 
HETATM    8  C10 UNL     1      27.614   7.293  48.990  1.00  0.00     0.038 C 
HETATM    9  C11 UNL     1      27.911   8.698  48.774  1.00  0.00    -0.002 C 
HETATM   10  C12 UNL     1      28.445   9.810  48.300  1.00  0.00     0.130 C 
HETATM   11  O3  UNL     1      29.386  10.094  47.366  1.00  0.00    -0.362 OA
HETATM   12  C13 UNL     1      30.574  10.828  47.488  1.00  0.00     0.193 C 
HETATM   13  C14 UNL     1      31.547  10.379  46.341  1.00  0.00     0.141 C 
HETATM   14  N2  UNL     1      31.681   9.006  46.563  1.00  0.00    -0.407 N 
HETATM   15  H23 UNL     1      31.729   8.816  47.608  1.00  0.00     0.154 HD
ENDROOT
BRANCH   2  16
HETATM   16  C3  UNL     1      33.959   8.198  45.987  1.00  0.00     0.196 C 
BRANCH  16  17
HETATM   17  O1  UNL     1      34.508   7.293  45.047  1.00  0.00    -0.398 OA
HETATM   18  H6  UNL     1      35.448   7.578  44.862  1.00  0.00     0.209 HD
ENDBRANCH  16  17
ENDBRANCH   2  16
BRANCH   5  19
HETATM   19  C6  UNL     1      32.071   6.253  49.644  1.00  0.00     0.143 C 
HETATM   20  N1  UNL     1      31.460   5.521  50.499  1.00  0.00    -0.310 NA
HETATM   21  H10 UNL     1      31.938   5.259  51.369  1.00  0.00     0.186 HD
ENDBRANCH   5  19
BRANCH   7  22
HETATM   22  C9  UNL     1      27.767   4.921  48.418  1.00  0.00     0.123 C 
HETATM   23 CL1  UNL     1      26.098   5.199  48.945  1.00  0.00    -0.130 Cl
ENDBRANCH   7  22
TORSDOF 4
ENDMDL
MODEL 9
REMARK VINA RESULT:      -5.3      2.741      5.102
REMARK  4 active torsions:
REMARK  status: ('A' for Active; 'I' for Inactive)
REMARK    1  A    between atoms: C2_2  and  C3_3 
REMARK    2  A    between atoms: C3_3  and  O1_4 
REMARK    3  A    between atoms: C5_7  and  C6_8 
REMARK    4  A    between atoms: C8_11  and  C9_12 
ROOT
HETATM    1  C1  UNL     1      25.693   2.590  53.781  1.00  0.00     0.042 C 
HETATM    2  C2  UNL     1      25.310   2.057  52.400  1.00  0.00     0.065 C 
HETATM    3  C4  UNL     1      24.460   3.164  51.689  1.00  0.00     0.208 C 
HETATM    4  O2  UNL     1      23.952   2.532  50.503  1.00  0.00    -0.347 OA
HETATM    5  C5  UNL     1      22.582   2.505  50.252  1.00  0.00     0.082 C 
HETATM    6  C7  UNL     1      21.358   2.674  50.746  1.00  0.00     0.017 C 
HETATM    7  C8  UNL     1      20.358   2.982  51.777  1.00  0.00     0.028 C 
HETATM    8  C10 UNL     1      19.441   1.812  51.997  1.00  0.00     0.038 C 
HETATM    9  C11 UNL     1      20.020   0.623  52.596  1.00  0.00    -0.002 C 
HETATM   10  C12 UNL     1      20.880  -0.210  53.156  1.00  0.00     0.130 C 
HETATM   11  O3  UNL     1      22.181  -0.129  53.529  1.00  0.00    -0.362 OA
HETATM   12  C13 UNL     1      23.269  -0.929  53.154  1.00  0.00     0.193 C 
HETATM   13  C14 UNL     1      24.585  -0.101  53.372  1.00  0.00     0.141 C 
HETATM   14  N2  UNL     1      24.382   1.025  52.569  1.00  0.00    -0.407 N 
HETATM   15  H23 UNL     1      23.901   0.738  51.665  1.00  0.00     0.154 HD
ENDROOT
BRANCH   2  16
HETATM   16  C3  UNL     1      26.505   1.830  51.560  1.00  0.00     0.196 C 
BRANCH  16  17
HETATM   17  O1  UNL     1      27.006   3.109  51.217  1.00  0.00    -0.398 OA
HETATM   18  H6  UNL     1      27.265   3.572  52.065  1.00  0.00     0.209 HD
ENDBRANCH  16  17
ENDBRANCH   2  16
BRANCH   5  19
HETATM   19  C6  UNL     1      22.839   2.129  48.878  1.00  0.00     0.143 C 
HETATM   20  N1  UNL     1      22.738   3.206  48.193  1.00  0.00    -0.310 NA
HETATM   21  H10 UNL     1      22.884   3.171  47.178  1.00  0.00     0.186 HD
ENDBRANCH   5  19
BRANCH   7  22
HETATM   22  C9  UNL     1      19.473   4.178  51.383  1.00  0.00     0.123 C 
HETATM   23 CL1  UNL     1      20.482   5.323  50.483  1.00  0.00    -0.130 Cl
ENDBRANCH   7  22
TORSDOF 4
ENDMDL
