MODEL 1
REMARK VINA RESULT:      -7.0      0.000      0.000
REMARK  5 active torsions:
REMARK  status: ('A' for Active; 'I' for Inactive)
REMARK    1  A    between atoms: C3_3  and  C4_4 
REMARK    2  A    between atoms: C4_4  and  C5_5 
REMARK    3  A    between atoms: C5_5  and  N1_6 
REMARK    4  A    between atoms: N1_6  and  C6_7 
REMARK    5  A    between atoms: N2_8  and  C7_9 
ROOT
HETATM    1  C7  UNL     1      27.036   1.933  52.100  1.00  0.00     0.025 A 
HETATM    2  C8  UNL     1      27.855   2.517  53.058  1.00  0.00     0.031 A 
HETATM    3  C9  UNL     1      28.576   1.704  53.898  1.00  0.00     0.046 A 
HETATM    4  C10 UNL     1      28.495   0.327  53.803  1.00  0.00     0.137 A 
HETATM    5  F1  UNL     1      29.221  -0.456  54.651  1.00  0.00    -0.204 F 
HETATM    6  C11 UNL     1      27.667  -0.247  52.834  1.00  0.00     0.085 A 
HETATM    7  C12 UNL     1      27.622  -1.668  52.779  1.00  0.00     0.102 C 
HETATM    8  N3  UNL     1      27.603  -2.834  52.739  1.00  0.00    -0.191 NA
HETATM    9  C13 UNL     1      26.927   0.562  51.970  1.00  0.00     0.054 A 
ENDROOT
BRANCH   1  10
HETATM   10  N2  UNL     1      26.238   2.651  51.167  1.00  0.00    -0.372 NA
HETATM   11  C6  UNL     1      25.056   3.091  51.459  1.00  0.00     0.403 C 
BRANCH  11  12
HETATM   12  N1  UNL     1      24.184   3.067  52.610  1.00  0.00    -0.258 NA
BRANCH  12  13
HETATM   13  C5  UNL     1      23.342   2.090  52.613  1.00  0.00     0.097 C 
BRANCH  13  14
HETATM   14  C4  UNL     1      22.539   0.825  52.482  1.00  0.00     0.114 C 
BRANCH  14  15
HETATM   15  C3  UNL     1      22.831  -0.085  53.598  1.00  0.00     0.080 C 
HETATM   16  C2  UNL     1      21.973  -0.868  54.244  1.00  0.00     0.072 C 
HETATM   17  C1  UNL     1      20.563  -0.839  53.811  1.00  0.00     0.079 C 
HETATM   18  O2  UNL     1      22.379  -1.688  55.292  1.00  0.00    -0.351 OA
HETATM   19  C15 UNL     1      23.628  -1.402  55.907  1.00  0.00     0.202 C 
HETATM   20  C14 UNL     1      24.639  -1.246  54.777  1.00  0.00     0.202 C 
HETATM   21  O1  UNL     1      24.167  -0.123  54.021  1.00  0.00    -0.350 OA
ENDBRANCH  14  15
ENDBRANCH  13  14
ENDBRANCH  12  13
ENDBRANCH  11  12
ENDBRANCH   1  10
TORSDOF 5
ENDMDL
MODEL 2
REMARK VINA RESULT:      -7.0      1.394      2.039
REMARK  5 active torsions:
REMARK  status: ('A' for Active; 'I' for Inactive)
REMARK    1  A    between atoms: C3_3  and  C4_4 
REMARK    2  A    between atoms: C4_4  and  C5_5 
REMARK    3  A    between atoms: C5_5  and  N1_6 
REMARK    4  A    between atoms: N1_6  and  C6_7 
REMARK    5  A    between atoms: N2_8  and  C7_9 
ROOT
HETATM    1  C7  UNL     1      26.710   1.501  51.780  1.00  0.00     0.025 A 
HETATM    2  C8  UNL     1      26.525   0.125  51.821  1.00  0.00     0.031 A 
HETATM    3  C9  UNL     1      27.246  -0.614  52.727  1.00  0.00     0.046 A 
HETATM    4  C10 UNL     1      28.143  -0.010  53.589  1.00  0.00     0.137 A 
HETATM    5  F1  UNL     1      28.845  -0.768  54.479  1.00  0.00    -0.204 F 
HETATM    6  C11 UNL     1      28.319   1.376  53.538  1.00  0.00     0.085 A 
HETATM    7  C12 UNL     1      29.253   1.946  54.446  1.00  0.00     0.102 C 
HETATM    8  N3  UNL     1      30.015   2.400  55.205  1.00  0.00    -0.191 NA
HETATM    9  C13 UNL     1      27.595   2.144  52.623  1.00  0.00     0.054 A 
ENDROOT
BRANCH   1  10
HETATM   10  N2  UNL     1      26.033   2.385  50.896  1.00  0.00    -0.372 NA
HETATM   11  C6  UNL     1      24.930   2.980  51.221  1.00  0.00     0.403 C 
BRANCH  11  12
HETATM   12  N1  UNL     1      24.061   3.020  52.373  1.00  0.00    -0.258 NA
BRANCH  12  13
HETATM   13  C5  UNL     1      23.086   2.175  52.328  1.00  0.00     0.097 C 
BRANCH  13  14
HETATM   14  C4  UNL     1      21.908   1.261  52.518  1.00  0.00     0.114 C 
BRANCH  14  15
HETATM   15  C3  UNL     1      22.232   0.202  53.484  1.00  0.00     0.080 C 
HETATM   16  C2  UNL     1      21.400  -0.692  54.009  1.00  0.00     0.072 C 
HETATM   17  C1  UNL     1      19.987  -0.637  53.591  1.00  0.00     0.079 C 
HETATM   18  O2  UNL     1      21.836  -1.648  54.921  1.00  0.00    -0.351 OA
HETATM   19  C15 UNL     1      23.081  -1.423  55.567  1.00  0.00     0.202 C 
HETATM   20  C14 UNL     1      24.080  -1.073  54.469  1.00  0.00     0.202 C 
HETATM   21  O1  UNL     1      23.572   0.138  53.892  1.00  0.00    -0.350 OA
ENDBRANCH  14  15
ENDBRANCH  13  14
ENDBRANCH  12  13
ENDBRANCH  11  12
ENDBRANCH   1  10
TORSDOF 5
ENDMDL
MODEL 3
REMARK VINA RESULT:      -6.8      3.653      5.860
REMARK  5 active torsions:
REMARK  status: ('A' for Active; 'I' for Inactive)
REMARK    1  A    between atoms: C3_3  and  C4_4 
REMARK    2  A    between atoms: C4_4  and  C5_5 
REMARK    3  A    between atoms: C5_5  and  N1_6 
REMARK    4  A    between atoms: N1_6  and  C6_7 
REMARK    5  A    between atoms: N2_8  and  C7_9 
ROOT
HETATM    1  C7  UNL     1      24.656   4.151  50.204  1.00  0.00     0.025 A 
HETATM    2  C8  UNL     1      25.529   3.085  50.027  1.00  0.00     0.031 A 
HETATM    3  C9  UNL     1      26.733   3.310  49.407  1.00  0.00     0.046 A 
HETATM    4  C10 UNL     1      27.083   4.572  48.961  1.00  0.00     0.137 A 
HETATM    5  F1  UNL     1      28.286   4.766  48.349  1.00  0.00    -0.204 F 
HETATM    6  C11 UNL     1      26.196   5.636  49.146  1.00  0.00     0.085 A 
HETATM    7  C12 UNL     1      26.605   6.912  48.670  1.00  0.00     0.102 C 
HETATM    8  N3  UNL     1      26.960   7.955  48.284  1.00  0.00    -0.191 NA
HETATM    9  C13 UNL     1      24.967   5.428  49.775  1.00  0.00     0.054 A 
ENDROOT
BRANCH   1  10
HETATM   10  N2  UNL     1      23.382   4.063  50.827  1.00  0.00    -0.372 NA
HETATM   11  C6  UNL     1      23.244   3.909  52.106  1.00  0.00     0.403 C 
BRANCH  11  12
HETATM   12  N1  UNL     1      24.121   3.782  53.246  1.00  0.00    -0.258 NA
BRANCH  12  13
HETATM   13  C5  UNL     1      24.638   2.608  53.385  1.00  0.00     0.097 C 
BRANCH  13  14
HETATM   14  C4  UNL     1      25.083   1.172  53.356  1.00  0.00     0.114 C 
BRANCH  14  15
HETATM   15  C3  UNL     1      26.547   1.087  53.444  1.00  0.00     0.080 C 
HETATM   16  C2  UNL     1      27.317   0.062  53.095  1.00  0.00     0.072 C 
HETATM   17  C1  UNL     1      26.651  -1.139  52.556  1.00  0.00     0.079 C 
HETATM   18  O2  UNL     1      28.701   0.108  53.230  1.00  0.00    -0.351 OA
HETATM   19  C15 UNL     1      29.247   1.102  54.087  1.00  0.00     0.202 C 
HETATM   20  C14 UNL     1      28.590   2.420  53.692  1.00  0.00     0.202 C 
HETATM   21  O1  UNL     1      27.195   2.221  53.955  1.00  0.00    -0.350 OA
ENDBRANCH  14  15
ENDBRANCH  13  14
ENDBRANCH  12  13
ENDBRANCH  11  12
ENDBRANCH   1  10
TORSDOF 5
ENDMDL
MODEL 4
REMARK VINA RESULT:      -6.8      1.543      2.352
REMARK  5 active torsions:
REMARK  status: ('A' for Active; 'I' for Inactive)
REMARK    1  A    between atoms: C3_3  and  C4_4 
REMARK    2  A    between atoms: C4_4  and  C5_5 
REMARK    3  A    between atoms: C5_5  and  N1_6 
REMARK    4  A    between atoms: N1_6  and  C6_7 
REMARK    5  A    between atoms: N2_8  and  C7_9 
ROOT
HETATM    1  C7  UNL     1      27.174   1.882  52.325  1.00  0.00     0.025 A 
HETATM    2  C8  UNL     1      28.068   2.442  53.229  1.00  0.00     0.031 A 
HETATM    3  C9  UNL     1      28.853   1.610  53.988  1.00  0.00     0.046 A 
HETATM    4  C10 UNL     1      28.764   0.235  53.865  1.00  0.00     0.137 A 
HETATM    5  F1  UNL     1      29.555  -0.568  54.631  1.00  0.00    -0.204 F 
HETATM    6  C11 UNL     1      27.861  -0.316  52.951  1.00  0.00     0.085 A 
HETATM    7  C12 UNL     1      27.810  -1.735  52.863  1.00  0.00     0.102 C 
HETATM    8  N3  UNL     1      27.788  -2.900  52.795  1.00  0.00    -0.191 NA
HETATM    9  C13 UNL     1      27.054   0.514  52.169  1.00  0.00     0.054 A 
ENDROOT
BRANCH   1  10
HETATM   10  N2  UNL     1      26.304   2.622  51.478  1.00  0.00    -0.372 NA
HETATM   11  C6  UNL     1      25.079   2.887  51.803  1.00  0.00     0.403 C 
BRANCH  11  12
HETATM   12  N1  UNL     1      24.212   2.619  52.925  1.00  0.00    -0.258 NA
BRANCH  12  13
HETATM   13  C5  UNL     1      23.703   1.433  52.926  1.00  0.00     0.097 C 
BRANCH  13  14
HETATM   14  C4  UNL     1      23.058   0.098  53.176  1.00  0.00     0.114 C 
BRANCH  14  15
HETATM   15  C3  UNL     1      21.606   0.185  52.975  1.00  0.00     0.080 C 
HETATM   16  C2  UNL     1      20.669  -0.579  53.527  1.00  0.00     0.072 C 
HETATM   17  C1  UNL     1      21.111  -1.642  54.449  1.00  0.00     0.079 C 
HETATM   18  O2  UNL     1      19.317  -0.393  53.251  1.00  0.00    -0.351 OA
HETATM   19  C15 UNL     1      18.979   0.364  52.097  1.00  0.00     0.202 C 
HETATM   20  C14 UNL     1      19.810   1.641  52.159  1.00  0.00     0.202 C 
HETATM   21  O1  UNL     1      21.170   1.190  52.100  1.00  0.00    -0.350 OA
ENDBRANCH  14  15
ENDBRANCH  13  14
ENDBRANCH  12  13
ENDBRANCH  11  12
ENDBRANCH   1  10
TORSDOF 5
ENDMDL
MODEL 5
REMARK VINA RESULT:      -6.8      2.607      3.867
REMARK  5 active torsions:
REMARK  status: ('A' for Active; 'I' for Inactive)
REMARK    1  A    between atoms: C3_3  and  C4_4 
REMARK    2  A    between atoms: C4_4  and  C5_5 
REMARK    3  A    between atoms: C5_5  and  N1_6 
REMARK    4  A    between atoms: N1_6  and  C6_7 
REMARK    5  A    between atoms: N2_8  and  C7_9 
ROOT
HETATM    1  C7  UNL     1      26.220   0.148  52.744  1.00  0.00     0.025 A 
HETATM    2  C8  UNL     1      26.679  -1.142  52.508  1.00  0.00     0.031 A 
HETATM    3  C9  UNL     1      27.940  -1.485  52.930  1.00  0.00     0.046 A 
HETATM    4  C10 UNL     1      28.749  -0.571  53.581  1.00  0.00     0.137 A 
HETATM    5  F1  UNL     1      29.996  -0.939  53.990  1.00  0.00    -0.204 F 
HETATM    6  C11 UNL     1      28.274   0.723  53.813  1.00  0.00     0.085 A 
HETATM    7  C12 UNL     1      29.147   1.623  54.486  1.00  0.00     0.102 C 
HETATM    8  N3  UNL     1      29.870   2.346  55.049  1.00  0.00    -0.191 NA
HETATM    9  C13 UNL     1      26.995   1.091  53.391  1.00  0.00     0.054 A 
ENDROOT
BRANCH   1  10
HETATM   10  N2  UNL     1      24.941   0.637  52.363  1.00  0.00    -0.372 NA
HETATM   11  C6  UNL     1      23.851   0.264  52.955  1.00  0.00     0.403 C 
BRANCH  11  12
HETATM   12  N1  UNL     1      23.498  -0.625  54.036  1.00  0.00    -0.258 NA
BRANCH  12  13
HETATM   13  C5  UNL     1      22.226  -0.765  54.210  1.00  0.00     0.097 C 
BRANCH  13  14
HETATM   14  C4  UNL     1      20.784  -1.169  54.334  1.00  0.00     0.114 C 
BRANCH  14  15
HETATM   15  C3  UNL     1      19.960  -0.436  53.363  1.00  0.00     0.080 C 
HETATM   16  C2  UNL     1      18.735  -0.745  52.950  1.00  0.00     0.072 C 
HETATM   17  C1  UNL     1      18.110  -1.956  53.513  1.00  0.00     0.079 C 
HETATM   18  O2  UNL     1      18.059   0.039  52.019  1.00  0.00    -0.351 OA
HETATM   19  C15 UNL     1      18.827   0.947  51.240  1.00  0.00     0.202 C 
HETATM   20  C14 UNL     1      19.706   1.717  52.219  1.00  0.00     0.202 C 
HETATM   21  O1  UNL     1      20.542   0.718  52.818  1.00  0.00    -0.350 OA
ENDBRANCH  14  15
ENDBRANCH  13  14
ENDBRANCH  12  13
ENDBRANCH  11  12
ENDBRANCH   1  10
TORSDOF 5
ENDMDL
MODEL 6
REMARK VINA RESULT:      -6.7      4.789      7.004
REMARK  5 active torsions:
REMARK  status: ('A' for Active; 'I' for Inactive)
REMARK    1  A    between atoms: C3_3  and  C4_4 
REMARK    2  A    between atoms: C4_4  and  C5_5 
REMARK    3  A    between atoms: C5_5  and  N1_6 
REMARK    4  A    between atoms: N1_6  and  C6_7 
REMARK    5  A    between atoms: N2_8  and  C7_9 
ROOT
HETATM    1  C7  UNL     1      26.879   5.805  48.807  1.00  0.00     0.025 A 
HETATM    2  C8  UNL     1      28.114   5.379  48.336  1.00  0.00     0.031 A 
HETATM    3  C9  UNL     1      29.119   6.302  48.181  1.00  0.00     0.046 A 
HETATM    4  C10 UNL     1      28.917   7.636  48.485  1.00  0.00     0.137 A 
HETATM    5  F1  UNL     1      29.933   8.530  48.323  1.00  0.00    -0.204 F 
HETATM    6  C11 UNL     1      27.670   8.051  48.959  1.00  0.00     0.085 A 
HETATM    7  C12 UNL     1      27.516   9.433  49.257  1.00  0.00     0.102 C 
HETATM    8  N3  UNL     1      27.408  10.568  49.508  1.00  0.00    -0.191 NA
HETATM    9  C13 UNL     1      26.635   7.127  49.124  1.00  0.00     0.054 A 
ENDROOT
BRANCH   1  10
HETATM   10  N2  UNL     1      25.754   4.961  49.015  1.00  0.00    -0.372 NA
HETATM   11  C6  UNL     1      25.808   3.905  49.763  1.00  0.00     0.403 C 
BRANCH  11  12
HETATM   12  N1  UNL     1      26.809   3.234  50.558  1.00  0.00    -0.258 NA
BRANCH  12  13
HETATM   13  C5  UNL     1      26.379   2.181  51.168  1.00  0.00     0.097 C 
BRANCH  13  14
HETATM   14  C4  UNL     1      26.088   0.840  51.783  1.00  0.00     0.114 C 
BRANCH  14  15
HETATM   15  C3  UNL     1      27.113   0.500  52.778  1.00  0.00     0.080 C 
HETATM   16  C2  UNL     1      27.496  -0.715  53.157  1.00  0.00     0.072 C 
HETATM   17  C1  UNL     1      26.831  -1.869  52.523  1.00  0.00     0.079 C 
HETATM   18  O2  UNL     1      28.485  -0.903  54.118  1.00  0.00    -0.351 OA
HETATM   19  C15 UNL     1      28.810   0.199  54.954  1.00  0.00     0.202 C 
HETATM   20  C14 UNL     1      29.023   1.393  54.029  1.00  0.00     0.202 C 
HETATM   21  O1  UNL     1      27.754   1.586  53.391  1.00  0.00    -0.350 OA
ENDBRANCH  14  15
ENDBRANCH  13  14
ENDBRANCH  12  13
ENDBRANCH  11  12
ENDBRANCH   1  10
TORSDOF 5
ENDMDL
MODEL 7
REMARK VINA RESULT:      -6.6      2.837      5.499
REMARK  5 active torsions:
REMARK  status: ('A' for Active; 'I' for Inactive)
REMARK    1  A    between atoms: C3_3  and  C4_4 
REMARK    2  A    between atoms: C4_4  and  C5_5 
REMARK    3  A    between atoms: C5_5  and  N1_6 
REMARK    4  A    between atoms: N1_6  and  C6_7 
REMARK    5  A    between atoms: N2_8  and  C7_9 
ROOT
HETATM    1  C7  UNL     1      21.603  -0.132  52.520  1.00  0.00     0.025 A 
HETATM    2  C8  UNL     1      20.712  -0.558  53.496  1.00  0.00     0.031 A 
HETATM    3  C9  UNL     1      21.208  -1.050  54.678  1.00  0.00     0.046 A 
HETATM    4  C10 UNL     1      22.571  -1.125  54.905  1.00  0.00     0.137 A 
HETATM    5  F1  UNL     1      23.036  -1.617  56.088  1.00  0.00    -0.204 F 
HETATM    6  C11 UNL     1      23.456  -0.691  53.915  1.00  0.00     0.085 A 
HETATM    7  C12 UNL     1      24.847  -0.789  54.200  1.00  0.00     0.102 C 
HETATM    8  N3  UNL     1      25.984  -0.866  54.452  1.00  0.00    -0.191 NA
HETATM    9  C13 UNL     1      22.971  -0.187  52.706  1.00  0.00     0.054 A 
ENDROOT
BRANCH   1  10
HETATM   10  N2  UNL     1      21.230   0.398  51.255  1.00  0.00    -0.372 NA
HETATM   11  C6  UNL     1      21.162   1.672  51.029  1.00  0.00     0.403 C 
BRANCH  11  12
HETATM   12  N1  UNL     1      21.382   2.883  51.783  1.00  0.00    -0.258 NA
BRANCH  12  13
HETATM   13  C5  UNL     1      22.504   3.467  51.526  1.00  0.00     0.097 C 
BRANCH  13  14
HETATM   14  C4  UNL     1      23.715   4.178  50.989  1.00  0.00     0.114 C 
BRANCH  14  15
HETATM   15  C3  UNL     1      24.940   3.456  51.361  1.00  0.00     0.080 C 
HETATM   16  C2  UNL     1      26.072   3.381  50.669  1.00  0.00     0.072 C 
HETATM   17  C1  UNL     1      26.132   4.093  49.379  1.00  0.00     0.079 C 
HETATM   18  O2  UNL     1      27.167   2.658  51.135  1.00  0.00    -0.351 OA
HETATM   19  C15 UNL     1      26.936   1.702  52.161  1.00  0.00     0.202 C 
HETATM   20  C14 UNL     1      26.122   2.411  53.237  1.00  0.00     0.202 C 
HETATM   21  O1  UNL     1      24.898   2.773  52.585  1.00  0.00    -0.350 OA
ENDBRANCH  14  15
ENDBRANCH  13  14
ENDBRANCH  12  13
ENDBRANCH  11  12
ENDBRANCH   1  10
TORSDOF 5
ENDMDL
MODEL 8
REMARK VINA RESULT:      -6.5      2.634      5.231
REMARK  5 active torsions:
REMARK  status: ('A' for Active; 'I' for Inactive)
REMARK    1  A    between atoms: C3_3  and  C4_4 
REMARK    2  A    between atoms: C4_4  and  C5_5 
REMARK    3  A    between atoms: C5_5  and  N1_6 
REMARK    4  A    between atoms: N1_6  and  C6_7 
REMARK    5  A    between atoms: N2_8  and  C7_9 
ROOT
HETATM    1  C7  UNL     1      22.021   0.960  52.581  1.00  0.00     0.025 A 
HETATM    2  C8  UNL     1      20.819   0.284  52.748  1.00  0.00     0.031 A 
HETATM    3  C9  UNL     1      20.773  -0.782  53.613  1.00  0.00     0.046 A 
HETATM    4  C10 UNL     1      21.897  -1.186  54.310  1.00  0.00     0.137 A 
HETATM    5  F1  UNL     1      21.822  -2.247  55.162  1.00  0.00    -0.204 F 
HETATM    6  C11 UNL     1      23.100  -0.496  54.133  1.00  0.00     0.085 A 
HETATM    7  C12 UNL     1      24.225  -0.952  54.874  1.00  0.00     0.102 C 
HETATM    8  N3  UNL     1      25.136  -1.331  55.498  1.00  0.00    -0.191 NA
HETATM    9  C13 UNL     1      23.167   0.591  53.258  1.00  0.00     0.054 A 
ENDROOT
BRANCH   1  10
HETATM   10  N2  UNL     1      22.212   2.077  51.722  1.00  0.00    -0.372 NA
HETATM   11  C6  UNL     1      23.238   2.860  51.820  1.00  0.00     0.403 C 
BRANCH  11  12
HETATM   12  N1  UNL     1      24.411   2.951  52.658  1.00  0.00    -0.258 NA
BRANCH  12  13
HETATM   13  C5  UNL     1      25.481   2.469  52.121  1.00  0.00     0.097 C 
BRANCH  13  14
HETATM   14  C4  UNL     1      26.636   1.679  51.571  1.00  0.00     0.114 C 
BRANCH  14  15
HETATM   15  C3  UNL     1      27.388   1.045  52.662  1.00  0.00     0.080 C 
HETATM   16  C2  UNL     1      27.436  -0.249  52.961  1.00  0.00     0.072 C 
HETATM   17  C1  UNL     1      26.653  -1.174  52.119  1.00  0.00     0.079 C 
HETATM   18  O2  UNL     1      28.192  -0.725  54.029  1.00  0.00    -0.351 OA
HETATM   19  C15 UNL     1      28.603   0.212  55.014  1.00  0.00     0.202 C 
HETATM   20  C14 UNL     1      29.214   1.389  54.262  1.00  0.00     0.202 C 
HETATM   21  O1  UNL     1      28.137   1.911  53.472  1.00  0.00    -0.350 OA
ENDBRANCH  14  15
ENDBRANCH  13  14
ENDBRANCH  12  13
ENDBRANCH  11  12
ENDBRANCH   1  10
TORSDOF 5
ENDMDL
MODEL 9
REMARK VINA RESULT:      -6.5      4.579      6.550
REMARK  5 active torsions:
REMARK  status: ('A' for Active; 'I' for Inactive)
REMARK    1  A    between atoms: C3_3  and  C4_4 
REMARK    2  A    between atoms: C4_4  and  C5_5 
REMARK    3  A    between atoms: C5_5  and  N1_6 
REMARK    4  A    between atoms: N1_6  and  C6_7 
REMARK    5  A    between atoms: N2_8  and  C7_9 
ROOT
HETATM    1  C7  UNL     1      26.848   4.786  48.931  1.00  0.00     0.025 A 
HETATM    2  C8  UNL     1      25.610   5.417  48.929  1.00  0.00     0.031 A 
HETATM    3  C9  UNL     1      25.521   6.699  48.443  1.00  0.00     0.046 A 
HETATM    4  C10 UNL     1      26.636   7.360  47.962  1.00  0.00     0.137 A 
HETATM    5  F1  UNL     1      26.518   8.632  47.485  1.00  0.00    -0.204 F 
HETATM    6  C11 UNL     1      27.875   6.713  47.970  1.00  0.00     0.085 A 
HETATM    7  C12 UNL     1      28.989   7.438  47.464  1.00  0.00     0.102 C 
HETATM    8  N3  UNL     1      29.892   8.042  47.035  1.00  0.00    -0.191 NA
HETATM    9  C13 UNL     1      27.986   5.410  48.459  1.00  0.00     0.054 A 
ENDROOT
BRANCH   1  10
HETATM   10  N2  UNL     1      27.085   3.465  49.402  1.00  0.00    -0.372 NA
HETATM   11  C6  UNL     1      26.324   2.895  50.281  1.00  0.00     0.403 C 
BRANCH  11  12
HETATM   12  N1  UNL     1      25.142   3.249  51.031  1.00  0.00    -0.258 NA
BRANCH  12  13
HETATM   13  C5  UNL     1      25.110   2.762  52.226  1.00  0.00     0.097 C 
BRANCH  13  14
HETATM   14  C4  UNL     1      25.169   2.421  53.689  1.00  0.00     0.114 C 
BRANCH  14  15
HETATM   15  C3  UNL     1      26.332   1.567  53.969  1.00  0.00     0.080 C 
HETATM   16  C2  UNL     1      26.337   0.253  54.168  1.00  0.00     0.072 C 
HETATM   17  C1  UNL     1      25.042  -0.452  54.106  1.00  0.00     0.079 C 
HETATM   18  O2  UNL     1      27.514  -0.443  54.427  1.00  0.00    -0.351 OA
HETATM   19  C15 UNL     1      28.644   0.309  54.848  1.00  0.00     0.202 C 
HETATM   20  C14 UNL     1      28.779   1.470  53.869  1.00  0.00     0.202 C 
HETATM   21  O1  UNL     1      27.570   2.223  54.031  1.00  0.00    -0.350 OA
ENDBRANCH  14  15
ENDBRANCH  13  14
ENDBRANCH  12  13
ENDBRANCH  11  12
ENDBRANCH   1  10
TORSDOF 5
ENDMDL
