MODEL 1
REMARK VINA RESULT:      -7.5      0.000      0.000
REMARK  5 active torsions:
REMARK  status: ('A' for Active; 'I' for Inactive)
REMARK    1  A    between atoms: O1_2  and  C2_3 
REMARK    2  A    between atoms: C7_8  and  O2_9 
REMARK    3  A    between atoms: C9_11  and  N1_12 
REMARK    4  A    between atoms: N1_12  and  C10_14 
REMARK    5  A    between atoms: C11_15  and  C12_16 
ROOT
HETATM    1  C2  UNL     1      20.555   0.196  52.030  1.00  0.00     0.103 A 
HETATM    2  C3  UNL     1      20.777   0.835  50.809  1.00  0.00     0.072 A 
HETATM    3  C4  UNL     1      21.970   1.491  50.615  1.00  0.00     0.073 A 
HETATM    4  C5  UNL     1      22.909   1.502  51.620  1.00  0.00     0.023 A 
HETATM    5  C6  UNL     1      22.751   0.894  52.839  1.00  0.00     0.055 A 
HETATM    6  C7  UNL     1      21.540   0.247  52.993  1.00  0.00     0.102 A 
HETATM    7  C9  UNL     1      24.052   2.135  51.425  1.00  0.00     0.077 A 
HETATM    8  C16 UNL     1      24.837   2.931  50.462  1.00  0.00     0.210 A 
HETATM    9  N2  UNL     1      24.145   3.143  49.217  1.00  0.00    -0.277 NA
HETATM   10  C17 UNL     1      23.000   2.768  48.820  1.00  0.00     0.227 A 
HETATM   11  N3  UNL     1      21.931   2.000  49.409  1.00  0.00    -0.242 NA
ENDROOT
BRANCH   7  12
HETATM   12  N1  UNL     1      24.918   2.047  52.577  1.00  0.00    -0.193 N 
HETATM   13  F1  UNL     1      24.555   2.903  53.585  1.00  0.00    -0.094 F 
BRANCH  12  14
HETATM   14  C10 UNL     1      26.043   1.189  52.720  1.00  0.00     0.129 C 
HETATM   15  C11 UNL     1      25.984  -0.130  52.706  1.00  0.00     0.032 C 
BRANCH  15  16
HETATM   16  C12 UNL     1      27.154  -0.988  52.856  1.00  0.00    -0.017 A 
HETATM   17  C13 UNL     1      28.411  -0.933  53.255  1.00  0.00     0.021 A 
HETATM   18 BR1  UNL     1      29.519   0.466  53.937  1.00  0.00    -0.050 Br
HETATM   19  C14 UNL     1      28.619  -2.352  52.974  1.00  0.00     0.021 A 
HETATM   20  C15 UNL     1      27.358  -2.422  52.570  1.00  0.00     0.014 A 
ENDBRANCH  15  16
ENDBRANCH  12  14
ENDBRANCH   7  12
BRANCH   6  21
HETATM   21  O2  UNL     1      21.319  -0.398  54.227  1.00  0.00    -0.353 OA
HETATM   22  C8  UNL     1      21.912  -1.615  54.554  1.00  0.00     0.210 C 
ENDBRANCH   6  21
BRANCH   1  23
HETATM   23  O1  UNL     1      19.394  -0.490  52.328  1.00  0.00    -0.353 OA
HETATM   24  C1  UNL     1      18.106   0.057  52.101  1.00  0.00     0.210 C 
ENDBRANCH   1  23
TORSDOF 5
ENDMDL
MODEL 2
REMARK VINA RESULT:      -7.5      3.365      6.451
REMARK  5 active torsions:
REMARK  status: ('A' for Active; 'I' for Inactive)
REMARK    1  A    between atoms: O1_2  and  C2_3 
REMARK    2  A    between atoms: C7_8  and  O2_9 
REMARK    3  A    between atoms: C9_11  and  N1_12 
REMARK    4  A    between atoms: N1_12  and  C10_14 
REMARK    5  A    between atoms: C11_15  and  C12_16 
ROOT
HETATM    1  C2  UNL     1      26.435   0.267  54.169  1.00  0.00     0.103 A 
HETATM    2  C3  UNL     1      25.251  -0.397  53.843  1.00  0.00     0.072 A 
HETATM    3  C4  UNL     1      24.228   0.322  53.271  1.00  0.00     0.073 A 
HETATM    4  C5  UNL     1      24.393   1.667  53.036  1.00  0.00     0.023 A 
HETATM    5  C6  UNL     1      25.530   2.375  53.332  1.00  0.00     0.055 A 
HETATM    6  C7  UNL     1      26.533   1.616  53.905  1.00  0.00     0.102 A 
HETATM    7  C9  UNL     1      23.406   2.350  52.486  1.00  0.00     0.077 A 
HETATM    8  C16 UNL     1      22.031   2.261  51.954  1.00  0.00     0.210 A 
HETATM    9  N2  UNL     1      21.487   0.930  52.035  1.00  0.00    -0.277 NA
HETATM   10  C17 UNL     1      21.979  -0.152  52.475  1.00  0.00     0.227 A 
HETATM   11  N3  UNL     1      23.244  -0.517  53.065  1.00  0.00    -0.242 NA
ENDROOT
BRANCH   7  12
HETATM   12  N1  UNL     1      23.746   3.741  52.311  1.00  0.00    -0.193 N 
HETATM   13  F1  UNL     1      23.469   4.504  53.416  1.00  0.00    -0.094 F 
BRANCH  12  14
HETATM   14  C10 UNL     1      24.312   4.329  51.145  1.00  0.00     0.129 C 
HETATM   15  C11 UNL     1      24.242   5.613  50.845  1.00  0.00     0.032 C 
BRANCH  15  16
HETATM   16  C12 UNL     1      24.830   6.190  49.643  1.00  0.00    -0.017 A 
HETATM   17  C13 UNL     1      25.867   6.033  48.841  1.00  0.00     0.021 A 
HETATM   18 BR1  UNL     1      27.341   4.819  48.814  1.00  0.00    -0.050 Br
HETATM   19  C14 UNL     1      25.447   7.144  47.990  1.00  0.00     0.021 A 
HETATM   20  C15 UNL     1      24.400   7.314  48.786  1.00  0.00     0.014 A 
ENDBRANCH  15  16
ENDBRANCH  12  14
ENDBRANCH   7  12
BRANCH   6  21
HETATM   21  O2  UNL     1      27.727   2.289  54.233  1.00  0.00    -0.353 OA
HETATM   22  C8  UNL     1      28.694   2.608  53.282  1.00  0.00     0.210 C 
ENDBRANCH   6  21
BRANCH   1  23
HETATM   23  O1  UNL     1      27.522  -0.360  54.747  1.00  0.00    -0.353 OA
HETATM   24  C1  UNL     1      28.565  -0.937  53.979  1.00  0.00     0.210 C 
ENDBRANCH   1  23
TORSDOF 5
ENDMDL
MODEL 3
REMARK VINA RESULT:      -7.4      2.818      5.047
REMARK  5 active torsions:
REMARK  status: ('A' for Active; 'I' for Inactive)
REMARK    1  A    between atoms: O1_2  and  C2_3 
REMARK    2  A    between atoms: C7_8  and  O2_9 
REMARK    3  A    between atoms: C9_11  and  N1_12 
REMARK    4  A    between atoms: N1_12  and  C10_14 
REMARK    5  A    between atoms: C11_15  and  C12_16 
ROOT
HETATM    1  C2  UNL     1      20.801  -0.164  52.705  1.00  0.00     0.103 A 
HETATM    2  C3  UNL     1      21.262  -0.673  53.920  1.00  0.00     0.072 A 
HETATM    3  C4  UNL     1      22.615  -0.668  54.165  1.00  0.00     0.073 A 
HETATM    4  C5  UNL     1      23.475  -0.166  53.217  1.00  0.00     0.023 A 
HETATM    5  C6  UNL     1      23.084   0.347  52.006  1.00  0.00     0.055 A 
HETATM    6  C7  UNL     1      21.718   0.324  51.800  1.00  0.00     0.102 A 
HETATM    7  C9  UNL     1      24.773  -0.165  53.460  1.00  0.00     0.077 A 
HETATM    8  C16 UNL     1      25.812  -0.522  54.447  1.00  0.00     0.210 A 
HETATM    9  N2  UNL     1      25.268  -1.109  55.644  1.00  0.00    -0.277 NA
HETATM   10  C17 UNL     1      24.073  -1.365  55.983  1.00  0.00     0.227 A 
HETATM   11  N3  UNL     1      22.787  -1.191  55.354  1.00  0.00    -0.242 NA
ENDROOT
BRANCH   7  12
HETATM   12  N1  UNL     1      25.526   0.394  52.364  1.00  0.00    -0.193 N 
HETATM   13  F1  UNL     1      26.399  -0.501  51.802  1.00  0.00    -0.094 F 
BRANCH  12  14
HETATM   14  C10 UNL     1      25.425   1.723  51.864  1.00  0.00     0.129 C 
HETATM   15  C11 UNL     1      26.016   2.156  50.766  1.00  0.00     0.032 C 
BRANCH  15  16
HETATM   16  C12 UNL     1      25.896   3.524  50.276  1.00  0.00    -0.017 A 
HETATM   17  C13 UNL     1      25.124   4.587  50.404  1.00  0.00     0.021 A 
HETATM   18 BR1  UNL     1      23.552   4.960  51.424  1.00  0.00    -0.050 Br
HETATM   19  C14 UNL     1      25.938   5.358  49.468  1.00  0.00     0.021 A 
HETATM   20  C15 UNL     1      26.723   4.300  49.329  1.00  0.00     0.014 A 
ENDBRANCH  15  16
ENDBRANCH  12  14
ENDBRANCH   7  12
BRANCH   6  21
HETATM   21  O2  UNL     1      21.254   0.838  50.572  1.00  0.00    -0.353 OA
HETATM   22  C8  UNL     1      22.008   1.714  49.794  1.00  0.00     0.210 C 
ENDBRANCH   6  21
BRANCH   1  23
HETATM   23  O1  UNL     1      19.464  -0.122  52.359  1.00  0.00    -0.353 OA
HETATM   24  C1  UNL     1      18.481  -0.902  53.019  1.00  0.00     0.210 C 
ENDBRANCH   1  23
TORSDOF 5
ENDMDL
MODEL 4
REMARK VINA RESULT:      -7.4      3.681      7.049
REMARK  5 active torsions:
REMARK  status: ('A' for Active; 'I' for Inactive)
REMARK    1  A    between atoms: O1_2  and  C2_3 
REMARK    2  A    between atoms: C7_8  and  O2_9 
REMARK    3  A    between atoms: C9_11  and  N1_12 
REMARK    4  A    between atoms: N1_12  and  C10_14 
REMARK    5  A    between atoms: C11_15  and  C12_16 
ROOT
HETATM    1  C2  UNL     1      27.232   0.420  53.362  1.00  0.00     0.103 A 
HETATM    2  C3  UNL     1      26.591  -0.329  54.350  1.00  0.00     0.072 A 
HETATM    3  C4  UNL     1      25.218  -0.407  54.330  1.00  0.00     0.073 A 
HETATM    4  C5  UNL     1      24.515   0.248  53.346  1.00  0.00     0.023 A 
HETATM    5  C6  UNL     1      25.087   0.997  52.350  1.00  0.00     0.055 A 
HETATM    6  C7  UNL     1      26.466   1.050  52.405  1.00  0.00     0.102 A 
HETATM    7  C9  UNL     1      23.197   0.167  53.335  1.00  0.00     0.077 A 
HETATM    8  C16 UNL     1      22.021  -0.403  54.021  1.00  0.00     0.210 A 
HETATM    9  N2  UNL     1      22.374  -1.198  55.168  1.00  0.00    -0.277 NA
HETATM   10  C17 UNL     1      23.501  -1.483  55.675  1.00  0.00     0.227 A 
HETATM   11  N3  UNL     1      24.866  -1.156  55.346  1.00  0.00    -0.242 NA
ENDROOT
BRANCH   7  12
HETATM   12  N1  UNL     1      22.622   0.910  52.239  1.00  0.00    -0.193 N 
HETATM   13  F1  UNL     1      22.095   0.104  51.263  1.00  0.00    -0.094 F 
BRANCH  12  14
HETATM   14  C10 UNL     1      22.573   2.327  52.118  1.00  0.00     0.129 C 
HETATM   15  C11 UNL     1      22.501   2.977  50.971  1.00  0.00     0.032 C 
BRANCH  15  16
HETATM   16  C12 UNL     1      22.452   4.432  50.875  1.00  0.00    -0.017 A 
HETATM   17  C13 UNL     1      23.017   5.427  50.218  1.00  0.00     0.021 A 
HETATM   18 BR1  UNL     1      24.369   5.521  48.872  1.00  0.00    -0.050 Br
HETATM   19  C14 UNL     1      22.206   6.421  50.919  1.00  0.00     0.021 A 
HETATM   20  C15 UNL     1      21.630   5.431  51.586  1.00  0.00     0.014 A 
ENDBRANCH  15  16
ENDBRANCH  12  14
ENDBRANCH   7  12
BRANCH   6  21
HETATM   21  O2  UNL     1      27.112   1.807  51.407  1.00  0.00    -0.353 OA
HETATM   22  C8  UNL     1      26.485   2.857  50.739  1.00  0.00     0.210 C 
ENDBRANCH   6  21
BRANCH   1  23
HETATM   23  O1  UNL     1      28.605   0.564  53.290  1.00  0.00    -0.353 OA
HETATM   24  C1  UNL     1      29.501  -0.417  53.784  1.00  0.00     0.210 C 
ENDBRANCH   1  23
TORSDOF 5
ENDMDL
MODEL 5
REMARK VINA RESULT:      -7.3      3.380      6.552
REMARK  5 active torsions:
REMARK  status: ('A' for Active; 'I' for Inactive)
REMARK    1  A    between atoms: O1_2  and  C2_3 
REMARK    2  A    between atoms: C7_8  and  O2_9 
REMARK    3  A    between atoms: C9_11  and  N1_12 
REMARK    4  A    between atoms: N1_12  and  C10_14 
REMARK    5  A    between atoms: C11_15  and  C12_16 
ROOT
HETATM    1  C2  UNL     1      27.136  -0.132  53.540  1.00  0.00     0.103 A 
HETATM    2  C3  UNL     1      27.402   0.771  52.510  1.00  0.00     0.072 A 
HETATM    3  C4  UNL     1      26.348   1.432  51.925  1.00  0.00     0.073 A 
HETATM    4  C5  UNL     1      25.067   1.191  52.364  1.00  0.00     0.023 A 
HETATM    5  C6  UNL     1      24.741   0.318  53.371  1.00  0.00     0.055 A 
HETATM    6  C7  UNL     1      25.828  -0.325  53.932  1.00  0.00     0.102 A 
HETATM    7  C9  UNL     1      24.061   1.831  51.796  1.00  0.00     0.077 A 
HETATM    8  C16 UNL     1      23.693   2.816  50.761  1.00  0.00     0.210 A 
HETATM    9  N2  UNL     1      24.833   3.326  50.045  1.00  0.00    -0.277 NA
HETATM   10  C17 UNL     1      26.071   3.075  50.152  1.00  0.00     0.227 A 
HETATM   11  N3  UNL     1      26.854   2.209  51.000  1.00  0.00    -0.242 NA
ENDROOT
BRANCH   7  12
HETATM   12  N1  UNL     1      22.792   1.460  52.377  1.00  0.00    -0.193 N 
HETATM   13  F1  UNL     1      22.817   1.438  53.748  1.00  0.00    -0.094 F 
BRANCH  12  14
HETATM   14  C10 UNL     1      21.603   1.139  51.665  1.00  0.00     0.129 C 
HETATM   15  C11 UNL     1      20.491   0.702  52.226  1.00  0.00     0.032 C 
BRANCH  15  16
HETATM   16  C12 UNL     1      19.284   0.379  51.473  1.00  0.00    -0.017 A 
HETATM   17  C13 UNL     1      18.177  -0.332  51.580  1.00  0.00     0.021 A 
HETATM   18 BR1  UNL     1      17.462  -1.461  52.944  1.00  0.00    -0.050 Br
HETATM   19  C14 UNL     1      17.718   0.084  50.257  1.00  0.00     0.021 A 
HETATM   20  C15 UNL     1      18.825   0.803  50.134  1.00  0.00     0.014 A 
ENDBRANCH  15  16
ENDBRANCH  12  14
ENDBRANCH   7  12
BRANCH   6  21
HETATM   21  O2  UNL     1      25.557  -1.237  54.972  1.00  0.00    -0.353 OA
HETATM   22  C8  UNL     1      24.350  -1.243  55.667  1.00  0.00     0.210 C 
ENDBRANCH   6  21
BRANCH   1  23
HETATM   23  O1  UNL     1      28.119  -0.848  54.195  1.00  0.00    -0.353 OA
HETATM   24  C1  UNL     1      29.487  -0.771  53.832  1.00  0.00     0.210 C 
ENDBRANCH   1  23
TORSDOF 5
ENDMDL
MODEL 6
REMARK VINA RESULT:      -7.1      3.565      6.702
REMARK  5 active torsions:
REMARK  status: ('A' for Active; 'I' for Inactive)
REMARK    1  A    between atoms: O1_2  and  C2_3 
REMARK    2  A    between atoms: C7_8  and  O2_9 
REMARK    3  A    between atoms: C9_11  and  N1_12 
REMARK    4  A    between atoms: N1_12  and  C10_14 
REMARK    5  A    between atoms: C11_15  and  C12_16 
ROOT
HETATM    1  C2  UNL     1      26.821  -0.225  53.810  1.00  0.00     0.103 A 
HETATM    2  C3  UNL     1      25.664  -0.877  54.238  1.00  0.00     0.072 A 
HETATM    3  C4  UNL     1      24.445  -0.305  53.962  1.00  0.00     0.073 A 
HETATM    4  C5  UNL     1      24.394   0.886  53.275  1.00  0.00     0.023 A 
HETATM    5  C6  UNL     1      25.493   1.574  52.828  1.00  0.00     0.055 A 
HETATM    6  C7  UNL     1      26.698   0.966  53.126  1.00  0.00     0.102 A 
HETATM    7  C9  UNL     1      23.218   1.428  53.013  1.00  0.00     0.077 A 
HETATM    8  C16 UNL     1      21.759   1.270  53.169  1.00  0.00     0.210 A 
HETATM    9  N2  UNL     1      21.400   0.070  53.880  1.00  0.00    -0.277 NA
HETATM   10  C17 UNL     1      22.112  -0.851  54.381  1.00  0.00     0.227 A 
HETATM   11  N3  UNL     1      23.531  -1.099  54.462  1.00  0.00    -0.242 NA
ENDROOT
BRANCH   7  12
HETATM   12  N1  UNL     1      23.349   2.670  52.290  1.00  0.00    -0.193 N 
HETATM   13  F1  UNL     1      24.075   3.613  52.971  1.00  0.00    -0.094 F 
BRANCH  12  14
HETATM   14  C10 UNL     1      22.809   2.956  51.004  1.00  0.00     0.129 C 
HETATM   15  C11 UNL     1      23.480   2.853  49.872  1.00  0.00     0.032 C 
BRANCH  15  16
HETATM   16  C12 UNL     1      22.902   3.154  48.567  1.00  0.00    -0.017 A 
HETATM   17  C13 UNL     1      22.649   4.181  47.778  1.00  0.00     0.021 A 
HETATM   18 BR1  UNL     1      22.937   6.063  47.931  1.00  0.00    -0.050 Br
HETATM   19  C14 UNL     1      22.070   3.319  46.751  1.00  0.00     0.021 A 
HETATM   20  C15 UNL     1      22.318   2.277  47.532  1.00  0.00     0.014 A 
ENDBRANCH  15  16
ENDBRANCH  12  14
ENDBRANCH   7  12
BRANCH   6  21
HETATM   21  O2  UNL     1      27.865   1.625  52.693  1.00  0.00    -0.353 OA
HETATM   22  C8  UNL     1      28.583   2.494  53.513  1.00  0.00     0.210 C 
ENDBRANCH   6  21
BRANCH   1  23
HETATM   23  O1  UNL     1      28.094  -0.712  54.036  1.00  0.00    -0.353 OA
HETATM   24  C1  UNL     1      28.724  -1.633  53.161  1.00  0.00     0.210 C 
ENDBRANCH   1  23
TORSDOF 5
ENDMDL
MODEL 7
REMARK VINA RESULT:      -6.9      3.210      5.936
REMARK  5 active torsions:
REMARK  status: ('A' for Active; 'I' for Inactive)
REMARK    1  A    between atoms: O1_2  and  C2_3 
REMARK    2  A    between atoms: C7_8  and  O2_9 
REMARK    3  A    between atoms: C9_11  and  N1_12 
REMARK    4  A    between atoms: N1_12  and  C10_14 
REMARK    5  A    between atoms: C11_15  and  C12_16 
ROOT
HETATM    1  C2  UNL     1      23.196  -0.559  53.355  1.00  0.00     0.103 A 
HETATM    2  C3  UNL     1      24.375  -0.719  54.084  1.00  0.00     0.072 A 
HETATM    3  C4  UNL     1      25.460   0.064  53.764  1.00  0.00     0.073 A 
HETATM    4  C5  UNL     1      25.358   0.978  52.742  1.00  0.00     0.023 A 
HETATM    5  C6  UNL     1      24.229   1.183  51.990  1.00  0.00     0.055 A 
HETATM    6  C7  UNL     1      23.164   0.377  52.344  1.00  0.00     0.102 A 
HETATM    7  C9  UNL     1      26.404   1.726  52.441  1.00  0.00     0.077 A 
HETATM    8  C16 UNL     1      27.808   2.026  52.786  1.00  0.00     0.210 A 
HETATM    9  N2  UNL     1      28.299   1.222  53.875  1.00  0.00    -0.277 NA
HETATM   10  C17 UNL     1      27.740   0.321  54.570  1.00  0.00     0.227 A 
HETATM   11  N3  UNL     1      26.426  -0.274  54.581  1.00  0.00    -0.242 NA
ENDROOT
BRANCH   7  12
HETATM   12  N1  UNL     1      26.125   2.627  51.349  1.00  0.00    -0.193 N 
HETATM   13  F1  UNL     1      26.638   2.195  50.153  1.00  0.00    -0.094 F 
BRANCH  12  14
HETATM   14  C10 UNL     1      25.400   3.850  51.430  1.00  0.00     0.129 C 
HETATM   15  C11 UNL     1      25.148   4.639  50.402  1.00  0.00     0.032 C 
BRANCH  15  16
HETATM   16  C12 UNL     1      24.403   5.888  50.513  1.00  0.00    -0.017 A 
HETATM   17  C13 UNL     1      23.173   6.325  50.705  1.00  0.00     0.021 A 
HETATM   18 BR1  UNL     1      21.493   5.459  50.978  1.00  0.00    -0.050 Br
HETATM   19  C14 UNL     1      23.599   7.721  50.631  1.00  0.00     0.021 A 
HETATM   20  C15 UNL     1      24.840   7.297  50.437  1.00  0.00     0.014 A 
ENDBRANCH  15  16
ENDBRANCH  12  14
ENDBRANCH   7  12
BRANCH   6  21
HETATM   21  O2  UNL     1      21.974   0.541  51.606  1.00  0.00    -0.353 OA
HETATM   22  C8  UNL     1      21.152   1.658  51.746  1.00  0.00     0.210 C 
ENDBRANCH   6  21
BRANCH   1  23
HETATM   23  O1  UNL     1      22.050  -1.293  53.594  1.00  0.00    -0.353 OA
HETATM   24  C1  UNL     1      21.190  -1.028  54.689  1.00  0.00     0.210 C 
ENDBRANCH   1  23
TORSDOF 5
ENDMDL
MODEL 8
REMARK VINA RESULT:      -6.8      3.679      6.691
REMARK  5 active torsions:
REMARK  status: ('A' for Active; 'I' for Inactive)
REMARK    1  A    between atoms: O1_2  and  C2_3 
REMARK    2  A    between atoms: C7_8  and  O2_9 
REMARK    3  A    between atoms: C9_11  and  N1_12 
REMARK    4  A    between atoms: N1_12  and  C10_14 
REMARK    5  A    between atoms: C11_15  and  C12_16 
ROOT
HETATM    1  C2  UNL     1      25.178   3.416  51.064  1.00  0.00     0.103 A 
HETATM    2  C3  UNL     1      26.238   2.543  51.312  1.00  0.00     0.072 A 
HETATM    3  C4  UNL     1      25.992   1.393  52.024  1.00  0.00     0.073 A 
HETATM    4  C5  UNL     1      24.718   1.130  52.470  1.00  0.00     0.023 A 
HETATM    5  C6  UNL     1      23.636   1.946  52.258  1.00  0.00     0.055 A 
HETATM    6  C7  UNL     1      23.926   3.090  51.540  1.00  0.00     0.102 A 
HETATM    7  C9  UNL     1      24.491   0.022  53.152  1.00  0.00     0.077 A 
HETATM    8  C16 UNL     1      25.109  -1.200  53.703  1.00  0.00     0.210 A 
HETATM    9  N2  UNL     1      26.519  -1.286  53.424  1.00  0.00    -0.277 NA
HETATM   10  C17 UNL     1      27.299  -0.506  52.799  1.00  0.00     0.227 A 
HETATM   11  N3  UNL     1      27.133   0.755  52.121  1.00  0.00    -0.242 NA
ENDROOT
BRANCH   7  12
HETATM   12  N1  UNL     1      23.106  -0.094  53.542  1.00  0.00    -0.193 N 
HETATM   13  F1  UNL     1      22.940  -0.238  54.896  1.00  0.00    -0.094 F 
BRANCH  12  14
HETATM   14  C10 UNL     1      21.981  -0.071  52.670  1.00  0.00     0.129 C 
HETATM   15  C11 UNL     1      20.726   0.017  53.071  1.00  0.00     0.032 C 
BRANCH  15  16
HETATM   16  C12 UNL     1      19.591   0.039  52.155  1.00  0.00    -0.017 A 
HETATM   17  C13 UNL     1      18.382  -0.472  52.023  1.00  0.00     0.021 A 
HETATM   18 BR1  UNL     1      17.328  -1.661  53.083  1.00  0.00    -0.050 Br
HETATM   19  C14 UNL     1      18.167   0.225  50.757  1.00  0.00     0.021 A 
HETATM   20  C15 UNL     1      19.380   0.746  50.876  1.00  0.00     0.014 A 
ENDBRANCH  15  16
ENDBRANCH  12  14
ENDBRANCH   7  12
BRANCH   6  21
HETATM   21  O2  UNL     1      22.853   3.970  51.290  1.00  0.00    -0.353 OA
HETATM   22  C8  UNL     1      21.603   3.815  51.885  1.00  0.00     0.210 C 
ENDBRANCH   6  21
BRANCH   1  23
HETATM   23  O1  UNL     1      25.315   4.597  50.360  1.00  0.00    -0.353 OA
HETATM   24  C1  UNL     1      26.264   4.757  49.319  1.00  0.00     0.210 C 
ENDBRANCH   1  23
TORSDOF 5
ENDMDL
MODEL 9
REMARK VINA RESULT:      -6.8      4.244      6.490
REMARK  5 active torsions:
REMARK  status: ('A' for Active; 'I' for Inactive)
REMARK    1  A    between atoms: O1_2  and  C2_3 
REMARK    2  A    between atoms: C7_8  and  O2_9 
REMARK    3  A    between atoms: C9_11  and  N1_12 
REMARK    4  A    between atoms: N1_12  and  C10_14 
REMARK    5  A    between atoms: C11_15  and  C12_16 
ROOT
HETATM    1  C2  UNL     1      25.586   1.454  53.412  1.00  0.00     0.103 A 
HETATM    2  C3  UNL     1      24.294   1.844  53.055  1.00  0.00     0.072 A 
HETATM    3  C4  UNL     1      24.115   2.547  51.888  1.00  0.00     0.073 A 
HETATM    4  C5  UNL     1      25.205   2.848  51.104  1.00  0.00     0.023 A 
HETATM    5  C6  UNL     1      26.497   2.493  51.398  1.00  0.00     0.055 A 
HETATM    6  C7  UNL     1      26.632   1.788  52.579  1.00  0.00     0.102 A 
HETATM    7  C9  UNL     1      25.025   3.524  49.984  1.00  0.00     0.077 A 
HETATM    8  C16 UNL     1      24.020   4.170  49.117  1.00  0.00     0.210 A 
HETATM    9  N2  UNL     1      22.681   4.059  49.636  1.00  0.00    -0.277 NA
HETATM   10  C17 UNL     1      22.232   3.512  50.688  1.00  0.00     0.227 A 
HETATM   11  N3  UNL     1      22.833   2.791  51.783  1.00  0.00    -0.242 NA
ENDROOT
BRANCH   7  12
HETATM   12  N1  UNL     1      26.268   3.752  49.288  1.00  0.00    -0.193 N 
HETATM   13  F1  UNL     1      26.942   2.592  49.002  1.00  0.00    -0.094 F 
BRANCH  12  14
HETATM   14  C10 UNL     1      26.800   5.016  48.907  1.00  0.00     0.129 C 
HETATM   15  C11 UNL     1      28.034   5.209  48.478  1.00  0.00     0.032 C 
BRANCH  15  16
HETATM   16  C12 UNL     1      28.555   6.515  48.094  1.00  0.00    -0.017 A 
HETATM   17  C13 UNL     1      29.660   7.078  47.643  1.00  0.00     0.021 A 
HETATM   18 BR1  UNL     1      31.391   6.408  47.190  1.00  0.00    -0.050 Br
HETATM   19  C14 UNL     1      29.044   8.402  47.624  1.00  0.00     0.021 A 
HETATM   20  C15 UNL     1      27.926   7.852  48.077  1.00  0.00     0.014 A 
ENDBRANCH  15  16
ENDBRANCH  12  14
ENDBRANCH   7  12
BRANCH   6  21
HETATM   21  O2  UNL     1      27.937   1.395  52.936  1.00  0.00    -0.353 OA
HETATM   22  C8  UNL     1      28.797   2.220  53.659  1.00  0.00     0.210 C 
ENDBRANCH   6  21
BRANCH   1  23
HETATM   23  O1  UNL     1      25.875   0.745  54.562  1.00  0.00    -0.353 OA
HETATM   24  C1  UNL     1      25.500  -0.611  54.735  1.00  0.00     0.210 C 
ENDBRANCH   1  23
TORSDOF 5
ENDMDL
