MODEL 1
REMARK VINA RESULT:      -6.9      0.000      0.000
REMARK  9 active torsions:
REMARK  status: ('A' for Active; 'I' for Inactive)
REMARK    1  A    between atoms: C2_2  and  O1_3 
REMARK    2  A    between atoms: O1_3  and  C3_4 
REMARK    3  A    between atoms: C3_4  and  C4_5 
REMARK       I    between atoms: C4_5  and  N1_7 
REMARK    4  A    between atoms: N1_7  and  C5_8 
REMARK    5  A    between atoms: C5_8  and  C6_9 
REMARK    6  A    between atoms: C6_9  and  C7_10 
REMARK    7  A    between atoms: C11_15  and  N3_16 
REMARK    8  A    between atoms: C12_17  and  N4_18 
REMARK    9  A    between atoms: N4_18  and  C13_19 
ROOT
HETATM    1  C7  UNL     1      24.577  -0.360  53.245  1.00  0.00    -0.014 C 
HETATM    2  C8  UNL     1      23.279  -0.482  53.604  1.00  0.00    -0.013 A 
HETATM    3  C9  UNL     1      22.917  -1.218  54.834  1.00  0.00     0.189 A 
HETATM    4  N2  UNL     1      21.504  -1.220  55.014  1.00  0.00    -0.295 NA
HETATM    5  C10 UNL     1      20.719  -0.648  54.195  1.00  0.00     0.142 A 
HETATM    6  C11 UNL     1      21.050   0.079  52.987  1.00  0.00     0.070 A 
HETATM    7  C12 UNL     1      22.322   0.170  52.679  1.00  0.00     0.068 A 
ENDROOT
BRANCH   1   8
HETATM    8  C6  UNL     1      25.961  -0.689  53.604  1.00  0.00     0.047 C 
BRANCH   8   9
HETATM    9  C5  UNL     1      27.011  -0.264  52.602  1.00  0.00     0.126 C 
BRANCH   9  10
HETATM   10  N1  UNL     1      26.456   0.696  51.640  1.00  0.00    -0.359 N 
HETATM   11  C4  UNL     1      26.821   2.048  51.482  1.00  0.00     0.241 C 
HETATM   12  O2  UNL     1      27.739   2.473  52.278  1.00  0.00    -0.271 OA
HETATM   13  H8  UNL     1      25.702   0.464  50.964  1.00  0.00     0.162 HD
BRANCH  11  14
HETATM   14  C3  UNL     1      26.478   3.212  50.659  1.00  0.00     0.270 C 
BRANCH  14  15
HETATM   15  O1  UNL     1      26.996   3.289  49.403  1.00  0.00    -0.382 OA
BRANCH  15  16
HETATM   16  C2  UNL     1      27.315   4.511  48.903  1.00  0.00     0.163 C 
HETATM   17  C1  UNL     1      26.196   5.534  49.135  1.00  0.00     0.033 C 
ENDBRANCH  15  16
ENDBRANCH  14  15
ENDBRANCH  11  14
ENDBRANCH   9  10
ENDBRANCH   8   9
ENDBRANCH   1   8
BRANCH   7  18
HETATM   18  N4  UNL     1      22.738   0.878  51.514  1.00  0.00    -0.354 N 
HETATM   19  H19 UNL     1      22.909   0.377  50.605  1.00  0.00     0.166 HD
BRANCH  18  20
HETATM   20  C13 UNL     1      22.921   2.285  51.599  1.00  0.00     0.033 A 
HETATM   21  C14 UNL     1      23.352   3.051  52.661  1.00  0.00     0.029 A 
HETATM   22  C15 UNL     1      23.490   4.411  52.565  1.00  0.00     0.004 A 
HETATM   23  C16 UNL     1      23.204   5.080  51.397  1.00  0.00     0.019 A 
HETATM   24  C17 UNL     1      22.763   4.366  50.285  1.00  0.00     0.013 A 
HETATM   25 BR1  UNL     1      22.358   5.254  48.649  1.00  0.00    -0.051 Br
HETATM   26  C18 UNL     1      22.644   3.005  50.444  1.00  0.00     0.048 A 
ENDBRANCH  18  20
ENDBRANCH   7  18
BRANCH   6  27
HETATM   27  N3  UNL     1      20.021   0.649  52.198  1.00  0.00    -0.396 N 
HETATM   28  H17 UNL     1      20.034   0.651  51.138  1.00  0.00     0.156 HD
HETATM   29  H18 UNL     1      19.166   1.110  52.609  1.00  0.00     0.156 HD
ENDBRANCH   6  27
TORSDOF 9
ENDMDL
MODEL 2
REMARK VINA RESULT:      -6.8      3.685      6.837
REMARK  9 active torsions:
REMARK  status: ('A' for Active; 'I' for Inactive)
REMARK    1  A    between atoms: C2_2  and  O1_3 
REMARK    2  A    between atoms: O1_3  and  C3_4 
REMARK    3  A    between atoms: C3_4  and  C4_5 
REMARK       I    between atoms: C4_5  and  N1_7 
REMARK    4  A    between atoms: N1_7  and  C5_8 
REMARK    5  A    between atoms: C5_8  and  C6_9 
REMARK    6  A    between atoms: C6_9  and  C7_10 
REMARK    7  A    between atoms: C11_15  and  N3_16 
REMARK    8  A    between atoms: C12_17  and  N4_18 
REMARK    9  A    between atoms: N4_18  and  C13_19 
ROOT
HETATM    1  C7  UNL     1      23.871   0.261  53.421  1.00  0.00    -0.014 C 
HETATM    2  C8  UNL     1      25.214   0.215  53.568  1.00  0.00    -0.013 A 
HETATM    3  C9  UNL     1      25.899  -1.088  53.705  1.00  0.00     0.189 A 
HETATM    4  N2  UNL     1      27.304  -0.898  53.847  1.00  0.00    -0.295 NA
HETATM    5  C10 UNL     1      27.831   0.259  53.846  1.00  0.00     0.142 A 
HETATM    6  C11 UNL     1      27.182   1.546  53.712  1.00  0.00     0.070 A 
HETATM    7  C12 UNL     1      25.878   1.540  53.572  1.00  0.00     0.068 A 
ENDROOT
BRANCH   1   8
HETATM    8  C6  UNL     1      22.642  -0.536  53.326  1.00  0.00     0.047 C 
BRANCH   8   9
HETATM    9  C5  UNL     1      21.601  -0.255  54.385  1.00  0.00     0.126 C 
BRANCH   9  10
HETATM   10  N1  UNL     1      20.434  -1.129  54.215  1.00  0.00    -0.359 N 
HETATM   11  C4  UNL     1      19.278  -0.863  53.452  1.00  0.00     0.241 C 
HETATM   12  O2  UNL     1      19.259   0.274  52.851  1.00  0.00    -0.271 OA
HETATM   13  H8  UNL     1      20.338  -2.059  54.668  1.00  0.00     0.162 HD
BRANCH  11  14
HETATM   14  C3  UNL     1      18.003  -1.493  53.095  1.00  0.00     0.270 C 
BRANCH  14  15
HETATM   15  O1  UNL     1      17.644  -2.634  53.745  1.00  0.00    -0.382 OA
BRANCH  15  16
HETATM   16  C2  UNL     1      16.657  -3.402  53.215  1.00  0.00     0.163 C 
HETATM   17  C1  UNL     1      16.702  -4.840  53.748  1.00  0.00     0.033 C 
ENDBRANCH  15  16
ENDBRANCH  14  15
ENDBRANCH  11  14
ENDBRANCH   9  10
ENDBRANCH   8   9
ENDBRANCH   1   8
BRANCH   7  18
HETATM   18  N4  UNL     1      25.157   2.762  53.422  1.00  0.00    -0.354 N 
HETATM   19  H19 UNL     1      24.944   3.373  54.250  1.00  0.00     0.166 HD
BRANCH  18  20
HETATM   20  C13 UNL     1      24.728   3.145  52.122  1.00  0.00     0.033 A 
HETATM   21  C14 UNL     1      25.325   2.921  50.900  1.00  0.00     0.029 A 
HETATM   22  C15 UNL     1      24.759   3.350  49.727  1.00  0.00     0.004 A 
HETATM   23  C16 UNL     1      23.561   4.027  49.715  1.00  0.00     0.019 A 
HETATM   24  C17 UNL     1      22.904   4.286  50.917  1.00  0.00     0.013 A 
HETATM   25 BR1  UNL     1      21.243   5.220  50.944  1.00  0.00    -0.051 Br
HETATM   26  C18 UNL     1      23.523   3.832  52.058  1.00  0.00     0.048 A 
ENDBRANCH  18  20
ENDBRANCH   7  18
BRANCH   6  27
HETATM   27  N3  UNL     1      27.951   2.735  53.737  1.00  0.00    -0.396 N 
HETATM   28  H17 UNL     1      28.879   2.839  53.233  1.00  0.00     0.156 HD
HETATM   29  H18 UNL     1      27.654   3.604  54.256  1.00  0.00     0.156 HD
ENDBRANCH   6  27
TORSDOF 9
ENDMDL
MODEL 3
REMARK VINA RESULT:      -6.8      2.445      4.214
REMARK  9 active torsions:
REMARK  status: ('A' for Active; 'I' for Inactive)
REMARK    1  A    between atoms: C2_2  and  O1_3 
REMARK    2  A    between atoms: O1_3  and  C3_4 
REMARK    3  A    between atoms: C3_4  and  C4_5 
REMARK       I    between atoms: C4_5  and  N1_7 
REMARK    4  A    between atoms: N1_7  and  C5_8 
REMARK    5  A    between atoms: C5_8  and  C6_9 
REMARK    6  A    between atoms: C6_9  and  C7_10 
REMARK    7  A    between atoms: C11_15  and  N3_16 
REMARK    8  A    between atoms: C12_17  and  N4_18 
REMARK    9  A    between atoms: N4_18  and  C13_19 
ROOT
HETATM    1  C7  UNL     1      21.178  -0.039  53.280  1.00  0.00    -0.014 C 
HETATM    2  C8  UNL     1      20.290   0.172  52.283  1.00  0.00    -0.013 A 
HETATM    3  C9  UNL     1      18.864  -0.166  52.478  1.00  0.00     0.189 A 
HETATM    4  N2  UNL     1      18.116   0.139  51.304  1.00  0.00    -0.295 NA
HETATM    5  C10 UNL     1      18.661   0.633  50.267  1.00  0.00     0.142 A 
HETATM    6  C11 UNL     1      20.051   0.973  50.054  1.00  0.00     0.070 A 
HETATM    7  C12 UNL     1      20.876   0.750  51.050  1.00  0.00     0.068 A 
ENDROOT
BRANCH   1   8
HETATM    8  C6  UNL     1      21.353  -0.523  54.654  1.00  0.00     0.047 C 
BRANCH   8   9
HETATM    9  C5  UNL     1      22.648  -1.253  54.927  1.00  0.00     0.126 C 
BRANCH   9  10
HETATM   10  N1  UNL     1      23.751  -0.666  54.156  1.00  0.00    -0.359 N 
HETATM   11  C4  UNL     1      25.106  -0.590  54.534  1.00  0.00     0.241 C 
HETATM   12  O2  UNL     1      25.391  -1.090  55.685  1.00  0.00    -0.271 OA
HETATM   13  H8  UNL     1      23.630  -0.221  53.224  1.00  0.00     0.162 HD
BRANCH  11  14
HETATM   14  C3  UNL     1      26.386  -0.093  54.019  1.00  0.00     0.270 C 
BRANCH  14  15
HETATM   15  O1  UNL     1      27.532  -0.669  54.476  1.00  0.00    -0.382 OA
BRANCH  15  16
HETATM   16  C2  UNL     1      28.692   0.032  54.390  1.00  0.00     0.163 C 
HETATM   17  C1  UNL     1      29.775  -0.743  53.629  1.00  0.00     0.033 C 
ENDBRANCH  15  16
ENDBRANCH  14  15
ENDBRANCH  11  14
ENDBRANCH   9  10
ENDBRANCH   8   9
ENDBRANCH   1   8
BRANCH   7  18
HETATM   18  N4  UNL     1      22.261   1.066  50.932  1.00  0.00    -0.354 N 
HETATM   19  H19 UNL     1      22.962   0.339  50.641  1.00  0.00     0.166 HD
BRANCH  18  20
HETATM   20  C13 UNL     1      22.685   2.393  51.216  1.00  0.00     0.033 A 
HETATM   21  C14 UNL     1      22.184   3.297  52.128  1.00  0.00     0.029 A 
HETATM   22  C15 UNL     1      22.729   4.544  52.288  1.00  0.00     0.004 A 
HETATM   23  C16 UNL     1      23.809   4.955  51.540  1.00  0.00     0.019 A 
HETATM   24  C17 UNL     1      24.364   4.090  50.598  1.00  0.00     0.013 A 
HETATM   25 BR1  UNL     1      25.859   4.620  49.544  1.00  0.00    -0.051 Br
HETATM   26  C18 UNL     1      23.772   2.854  50.485  1.00  0.00     0.048 A 
ENDBRANCH  18  20
ENDBRANCH   7  18
BRANCH   6  27
HETATM   27  N3  UNL     1      20.467   1.518  48.815  1.00  0.00    -0.396 N 
HETATM   28  H17 UNL     1      20.226   2.503  48.501  1.00  0.00     0.156 HD
HETATM   29  H18 UNL     1      21.050   0.985  48.116  1.00  0.00     0.156 HD
ENDBRANCH   6  27
TORSDOF 9
ENDMDL
MODEL 4
REMARK VINA RESULT:      -6.6      3.362      5.615
REMARK  9 active torsions:
REMARK  status: ('A' for Active; 'I' for Inactive)
REMARK    1  A    between atoms: C2_2  and  O1_3 
REMARK    2  A    between atoms: O1_3  and  C3_4 
REMARK    3  A    between atoms: C3_4  and  C4_5 
REMARK       I    between atoms: C4_5  and  N1_7 
REMARK    4  A    between atoms: N1_7  and  C5_8 
REMARK    5  A    between atoms: C5_8  and  C6_9 
REMARK    6  A    between atoms: C6_9  and  C7_10 
REMARK    7  A    between atoms: C11_15  and  N3_16 
REMARK    8  A    between atoms: C12_17  and  N4_18 
REMARK    9  A    between atoms: N4_18  and  C13_19 
ROOT
HETATM    1  C7  UNL     1      23.667   0.476  53.243  1.00  0.00    -0.014 C 
HETATM    2  C8  UNL     1      24.991   0.354  53.492  1.00  0.00    -0.013 A 
HETATM    3  C9  UNL     1      25.587  -0.985  53.683  1.00  0.00     0.189 A 
HETATM    4  N2  UNL     1      26.986  -0.874  53.931  1.00  0.00    -0.295 NA
HETATM    5  C10 UNL     1      27.577   0.250  53.968  1.00  0.00     0.142 A 
HETATM    6  C11 UNL     1      27.015   1.571  53.782  1.00  0.00     0.070 A 
HETATM    7  C12 UNL     1      25.727   1.640  53.543  1.00  0.00     0.068 A 
ENDROOT
BRANCH   1   8
HETATM    8  C6  UNL     1      22.405  -0.249  53.056  1.00  0.00     0.047 C 
BRANCH   8   9
HETATM    9  C5  UNL     1      21.190   0.383  53.696  1.00  0.00     0.126 C 
BRANCH   9  10
HETATM   10  N1  UNL     1      20.195   0.747  52.680  1.00  0.00    -0.359 N 
HETATM   11  C4  UNL     1      19.766   2.046  52.339  1.00  0.00     0.241 C 
HETATM   12  O2  UNL     1      20.312   3.004  53.001  1.00  0.00    -0.271 OA
HETATM   13  H8  UNL     1      19.682   0.054  52.101  1.00  0.00     0.162 HD
BRANCH  11  14
HETATM   14  C3  UNL     1      18.838   2.713  51.419  1.00  0.00     0.270 C 
BRANCH  14  15
HETATM   15  O1  UNL     1      17.924   3.576  51.940  1.00  0.00    -0.382 OA
BRANCH  15  16
HETATM   16  C2  UNL     1      17.109   4.253  51.090  1.00  0.00     0.163 C 
HETATM   17  C1  UNL     1      17.798   4.552  49.752  1.00  0.00     0.033 C 
ENDBRANCH  15  16
ENDBRANCH  14  15
ENDBRANCH  11  14
ENDBRANCH   9  10
ENDBRANCH   8   9
ENDBRANCH   1   8
BRANCH   7  18
HETATM   18  N4  UNL     1      25.092   2.899  53.336  1.00  0.00    -0.354 N 
HETATM   19  H19 UNL     1      24.914   3.557  54.136  1.00  0.00     0.166 HD
BRANCH  18  20
HETATM   20  C13 UNL     1      24.699   3.256  52.017  1.00  0.00     0.033 A 
HETATM   21  C14 UNL     1      25.270   2.916  50.810  1.00  0.00     0.029 A 
HETATM   22  C15 UNL     1      24.746   3.337  49.615  1.00  0.00     0.004 A 
HETATM   23  C16 UNL     1      23.618   4.124  49.566  1.00  0.00     0.019 A 
HETATM   24  C17 UNL     1      22.990   4.504  50.751  1.00  0.00     0.013 A 
HETATM   25 BR1  UNL     1      21.426   5.592  50.725  1.00  0.00    -0.051 Br
HETATM   26  C18 UNL     1      23.565   4.051  51.915  1.00  0.00     0.048 A 
ENDBRANCH  18  20
ENDBRANCH   7  18
BRANCH   6  27
HETATM   27  N3  UNL     1      27.847   2.714  53.863  1.00  0.00    -0.396 N 
HETATM   28  H17 UNL     1      28.906   2.669  53.805  1.00  0.00     0.156 HD
HETATM   29  H18 UNL     1      27.474   3.693  53.983  1.00  0.00     0.156 HD
ENDBRANCH   6  27
TORSDOF 9
ENDMDL
MODEL 5
REMARK VINA RESULT:      -6.5      2.624      4.555
REMARK  9 active torsions:
REMARK  status: ('A' for Active; 'I' for Inactive)
REMARK    1  A    between atoms: C2_2  and  O1_3 
REMARK    2  A    between atoms: O1_3  and  C3_4 
REMARK    3  A    between atoms: C3_4  and  C4_5 
REMARK       I    between atoms: C4_5  and  N1_7 
REMARK    4  A    between atoms: N1_7  and  C5_8 
REMARK    5  A    between atoms: C5_8  and  C6_9 
REMARK    6  A    between atoms: C6_9  and  C7_10 
REMARK    7  A    between atoms: C11_15  and  N3_16 
REMARK    8  A    between atoms: C12_17  and  N4_18 
REMARK    9  A    between atoms: N4_18  and  C13_19 
ROOT
HETATM    1  C7  UNL     1      23.280  -0.285  53.224  1.00  0.00    -0.014 C 
HETATM    2  C8  UNL     1      24.544  -0.128  53.680  1.00  0.00    -0.013 A 
HETATM    3  C9  UNL     1      24.978  -0.820  54.912  1.00  0.00     0.189 A 
HETATM    4  N2  UNL     1      26.338  -0.511  55.203  1.00  0.00    -0.295 NA
HETATM    5  C10 UNL     1      27.027   0.258  54.463  1.00  0.00     0.142 A 
HETATM    6  C11 UNL     1      26.625   0.944  53.253  1.00  0.00     0.070 A 
HETATM    7  C12 UNL     1      25.390   0.762  52.850  1.00  0.00     0.068 A 
ENDROOT
BRANCH   1   8
HETATM    8  C6  UNL     1      21.987  -0.937  53.462  1.00  0.00     0.047 C 
BRANCH   8   9
HETATM    9  C5  UNL     1      20.770  -0.071  53.230  1.00  0.00     0.126 C 
BRANCH   9  10
HETATM   10  N1  UNL     1      20.922   0.727  52.007  1.00  0.00    -0.359 N 
HETATM   11  C4  UNL     1      20.615   2.092  51.839  1.00  0.00     0.241 C 
HETATM   12  O2  UNL     1      20.147   2.688  52.879  1.00  0.00    -0.271 OA
HETATM   13  H8  UNL     1      21.274   0.342  51.108  1.00  0.00     0.162 HD
BRANCH  11  14
HETATM   14  C3  UNL     1      20.650   3.129  50.803  1.00  0.00     0.270 C 
BRANCH  14  15
HETATM   15  O1  UNL     1      20.416   2.759  49.514  1.00  0.00    -0.382 OA
BRANCH  15  16
HETATM   16  C2  UNL     1      21.320   3.109  48.562  1.00  0.00     0.163 C 
HETATM   17  C1  UNL     1      22.161   1.911  48.103  1.00  0.00     0.033 C 
ENDBRANCH  15  16
ENDBRANCH  14  15
ENDBRANCH  11  14
ENDBRANCH   9  10
ENDBRANCH   8   9
ENDBRANCH   1   8
BRANCH   7  18
HETATM   18  N4  UNL     1      24.913   1.389  51.662  1.00  0.00    -0.354 N 
HETATM   19  H19 UNL     1      24.925   0.886  50.739  1.00  0.00     0.166 HD
BRANCH  18  20
HETATM   20  C13 UNL     1      24.416   2.718  51.745  1.00  0.00     0.033 A 
HETATM   21  C14 UNL     1      23.871   3.385  52.820  1.00  0.00     0.029 A 
HETATM   22  C15 UNL     1      23.453   4.687  52.731  1.00  0.00     0.004 A 
HETATM   23  C16 UNL     1      23.558   5.394  51.555  1.00  0.00     0.019 A 
HETATM   24  C17 UNL     1      24.099   4.779  50.427  1.00  0.00     0.013 A 
HETATM   25 BR1  UNL     1      24.263   5.722  48.780  1.00  0.00    -0.051 Br
HETATM   26  C18 UNL     1      24.499   3.472  50.581  1.00  0.00     0.048 A 
ENDBRANCH  18  20
ENDBRANCH   7  18
BRANCH   6  27
HETATM   27  N3  UNL     1      27.549   1.768  52.564  1.00  0.00    -0.396 N 
HETATM   28  H17 UNL     1      27.646   2.809  52.743  1.00  0.00     0.156 HD
HETATM   29  H18 UNL     1      28.208   1.404  51.825  1.00  0.00     0.156 HD
ENDBRANCH   6  27
TORSDOF 9
ENDMDL
MODEL 6
REMARK VINA RESULT:      -6.5      2.605      5.269
REMARK  9 active torsions:
REMARK  status: ('A' for Active; 'I' for Inactive)
REMARK    1  A    between atoms: C2_2  and  O1_3 
REMARK    2  A    between atoms: O1_3  and  C3_4 
REMARK    3  A    between atoms: C3_4  and  C4_5 
REMARK       I    between atoms: C4_5  and  N1_7 
REMARK    4  A    between atoms: N1_7  and  C5_8 
REMARK    5  A    between atoms: C5_8  and  C6_9 
REMARK    6  A    between atoms: C6_9  and  C7_10 
REMARK    7  A    between atoms: C11_15  and  N3_16 
REMARK    8  A    between atoms: C12_17  and  N4_18 
REMARK    9  A    between atoms: N4_18  and  C13_19 
ROOT
HETATM    1  C7  UNL     1      25.428   2.165  53.105  1.00  0.00    -0.014 C 
HETATM    2  C8  UNL     1      26.639   1.662  53.439  1.00  0.00    -0.013 A 
HETATM    3  C9  UNL     1      27.706   2.563  53.924  1.00  0.00     0.189 A 
HETATM    4  N2  UNL     1      28.887   1.822  54.215  1.00  0.00    -0.295 NA
HETATM    5  C10 UNL     1      28.948   0.562  54.059  1.00  0.00     0.142 A 
HETATM    6  C11 UNL     1      27.918  -0.339  53.588  1.00  0.00     0.070 A 
HETATM    7  C12 UNL     1      26.761   0.194  53.275  1.00  0.00     0.068 A 
ENDROOT
BRANCH   1   8
HETATM    8  C6  UNL     1      24.616   3.383  53.006  1.00  0.00     0.047 C 
BRANCH   8   9
HETATM    9  C5  UNL     1      24.205   3.779  51.607  1.00  0.00     0.126 C 
BRANCH   9  10
HETATM   10  N1  UNL     1      25.266   4.552  50.950  1.00  0.00    -0.359 N 
HETATM   11  C4  UNL     1      26.089   4.132  49.886  1.00  0.00     0.241 C 
HETATM   12  O2  UNL     1      25.876   2.937  49.457  1.00  0.00    -0.271 OA
HETATM   13  H8  UNL     1      25.532   5.518  51.227  1.00  0.00     0.162 HD
BRANCH  11  14
HETATM   14  C3  UNL     1      27.183   4.636  49.050  1.00  0.00     0.270 C 
BRANCH  14  15
HETATM   15  O1  UNL     1      26.953   5.737  48.283  1.00  0.00    -0.382 OA
BRANCH  15  16
HETATM   16  C2  UNL     1      27.692   6.854  48.510  1.00  0.00     0.163 C 
HETATM   17  C1  UNL     1      29.020   6.829  47.744  1.00  0.00     0.033 C 
ENDBRANCH  15  16
ENDBRANCH  14  15
ENDBRANCH  11  14
ENDBRANCH   9  10
ENDBRANCH   8   9
ENDBRANCH   1   8
BRANCH   7  18
HETATM   18  N4  UNL     1      25.685  -0.621  52.814  1.00  0.00    -0.354 N 
HETATM   19  H19 UNL     1      25.729  -1.101  51.880  1.00  0.00     0.166 HD
BRANCH  18  20
HETATM   20  C13 UNL     1      24.542  -0.776  53.645  1.00  0.00     0.033 A 
HETATM   21  C14 UNL     1      24.459  -1.213  54.949  1.00  0.00     0.029 A 
HETATM   22  C15 UNL     1      23.263  -1.287  55.615  1.00  0.00     0.004 A 
HETATM   23  C16 UNL     1      22.082  -0.925  55.008  1.00  0.00     0.019 A 
HETATM   24  C17 UNL     1      22.095  -0.475  53.689  1.00  0.00     0.013 A 
HETATM   25 BR1  UNL     1      20.483   0.037  52.813  1.00  0.00    -0.051 Br
HETATM   26  C18 UNL     1      23.325  -0.424  53.076  1.00  0.00     0.048 A 
ENDBRANCH  18  20
ENDBRANCH   7  18
BRANCH   6  27
HETATM   27  N3  UNL     1      28.183  -1.726  53.481  1.00  0.00    -0.396 N 
HETATM   28  H17 UNL     1      28.733  -2.272  54.206  1.00  0.00     0.156 HD
HETATM   29  H18 UNL     1      27.850  -2.318  52.673  1.00  0.00     0.156 HD
ENDBRANCH   6  27
TORSDOF 9
ENDMDL
MODEL 7
REMARK VINA RESULT:      -6.4      2.885      4.909
REMARK  9 active torsions:
REMARK  status: ('A' for Active; 'I' for Inactive)
REMARK    1  A    between atoms: C2_2  and  O1_3 
REMARK    2  A    between atoms: O1_3  and  C3_4 
REMARK    3  A    between atoms: C3_4  and  C4_5 
REMARK       I    between atoms: C4_5  and  N1_7 
REMARK    4  A    between atoms: N1_7  and  C5_8 
REMARK    5  A    between atoms: C5_8  and  C6_9 
REMARK    6  A    between atoms: C6_9  and  C7_10 
REMARK    7  A    between atoms: C11_15  and  N3_16 
REMARK    8  A    between atoms: C12_17  and  N4_18 
REMARK    9  A    between atoms: N4_18  and  C13_19 
ROOT
HETATM    1  C7  UNL     1      23.697   0.376  53.203  1.00  0.00    -0.014 C 
HETATM    2  C8  UNL     1      25.011   0.284  53.505  1.00  0.00    -0.013 A 
HETATM    3  C9  UNL     1      25.622  -1.040  53.754  1.00  0.00     0.189 A 
HETATM    4  N2  UNL     1      27.008  -0.898  54.053  1.00  0.00    -0.295 NA
HETATM    5  C10 UNL     1      27.579   0.236  54.082  1.00  0.00     0.142 A 
HETATM    6  C11 UNL     1      27.003   1.542  53.840  1.00  0.00     0.070 A 
HETATM    7  C12 UNL     1      25.724   1.582  53.551  1.00  0.00     0.068 A 
ENDROOT
BRANCH   1   8
HETATM    8  C6  UNL     1      22.455  -0.376  52.987  1.00  0.00     0.047 C 
BRANCH   8   9
HETATM    9  C5  UNL     1      21.362   0.369  52.255  1.00  0.00     0.126 C 
BRANCH   9  10
HETATM   10  N1  UNL     1      21.741   0.610  50.857  1.00  0.00    -0.359 N 
HETATM   11  C4  UNL     1      21.032   1.369  49.904  1.00  0.00     0.241 C 
HETATM   12  O2  UNL     1      19.935   1.898  50.319  1.00  0.00    -0.271 OA
HETATM   13  H8  UNL     1      22.595   0.217  50.415  1.00  0.00     0.162 HD
BRANCH  11  14
HETATM   14  C3  UNL     1      21.135   1.782  48.501  1.00  0.00     0.270 C 
BRANCH  14  15
HETATM   15  O1  UNL     1      20.103   2.485  47.959  1.00  0.00    -0.382 OA
BRANCH  15  16
HETATM   16  C2  UNL     1      20.372   3.380  46.972  1.00  0.00     0.163 C 
HETATM   17  C1  UNL     1      21.864   3.409  46.615  1.00  0.00     0.033 C 
ENDBRANCH  15  16
ENDBRANCH  14  15
ENDBRANCH  11  14
ENDBRANCH   9  10
ENDBRANCH   8   9
ENDBRANCH   1   8
BRANCH   7  18
HETATM   18  N4  UNL     1      25.077   2.825  53.286  1.00  0.00    -0.354 N 
HETATM   19  H19 UNL     1      24.768   3.455  54.069  1.00  0.00     0.166 HD
BRANCH  18  20
HETATM   20  C13 UNL     1      24.853   3.203  51.934  1.00  0.00     0.033 A 
HETATM   21  C14 UNL     1      25.642   2.995  50.824  1.00  0.00     0.029 A 
HETATM   22  C15 UNL     1      25.262   3.416  49.575  1.00  0.00     0.004 A 
HETATM   23  C16 UNL     1      24.068   4.069  49.372  1.00  0.00     0.019 A 
HETATM   24  C17 UNL     1      23.223   4.312  50.453  1.00  0.00     0.013 A 
HETATM   25 BR1  UNL     1      21.561   5.212  50.214  1.00  0.00    -0.051 Br
HETATM   26  C18 UNL     1      23.660   3.866  51.678  1.00  0.00     0.048 A 
ENDBRANCH  18  20
ENDBRANCH   7  18
BRANCH   6  27
HETATM   27  N3  UNL     1      27.812   2.702  53.923  1.00  0.00    -0.396 N 
HETATM   28  H17 UNL     1      27.691   3.444  54.670  1.00  0.00     0.156 HD
HETATM   29  H18 UNL     1      28.597   2.908  53.248  1.00  0.00     0.156 HD
ENDBRANCH   6  27
TORSDOF 9
ENDMDL
MODEL 8
REMARK VINA RESULT:      -6.2      3.132      5.299
REMARK  9 active torsions:
REMARK  status: ('A' for Active; 'I' for Inactive)
REMARK    1  A    between atoms: C2_2  and  O1_3 
REMARK    2  A    between atoms: O1_3  and  C3_4 
REMARK    3  A    between atoms: C3_4  and  C4_5 
REMARK       I    between atoms: C4_5  and  N1_7 
REMARK    4  A    between atoms: N1_7  and  C5_8 
REMARK    5  A    between atoms: C5_8  and  C6_9 
REMARK    6  A    between atoms: C6_9  and  C7_10 
REMARK    7  A    between atoms: C11_15  and  N3_16 
REMARK    8  A    between atoms: C12_17  and  N4_18 
REMARK    9  A    between atoms: N4_18  and  C13_19 
ROOT
HETATM    1  C7  UNL     1      26.599   2.325  51.203  1.00  0.00    -0.014 C 
HETATM    2  C8  UNL     1      27.056   1.832  52.376  1.00  0.00    -0.013 A 
HETATM    3  C9  UNL     1      28.205   2.473  53.051  1.00  0.00     0.189 A 
HETATM    4  N2  UNL     1      28.513   1.791  54.263  1.00  0.00    -0.295 NA
HETATM    5  C10 UNL     1      27.852   0.779  54.654  1.00  0.00     0.142 A 
HETATM    6  C11 UNL     1      26.724   0.137  54.013  1.00  0.00     0.070 A 
HETATM    7  C12 UNL     1      26.316   0.650  52.877  1.00  0.00     0.068 A 
ENDROOT
BRANCH   1   8
HETATM    8  C6  UNL     1      26.779   3.362  50.181  1.00  0.00     0.047 C 
BRANCH   8   9
HETATM    9  C5  UNL     1      25.544   4.167  49.846  1.00  0.00     0.126 C 
BRANCH   9  10
HETATM   10  N1  UNL     1      25.640   5.524  50.400  1.00  0.00    -0.359 N 
HETATM   11  C4  UNL     1      26.006   6.698  49.712  1.00  0.00     0.241 C 
HETATM   12  O2  UNL     1      26.287   6.547  48.465  1.00  0.00    -0.271 OA
HETATM   13  H8  UNL     1      25.451   5.755  51.395  1.00  0.00     0.162 HD
BRANCH  11  14
HETATM   14  C3  UNL     1      26.188   8.131  49.962  1.00  0.00     0.270 C 
BRANCH  14  15
HETATM   15  O1  UNL     1      27.008   8.832  49.132  1.00  0.00    -0.382 OA
BRANCH  15  16
HETATM   16  C2  UNL     1      28.184   9.303  49.623  1.00  0.00     0.163 C 
HETATM   17  C1  UNL     1      29.393   8.639  48.951  1.00  0.00     0.033 C 
ENDBRANCH  15  16
ENDBRANCH  14  15
ENDBRANCH  11  14
ENDBRANCH   9  10
ENDBRANCH   8   9
ENDBRANCH   1   8
BRANCH   7  18
HETATM   18  N4  UNL     1      25.204   0.087  52.183  1.00  0.00    -0.354 N 
HETATM   19  H19 UNL     1      25.338  -0.668  51.464  1.00  0.00     0.166 HD
BRANCH  18  20
HETATM   20  C13 UNL     1      23.900   0.568  52.480  1.00  0.00     0.033 A 
HETATM   21  C14 UNL     1      23.351   1.812  52.255  1.00  0.00     0.029 A 
HETATM   22  C15 UNL     1      22.055   2.105  52.592  1.00  0.00     0.004 A 
HETATM   23  C16 UNL     1      21.237   1.165  53.175  1.00  0.00     0.019 A 
HETATM   24  C17 UNL     1      21.729  -0.114  53.431  1.00  0.00     0.013 A 
HETATM   25 BR1  UNL     1      20.628  -1.444  54.236  1.00  0.00    -0.051 Br
HETATM   26  C18 UNL     1      23.036  -0.345  53.071  1.00  0.00     0.048 A 
ENDBRANCH  18  20
ENDBRANCH   7  18
BRANCH   6  27
HETATM   27  N3  UNL     1      26.116  -0.994  54.613  1.00  0.00    -0.396 N 
HETATM   28  H17 UNL     1      26.605  -1.929  54.721  1.00  0.00     0.156 HD
HETATM   29  H18 UNL     1      25.134  -0.985  54.997  1.00  0.00     0.156 HD
ENDBRANCH   6  27
TORSDOF 9
ENDMDL
MODEL 9
REMARK VINA RESULT:      -6.2      3.108      5.022
REMARK  9 active torsions:
REMARK  status: ('A' for Active; 'I' for Inactive)
REMARK    1  A    between atoms: C2_2  and  O1_3 
REMARK    2  A    between atoms: O1_3  and  C3_4 
REMARK    3  A    between atoms: C3_4  and  C4_5 
REMARK       I    between atoms: C4_5  and  N1_7 
REMARK    4  A    between atoms: N1_7  and  C5_8 
REMARK    5  A    between atoms: C5_8  and  C6_9 
REMARK    6  A    between atoms: C6_9  and  C7_10 
REMARK    7  A    between atoms: C11_15  and  N3_16 
REMARK    8  A    between atoms: C12_17  and  N4_18 
REMARK    9  A    between atoms: N4_18  and  C13_19 
ROOT
HETATM    1  C7  UNL     1      24.246   2.681  50.572  1.00  0.00    -0.014 C 
HETATM    2  C8  UNL     1      23.209   1.858  50.850  1.00  0.00    -0.013 A 
HETATM    3  C9  UNL     1      22.203   1.560  49.809  1.00  0.00     0.189 A 
HETATM    4  N2  UNL     1      21.208   0.677  50.319  1.00  0.00    -0.295 NA
HETATM    5  C10 UNL     1      21.241   0.241  51.512  1.00  0.00     0.142 A 
HETATM    6  C11 UNL     1      22.216   0.517  52.546  1.00  0.00     0.070 A 
HETATM    7  C12 UNL     1      23.203   1.322  52.231  1.00  0.00     0.068 A 
ENDROOT
BRANCH   1   8
HETATM    8  C6  UNL     1      24.882   3.512  49.543  1.00  0.00     0.047 C 
BRANCH   8   9
HETATM    9  C5  UNL     1      26.330   3.865  49.795  1.00  0.00     0.126 C 
BRANCH   9  10
HETATM   10  N1  UNL     1      26.636   5.208  49.286  1.00  0.00    -0.359 N 
HETATM   11  C4  UNL     1      27.777   5.599  48.557  1.00  0.00     0.241 C 
HETATM   12  O2  UNL     1      28.635   4.669  48.324  1.00  0.00    -0.271 OA
HETATM   13  H8  UNL     1      26.023   6.034  49.431  1.00  0.00     0.162 HD
BRANCH  11  14
HETATM   14  C3  UNL     1      28.352   6.797  47.936  1.00  0.00     0.270 C 
BRANCH  14  15
HETATM   15  O1  UNL     1      29.419   7.387  48.540  1.00  0.00    -0.382 OA
BRANCH  15  16
HETATM   16  C2  UNL     1      30.570   7.534  47.832  1.00  0.00     0.163 C 
HETATM   17  C1  UNL     1      30.298   7.860  46.358  1.00  0.00     0.033 C 
ENDBRANCH  15  16
ENDBRANCH  14  15
ENDBRANCH  11  14
ENDBRANCH   9  10
ENDBRANCH   8   9
ENDBRANCH   1   8
BRANCH   7  18
HETATM   18  N4  UNL     1      24.215   1.639  53.184  1.00  0.00    -0.354 N 
HETATM   19  H19 UNL     1      24.079   2.412  53.884  1.00  0.00     0.166 HD
BRANCH  18  20
HETATM   20  C13 UNL     1      25.422   0.888  53.174  1.00  0.00     0.033 A 
HETATM   21  C14 UNL     1      25.635  -0.423  52.807  1.00  0.00     0.029 A 
HETATM   22  C15 UNL     1      26.882  -0.992  52.841  1.00  0.00     0.004 A 
HETATM   23  C16 UNL     1      27.985  -0.276  53.247  1.00  0.00     0.019 A 
HETATM   24  C17 UNL     1      27.839   1.055  53.633  1.00  0.00     0.013 A 
HETATM   25 BR1  UNL     1      29.341   2.080  54.201  1.00  0.00    -0.051 Br
HETATM   26  C18 UNL     1      26.564   1.567  53.577  1.00  0.00     0.048 A 
ENDBRANCH  18  20
ENDBRANCH   7  18
BRANCH   6  27
HETATM   27  N3  UNL     1      22.077  -0.069  53.827  1.00  0.00    -0.396 N 
HETATM   28  H17 UNL     1      22.059   0.493  54.726  1.00  0.00     0.156 HD
HETATM   29  H18 UNL     1      21.978  -1.109  53.979  1.00  0.00     0.156 HD
ENDBRANCH   6  27
TORSDOF 9
ENDMDL
