MODEL 1
REMARK VINA RESULT:      -9.9      0.000      0.000
REMARK  5 active torsions:
REMARK  status: ('A' for Active; 'I' for Inactive)
REMARK    1  A    between atoms: N1_1  and  C1_2 
REMARK    2  A    between atoms: C2_4  and  N3_5 
REMARK    3  A    between atoms: C3_6  and  C4_7 
REMARK    4  A    between atoms: C12_16  and  C13_17 
REMARK    5  A    between atoms: C13_17  and  C14_18 
ROOT
HETATM    1  C1  UNL     1      23.131   5.160  50.984  1.00  0.00     0.127 C 
HETATM    2  N2  UNL     1      22.411   4.544  50.108  1.00  0.00    -0.213 NA
HETATM    3  C2  UNL     1      22.793   3.176  50.041  1.00  0.00     0.159 C 
HETATM    4  C10 UNL     1      23.764   2.937  50.891  1.00  0.00     0.022 C 
HETATM    5  C11 UNL     1      24.770   2.155  51.608  1.00  0.00     0.038 C 
HETATM    6  C12 UNL     1      24.979   2.723  52.829  1.00  0.00     0.011 C 
HETATM    7  N4  UNL     1      24.098   3.891  52.893  1.00  0.00    -0.377 N 
HETATM    8  C24 UNL     1      24.130   4.265  51.508  1.00  0.00     0.188 C 
HETATM    9  H18 UNL     1      23.704   4.140  53.825  1.00  0.00     0.160 HD
ENDROOT
BRANCH   6  10
HETATM   10  C13 UNL     1      25.954   2.188  53.860  1.00  0.00     0.096 C 
BRANCH  10  11
HETATM   11  C14 UNL     1      26.385   0.802  53.546  1.00  0.00    -0.042 A 
HETATM   12  C15 UNL     1      25.373  -0.115  53.230  1.00  0.00     0.008 A 
HETATM   13  C16 UNL     1      25.566  -1.441  52.904  1.00  0.00     0.001 A 
HETATM   14  C17 UNL     1      26.860  -1.903  52.888  1.00  0.00     0.012 A 
HETATM   15  C18 UNL     1      27.889  -1.033  53.194  1.00  0.00    -0.025 A 
HETATM   16  C19 UNL     1      29.196  -1.506  53.178  1.00  0.00     0.012 A 
HETATM   17  C23 UNL     1      27.661   0.289  53.516  1.00  0.00    -0.019 A 
HETATM   18  C20 UNL     1      30.214  -0.617  53.492  1.00  0.00     0.001 A 
HETATM   19  C21 UNL     1      29.960   0.708  53.813  1.00  0.00     0.001 A 
HETATM   20  C22 UNL     1      28.664   1.179  53.828  1.00  0.00     0.013 A 
ENDBRANCH  10  11
ENDBRANCH   6  10
BRANCH   3  21
HETATM   21  N3  UNL     1      22.362   2.061  49.283  1.00  0.00    -0.240 NA
HETATM   22  C3  UNL     1      21.598   1.135  49.731  1.00  0.00     0.130 C 
BRANCH  22  23
HETATM   23  C4  UNL     1      20.841   0.616  50.853  1.00  0.00    -0.017 A 
HETATM   24  C5  UNL     1      19.475   0.583  50.797  1.00  0.00     0.013 A 
HETATM   25  C6  UNL     1      18.773   0.085  51.874  1.00  0.00     0.002 A 
HETATM   26  C7  UNL     1      19.508  -0.354  52.955  1.00  0.00     0.019 A 
HETATM   27  C8  UNL     1      20.888  -0.309  52.983  1.00  0.00     0.011 A 
HETATM   28 BR1  UNL     1      21.836  -0.942  54.532  1.00  0.00    -0.051 Br
HETATM   29  C9  UNL     1      21.621   0.191  51.904  1.00  0.00     0.032 A 
ENDBRANCH  22  23
ENDBRANCH   3  21
BRANCH   1  30
HETATM   30  N1  UNL     1      23.306   6.441  51.561  1.00  0.00    -0.385 N 
HETATM   31  H1  UNL     1      24.130   6.871  52.068  1.00  0.00     0.157 HD
HETATM   32  H2  UNL     1      22.590   7.193  51.565  1.00  0.00     0.157 HD
ENDBRANCH   1  30
TORSDOF 5
ENDMDL
MODEL 2
REMARK VINA RESULT:      -9.6      0.836      1.843
REMARK  5 active torsions:
REMARK  status: ('A' for Active; 'I' for Inactive)
REMARK    1  A    between atoms: N1_1  and  C1_2 
REMARK    2  A    between atoms: C2_4  and  N3_5 
REMARK    3  A    between atoms: C3_6  and  C4_7 
REMARK    4  A    between atoms: C12_16  and  C13_17 
REMARK    5  A    between atoms: C13_17  and  C14_18 
ROOT
HETATM    1  C1  UNL     1      23.494   4.798  51.284  1.00  0.00     0.127 C 
HETATM    2  N2  UNL     1      22.740   4.535  50.270  1.00  0.00    -0.213 NA
HETATM    3  C2  UNL     1      22.768   3.141  49.994  1.00  0.00     0.159 C 
HETATM    4  C10 UNL     1      23.550   2.527  50.851  1.00  0.00     0.022 C 
HETATM    5  C11 UNL     1      24.242   1.406  51.485  1.00  0.00     0.038 C 
HETATM    6  C12 UNL     1      24.456   1.708  52.797  1.00  0.00     0.011 C 
HETATM    7  N4  UNL     1      23.897   3.047  53.004  1.00  0.00    -0.377 N 
HETATM    8  C24 UNL     1      24.172   3.601  51.710  1.00  0.00     0.188 C 
HETATM    9  H18 UNL     1      23.481   3.249  53.938  1.00  0.00     0.160 HD
ENDROOT
BRANCH   6  10
HETATM   10  C13 UNL     1      25.147   0.785  53.781  1.00  0.00     0.096 C 
BRANCH  10  11
HETATM   11  C14 UNL     1      26.626   0.894  53.698  1.00  0.00    -0.042 A 
HETATM   12  C15 UNL     1      27.172   2.174  53.867  1.00  0.00     0.008 A 
HETATM   13  C16 UNL     1      28.516   2.484  53.832  1.00  0.00     0.001 A 
HETATM   14  C17 UNL     1      29.394   1.449  53.613  1.00  0.00     0.012 A 
HETATM   15  C18 UNL     1      28.898   0.171  53.441  1.00  0.00    -0.025 A 
HETATM   16  C19 UNL     1      29.790  -0.871  53.217  1.00  0.00     0.012 A 
HETATM   17  C23 UNL     1      27.546  -0.104  53.482  1.00  0.00    -0.019 A 
HETATM   18  C20 UNL     1      29.273  -2.147  53.043  1.00  0.00     0.001 A 
HETATM   19  C21 UNL     1      27.909  -2.398  53.088  1.00  0.00     0.001 A 
HETATM   20  C22 UNL     1      27.022  -1.366  53.310  1.00  0.00     0.013 A 
ENDBRANCH  10  11
ENDBRANCH   6  10
BRANCH   3  21
HETATM   21  N3  UNL     1      22.154   2.307  49.028  1.00  0.00    -0.240 NA
HETATM   22  C3  UNL     1      21.202   1.487  49.283  1.00  0.00     0.130 C 
BRANCH  22  23
HETATM   23  C4  UNL     1      20.313   0.925  50.279  1.00  0.00    -0.017 A 
HETATM   24  C5  UNL     1      18.960   0.948  50.076  1.00  0.00     0.013 A 
HETATM   25  C6  UNL     1      18.131   0.407  51.035  1.00  0.00     0.002 A 
HETATM   26  C7  UNL     1      18.730  -0.131  52.154  1.00  0.00     0.019 A 
HETATM   27  C8  UNL     1      20.100  -0.141  52.332  1.00  0.00     0.011 A 
HETATM   28 BR1  UNL     1      20.854  -0.913  53.924  1.00  0.00    -0.051 Br
HETATM   29  C9  UNL     1      20.961   0.400  51.374  1.00  0.00     0.032 A 
ENDBRANCH  22  23
ENDBRANCH   3  21
BRANCH   1  30
HETATM   30  N1  UNL     1      23.924   5.884  52.084  1.00  0.00    -0.385 N 
HETATM   31  H1  UNL     1      23.484   6.828  52.275  1.00  0.00     0.157 HD
HETATM   32  H2  UNL     1      24.805   5.902  52.634  1.00  0.00     0.157 HD
ENDBRANCH   1  30
TORSDOF 5
ENDMDL
MODEL 3
REMARK VINA RESULT:      -9.5      3.345      5.745
REMARK  5 active torsions:
REMARK  status: ('A' for Active; 'I' for Inactive)
REMARK    1  A    between atoms: N1_1  and  C1_2 
REMARK    2  A    between atoms: C2_4  and  N3_5 
REMARK    3  A    between atoms: C3_6  and  C4_7 
REMARK    4  A    between atoms: C12_16  and  C13_17 
REMARK    5  A    between atoms: C13_17  and  C14_18 
ROOT
HETATM    1  C1  UNL     1      22.253   2.668  49.610  1.00  0.00     0.127 C 
HETATM    2  N2  UNL     1      22.415   3.933  49.419  1.00  0.00    -0.213 NA
HETATM    3  C2  UNL     1      23.123   4.502  50.513  1.00  0.00     0.159 C 
HETATM    4  C10 UNL     1      23.408   3.574  51.397  1.00  0.00     0.022 C 
HETATM    5  C11 UNL     1      23.956   3.001  52.626  1.00  0.00     0.038 C 
HETATM    6  C12 UNL     1      24.252   1.689  52.404  1.00  0.00     0.011 C 
HETATM    7  N4  UNL     1      23.882   1.416  51.013  1.00  0.00    -0.377 N 
HETATM    8  C24 UNL     1      22.758   2.302  50.908  1.00  0.00     0.188 C 
HETATM    9  H18 UNL     1      24.461   0.722  50.495  1.00  0.00     0.160 HD
ENDROOT
BRANCH   6  10
HETATM   10  C13 UNL     1      24.844   0.763  53.448  1.00  0.00     0.096 C 
BRANCH  10  11
HETATM   11  C14 UNL     1      26.328   0.831  53.469  1.00  0.00    -0.042 A 
HETATM   12  C15 UNL     1      26.896   2.091  53.698  1.00  0.00     0.008 A 
HETATM   13  C16 UNL     1      28.247   2.362  53.762  1.00  0.00     0.001 A 
HETATM   14  C17 UNL     1      29.109   1.306  53.586  1.00  0.00     0.012 A 
HETATM   15  C18 UNL     1      28.591   0.046  53.358  1.00  0.00    -0.025 A 
HETATM   16  C19 UNL     1      29.467  -1.018  53.178  1.00  0.00     0.012 A 
HETATM   17  C23 UNL     1      27.233  -0.190  53.300  1.00  0.00    -0.019 A 
HETATM   18  C20 UNL     1      28.928  -2.275  52.946  1.00  0.00     0.001 A 
HETATM   19  C21 UNL     1      27.558  -2.488  52.892  1.00  0.00     0.001 A 
HETATM   20  C22 UNL     1      26.687  -1.434  53.071  1.00  0.00     0.013 A 
ENDBRANCH  10  11
ENDBRANCH   6  10
BRANCH   3  21
HETATM   21  N3  UNL     1      23.570   5.806  50.837  1.00  0.00    -0.240 NA
HETATM   22  C3  UNL     1      24.679   6.308  50.439  1.00  0.00     0.130 C 
BRANCH  22  23
HETATM   23  C4  UNL     1      25.898   6.120  49.678  1.00  0.00    -0.017 A 
HETATM   24  C5  UNL     1      26.376   4.858  49.458  1.00  0.00     0.013 A 
HETATM   25  C6  UNL     1      27.537   4.700  48.730  1.00  0.00     0.002 A 
HETATM   26  C7  UNL     1      28.148   5.844  48.265  1.00  0.00     0.019 A 
HETATM   27  C8  UNL     1      27.642   7.107  48.503  1.00  0.00     0.011 A 
HETATM   28 BR1  UNL     1      28.559   8.652  47.816  1.00  0.00    -0.051 Br
HETATM   29  C9  UNL     1      26.468   7.293  49.236  1.00  0.00     0.032 A 
ENDBRANCH  22  23
ENDBRANCH   3  21
BRANCH   1  30
HETATM   30  N1  UNL     1      21.689   1.524  48.993  1.00  0.00    -0.385 N 
HETATM   31  H1  UNL     1      21.845   0.491  49.163  1.00  0.00     0.157 HD
HETATM   32  H2  UNL     1      20.989   1.549  48.226  1.00  0.00     0.157 HD
ENDBRANCH   1  30
TORSDOF 5
ENDMDL
MODEL 4
REMARK VINA RESULT:      -9.5      4.057      5.801
REMARK  5 active torsions:
REMARK  status: ('A' for Active; 'I' for Inactive)
REMARK    1  A    between atoms: N1_1  and  C1_2 
REMARK    2  A    between atoms: C2_4  and  N3_5 
REMARK    3  A    between atoms: C3_6  and  C4_7 
REMARK    4  A    between atoms: C12_16  and  C13_17 
REMARK    5  A    between atoms: C13_17  and  C14_18 
ROOT
HETATM    1  C1  UNL     1      23.384   4.667  52.260  1.00  0.00     0.127 C 
HETATM    2  N2  UNL     1      22.479   3.748  52.245  1.00  0.00    -0.213 NA
HETATM    3  C2  UNL     1      22.661   2.906  51.114  1.00  0.00     0.159 C 
HETATM    4  C10 UNL     1      23.698   3.308  50.415  1.00  0.00     0.022 C 
HETATM    5  C11 UNL     1      24.681   3.304  49.333  1.00  0.00     0.038 C 
HETATM    6  C12 UNL     1      25.835   3.868  49.788  1.00  0.00     0.011 C 
HETATM    7  N4  UNL     1      25.585   4.244  51.182  1.00  0.00    -0.377 N 
HETATM    8  C24 UNL     1      24.194   4.573  51.073  1.00  0.00     0.188 C 
HETATM    9  H18 UNL     1      26.391   4.188  51.841  1.00  0.00     0.160 HD
ENDROOT
BRANCH   6  10
HETATM   10  C13 UNL     1      27.087   4.037  48.949  1.00  0.00     0.096 C 
BRANCH  10  11
HETATM   11  C14 UNL     1      27.269   5.442  48.504  1.00  0.00    -0.042 A 
HETATM   12  C15 UNL     1      26.121   6.245  48.472  1.00  0.00     0.008 A 
HETATM   13  C16 UNL     1      26.080   7.572  48.097  1.00  0.00     0.001 A 
HETATM   14  C17 UNL     1      27.267   8.156  47.722  1.00  0.00     0.012 A 
HETATM   15  C18 UNL     1      28.423   7.400  47.739  1.00  0.00    -0.025 A 
HETATM   16  C19 UNL     1      29.619   7.996  47.357  1.00  0.00     0.012 A 
HETATM   17  C23 UNL     1      28.428   6.074  48.120  1.00  0.00    -0.019 A 
HETATM   18  C20 UNL     1      30.769   7.220  47.376  1.00  0.00     0.001 A 
HETATM   19  C21 UNL     1      30.749   5.888  47.763  1.00  0.00     0.001 A 
HETATM   20  C22 UNL     1      29.564   5.295  48.143  1.00  0.00     0.013 A 
ENDBRANCH  10  11
ENDBRANCH   6  10
BRANCH   3  21
HETATM   21  N3  UNL     1      21.988   1.770  50.603  1.00  0.00    -0.240 NA
HETATM   22  C3  UNL     1      21.782   0.694  51.267  1.00  0.00     0.130 C 
BRANCH  22  23
HETATM   23  C4  UNL     1      21.951  -0.016  52.518  1.00  0.00    -0.017 A 
HETATM   24  C5  UNL     1      20.869  -0.587  53.130  1.00  0.00     0.013 A 
HETATM   25  C6  UNL     1      21.051  -1.260  54.320  1.00  0.00     0.002 A 
HETATM   26  C7  UNL     1      22.333  -1.313  54.823  1.00  0.00     0.019 A 
HETATM   27  C8  UNL     1      23.408  -0.727  54.182  1.00  0.00     0.011 A 
HETATM   28 BR1  UNL     1      25.166  -0.849  54.954  1.00  0.00    -0.051 Br
HETATM   29  C9  UNL     1      23.249  -0.041  52.976  1.00  0.00     0.032 A 
ENDBRANCH  22  23
ENDBRANCH   3  21
BRANCH   1  30
HETATM   30  N1  UNL     1      23.813   5.778  53.027  1.00  0.00    -0.385 N 
HETATM   31  H1  UNL     1      23.279   6.437  53.660  1.00  0.00     0.157 HD
HETATM   32  H2  UNL     1      24.791   6.125  53.073  1.00  0.00     0.157 HD
ENDBRANCH   1  30
TORSDOF 5
ENDMDL
MODEL 5
REMARK VINA RESULT:      -9.5      3.600      7.510
REMARK  5 active torsions:
REMARK  status: ('A' for Active; 'I' for Inactive)
REMARK    1  A    between atoms: N1_1  and  C1_2 
REMARK    2  A    between atoms: C2_4  and  N3_5 
REMARK    3  A    between atoms: C3_6  and  C4_7 
REMARK    4  A    between atoms: C12_16  and  C13_17 
REMARK    5  A    between atoms: C13_17  and  C14_18 
ROOT
HETATM    1  C1  UNL     1      26.727   2.089  53.016  1.00  0.00     0.127 C 
HETATM    2  N2  UNL     1      27.421   2.451  51.991  1.00  0.00    -0.213 NA
HETATM    3  C2  UNL     1      26.575   2.591  50.857  1.00  0.00     0.159 C 
HETATM    4  C10 UNL     1      25.334   2.313  51.183  1.00  0.00     0.022 C 
HETATM    5  C11 UNL     1      23.896   2.132  50.994  1.00  0.00     0.038 C 
HETATM    6  C12 UNL     1      23.264   2.362  52.179  1.00  0.00     0.011 C 
HETATM    7  N4  UNL     1      24.316   2.691  53.145  1.00  0.00    -0.377 N 
HETATM    8  C24 UNL     1      25.360   1.858  52.622  1.00  0.00     0.188 C 
HETATM    9  H18 UNL     1      24.077   3.375  53.894  1.00  0.00     0.160 HD
ENDROOT
BRANCH   6  10
HETATM   10  C13 UNL     1      21.764   2.274  52.376  1.00  0.00     0.096 C 
BRANCH  10  11
HETATM   11  C14 UNL     1      21.361   0.980  52.985  1.00  0.00    -0.042 A 
HETATM   12  C15 UNL     1      22.303   0.357  53.815  1.00  0.00     0.008 A 
HETATM   13  C16 UNL     1      22.121  -0.840  54.477  1.00  0.00     0.001 A 
HETATM   14  C17 UNL     1      20.913  -1.474  54.308  1.00  0.00     0.012 A 
HETATM   15  C18 UNL     1      19.956  -0.894  53.498  1.00  0.00    -0.025 A 
HETATM   16  C19 UNL     1      18.738  -1.541  53.329  1.00  0.00     0.012 A 
HETATM   17  C23 UNL     1      20.171   0.305  52.850  1.00  0.00    -0.019 A 
HETATM   18  C20 UNL     1      17.791  -0.945  52.509  1.00  0.00     0.001 A 
HETATM   19  C21 UNL     1      18.031   0.261  51.867  1.00  0.00     0.001 A 
HETATM   20  C22 UNL     1      19.238   0.905  52.034  1.00  0.00     0.013 A 
ENDBRANCH  10  11
ENDBRANCH   6  10
BRANCH   3  21
HETATM   21  N3  UNL     1      26.780   2.954  49.504  1.00  0.00    -0.240 NA
HETATM   22  C3  UNL     1      26.674   4.149  49.053  1.00  0.00     0.130 C 
BRANCH  22  23
HETATM   23  C4  UNL     1      26.393   5.540  49.344  1.00  0.00    -0.017 A 
HETATM   24  C5  UNL     1      25.354   5.866  50.173  1.00  0.00     0.013 A 
HETATM   25  C6  UNL     1      25.103   7.196  50.439  1.00  0.00     0.002 A 
HETATM   26  C7  UNL     1      25.928   8.123  49.841  1.00  0.00     0.019 A 
HETATM   27  C8  UNL     1      26.970   7.765  49.009  1.00  0.00     0.011 A 
HETATM   28 BR1  UNL     1      28.075   9.125  48.216  1.00  0.00    -0.051 Br
HETATM   29  C9  UNL     1      27.245   6.425  48.725  1.00  0.00     0.032 A 
ENDBRANCH  22  23
ENDBRANCH   3  21
BRANCH   1  30
HETATM   30  N1  UNL     1      26.870   1.784  54.392  1.00  0.00    -0.385 N 
HETATM   31  H1  UNL     1      27.295   2.336  55.189  1.00  0.00     0.157 HD
HETATM   32  H2  UNL     1      26.552   0.902  54.839  1.00  0.00     0.157 HD
ENDBRANCH   1  30
TORSDOF 5
ENDMDL
MODEL 6
REMARK VINA RESULT:      -9.3      4.044      7.251
REMARK  5 active torsions:
REMARK  status: ('A' for Active; 'I' for Inactive)
REMARK    1  A    between atoms: N1_1  and  C1_2 
REMARK    2  A    between atoms: C2_4  and  N3_5 
REMARK    3  A    between atoms: C3_6  and  C4_7 
REMARK    4  A    between atoms: C12_16  and  C13_17 
REMARK    5  A    between atoms: C13_17  and  C14_18 
ROOT
HETATM    1  C1  UNL     1      23.789   5.422  52.273  1.00  0.00     0.127 C 
HETATM    2  N2  UNL     1      23.953   6.424  51.477  1.00  0.00    -0.213 NA
HETATM    3  C2  UNL     1      23.852   5.991  50.126  1.00  0.00     0.159 C 
HETATM    4  C10 UNL     1      23.621   4.700  50.083  1.00  0.00     0.022 C 
HETATM    5  C11 UNL     1      23.373   3.392  49.479  1.00  0.00     0.038 C 
HETATM    6  C12 UNL     1      22.648   2.636  50.351  1.00  0.00     0.011 C 
HETATM    7  N4  UNL     1      22.433   3.472  51.535  1.00  0.00    -0.377 N 
HETATM    8  C24 UNL     1      23.664   4.208  51.509  1.00  0.00     0.188 C 
HETATM    9  H18 UNL     1      21.537   3.343  52.051  1.00  0.00     0.160 HD
ENDROOT
BRANCH   6  10
HETATM   10  C13 UNL     1      22.194   1.216  50.074  1.00  0.00     0.096 C 
BRANCH  10  11
HETATM   11  C14 UNL     1      21.353   0.679  51.174  1.00  0.00    -0.042 A 
HETATM   12  C15 UNL     1      19.965   0.746  50.993  1.00  0.00     0.008 A 
HETATM   13  C16 UNL     1      19.017   0.297  51.889  1.00  0.00     0.001 A 
HETATM   14  C17 UNL     1      19.473  -0.263  53.059  1.00  0.00     0.012 A 
HETATM   15  C18 UNL     1      20.834  -0.349  53.277  1.00  0.00    -0.025 A 
HETATM   16  C19 UNL     1      21.290  -0.914  54.463  1.00  0.00     0.012 A 
HETATM   17  C23 UNL     1      21.756   0.111  52.359  1.00  0.00    -0.019 A 
HETATM   18  C20 UNL     1      22.660  -0.988  54.666  1.00  0.00     0.001 A 
HETATM   19  C21 UNL     1      23.568  -0.518  53.727  1.00  0.00     0.001 A 
HETATM   20  C22 UNL     1      23.118   0.042  52.550  1.00  0.00     0.013 A 
ENDBRANCH  10  11
ENDBRANCH   6  10
BRANCH   3  21
HETATM   21  N3  UNL     1      23.945   6.634  48.868  1.00  0.00    -0.240 NA
HETATM   22  C3  UNL     1      25.038   6.799  48.221  1.00  0.00     0.130 C 
BRANCH  22  23
HETATM   23  C4  UNL     1      26.472   6.594  48.178  1.00  0.00    -0.017 A 
HETATM   24  C5  UNL     1      27.001   5.399  48.583  1.00  0.00     0.013 A 
HETATM   25  C6  UNL     1      28.368   5.222  48.534  1.00  0.00     0.002 A 
HETATM   26  C7  UNL     1      29.123   6.280  48.074  1.00  0.00     0.019 A 
HETATM   27  C8  UNL     1      28.560   7.475  47.672  1.00  0.00     0.011 A 
HETATM   28 BR1  UNL     1      29.687   8.901  47.041  1.00  0.00    -0.051 Br
HETATM   29  C9  UNL     1      27.178   7.678  47.711  1.00  0.00     0.032 A 
ENDBRANCH  22  23
ENDBRANCH   3  21
BRANCH   1  30
HETATM   30  N1  UNL     1      23.751   5.107  53.654  1.00  0.00    -0.385 N 
HETATM   31  H1  UNL     1      24.203   5.575  54.489  1.00  0.00     0.157 HD
HETATM   32  H2  UNL     1      23.232   4.307  54.065  1.00  0.00     0.157 HD
ENDBRANCH   1  30
TORSDOF 5
ENDMDL
MODEL 7
REMARK VINA RESULT:      -9.3      3.601      5.724
REMARK  5 active torsions:
REMARK  status: ('A' for Active; 'I' for Inactive)
REMARK    1  A    between atoms: N1_1  and  C1_2 
REMARK    2  A    between atoms: C2_4  and  N3_5 
REMARK    3  A    between atoms: C3_6  and  C4_7 
REMARK    4  A    between atoms: C12_16  and  C13_17 
REMARK    5  A    between atoms: C13_17  and  C14_18 
ROOT
HETATM    1  C1  UNL     1      22.262   2.734  49.070  1.00  0.00     0.127 C 
HETATM    2  N2  UNL     1      22.354   3.811  48.366  1.00  0.00    -0.213 NA
HETATM    3  C2  UNL     1      22.948   4.846  49.138  1.00  0.00     0.159 C 
HETATM    4  C10 UNL     1      23.233   4.405  50.341  1.00  0.00     0.022 C 
HETATM    5  C11 UNL     1      23.734   4.453  51.713  1.00  0.00     0.038 C 
HETATM    6  C12 UNL     1      24.129   3.201  52.080  1.00  0.00     0.011 C 
HETATM    7  N4  UNL     1      23.871   2.337  50.925  1.00  0.00    -0.377 N 
HETATM    8  C24 UNL     1      22.702   2.994  50.417  1.00  0.00     0.188 C 
HETATM    9  H18 UNL     1      24.528   1.542  50.771  1.00  0.00     0.160 HD
ENDROOT
BRANCH   6  10
HETATM   10  C13 UNL     1      24.709   2.855  53.438  1.00  0.00     0.096 C 
BRANCH  10  11
HETATM   11  C14 UNL     1      25.365   1.523  53.435  1.00  0.00    -0.042 A 
HETATM   12  C15 UNL     1      24.522   0.407  53.342  1.00  0.00     0.008 A 
HETATM   13  C16 UNL     1      24.934  -0.909  53.317  1.00  0.00     0.001 A 
HETATM   14  C17 UNL     1      26.286  -1.146  53.390  1.00  0.00     0.012 A 
HETATM   15  C18 UNL     1      27.153  -0.075  53.482  1.00  0.00    -0.025 A 
HETATM   16  C19 UNL     1      28.519  -0.321  53.557  1.00  0.00     0.012 A 
HETATM   17  C23 UNL     1      26.707   1.231  53.505  1.00  0.00    -0.019 A 
HETATM   18  C20 UNL     1      29.373   0.768  53.653  1.00  0.00     0.001 A 
HETATM   19  C21 UNL     1      28.901   2.072  53.675  1.00  0.00     0.001 A 
HETATM   20  C22 UNL     1      27.547   2.318  53.599  1.00  0.00     0.013 A 
ENDBRANCH  10  11
ENDBRANCH   6  10
BRANCH   3  21
HETATM   21  N3  UNL     1      23.286   6.199  48.891  1.00  0.00    -0.240 NA
HETATM   22  C3  UNL     1      24.477   6.616  48.668  1.00  0.00     0.130 C 
BRANCH  22  23
HETATM   23  C4  UNL     1      25.880   6.280  48.528  1.00  0.00    -0.017 A 
HETATM   24  C5  UNL     1      26.335   5.065  48.963  1.00  0.00     0.013 A 
HETATM   25  C6  UNL     1      27.673   4.763  48.820  1.00  0.00     0.002 A 
HETATM   26  C7  UNL     1      28.476   5.721  48.239  1.00  0.00     0.019 A 
HETATM   27  C8  UNL     1      27.987   6.939  47.809  1.00  0.00     0.011 A 
HETATM   28 BR1  UNL     1      29.177   8.220  47.007  1.00  0.00    -0.051 Br
HETATM   29  C9  UNL     1      26.636   7.268  47.942  1.00  0.00     0.032 A 
ENDBRANCH  22  23
ENDBRANCH   3  21
BRANCH   1  30
HETATM   30  N1  UNL     1      21.817   1.393  48.979  1.00  0.00    -0.385 N 
HETATM   31  H1  UNL     1      20.910   0.936  49.281  1.00  0.00     0.157 HD
HETATM   32  H2  UNL     1      22.366   0.612  48.571  1.00  0.00     0.157 HD
ENDBRANCH   1  30
TORSDOF 5
ENDMDL
MODEL 8
REMARK VINA RESULT:      -9.3      4.245      6.978
REMARK  5 active torsions:
REMARK  status: ('A' for Active; 'I' for Inactive)
REMARK    1  A    between atoms: N1_1  and  C1_2 
REMARK    2  A    between atoms: C2_4  and  N3_5 
REMARK    3  A    between atoms: C3_6  and  C4_7 
REMARK    4  A    between atoms: C12_16  and  C13_17 
REMARK    5  A    between atoms: C13_17  and  C14_18 
ROOT
HETATM    1  C1  UNL     1      23.119   4.952  51.811  1.00  0.00     0.127 C 
HETATM    2  N2  UNL     1      22.778   3.940  52.534  1.00  0.00    -0.213 NA
HETATM    3  C2  UNL     1      23.547   2.801  52.168  1.00  0.00     0.159 C 
HETATM    4  C10 UNL     1      24.380   3.111  51.203  1.00  0.00     0.022 C 
HETATM    5  C11 UNL     1      25.433   2.905  50.209  1.00  0.00     0.038 C 
HETATM    6  C12 UNL     1      26.073   4.090  49.997  1.00  0.00     0.011 C 
HETATM    7  N4  UNL     1      25.417   5.070  50.865  1.00  0.00    -0.377 N 
HETATM    8  C24 UNL     1      24.084   4.542  50.823  1.00  0.00     0.188 C 
HETATM    9  H18 UNL     1      26.012   5.830  51.259  1.00  0.00     0.160 HD
ENDROOT
BRANCH   6  10
HETATM   10  C13 UNL     1      27.229   4.271  49.032  1.00  0.00     0.096 C 
BRANCH  10  11
HETATM   11  C14 UNL     1      27.253   5.636  48.448  1.00  0.00    -0.042 A 
HETATM   12  C15 UNL     1      26.025   6.306  48.366  1.00  0.00     0.008 A 
HETATM   13  C16 UNL     1      25.837   7.578  47.865  1.00  0.00     0.001 A 
HETATM   14  C17 UNL     1      26.948   8.244  47.407  1.00  0.00     0.012 A 
HETATM   15  C18 UNL     1      28.179   7.620  47.470  1.00  0.00    -0.025 A 
HETATM   16  C19 UNL     1      29.300   8.298  47.003  1.00  0.00     0.012 A 
HETATM   17  C23 UNL     1      28.332   6.346  47.978  1.00  0.00    -0.019 A 
HETATM   18  C20 UNL     1      30.527   7.653  47.071  1.00  0.00     0.001 A 
HETATM   19  C21 UNL     1      30.655   6.371  47.586  1.00  0.00     0.001 A 
HETATM   20  C22 UNL     1      29.545   5.698  48.050  1.00  0.00     0.013 A 
ENDBRANCH  10  11
ENDBRANCH   6  10
BRANCH   3  21
HETATM   21  N3  UNL     1      23.602   1.457  52.610  1.00  0.00    -0.240 NA
HETATM   22  C3  UNL     1      24.671   0.869  53.002  1.00  0.00     0.130 C 
BRANCH  22  23
HETATM   23  C4  UNL     1      26.096   0.967  53.243  1.00  0.00    -0.017 A 
HETATM   24  C5  UNL     1      26.654   2.177  53.551  1.00  0.00     0.013 A 
HETATM   25  C6  UNL     1      28.012   2.249  53.778  1.00  0.00     0.002 A 
HETATM   26  C7  UNL     1      28.730   1.077  53.677  1.00  0.00     0.019 A 
HETATM   27  C8  UNL     1      28.139  -0.132  53.364  1.00  0.00     0.011 A 
HETATM   28 BR1  UNL     1      29.215  -1.721  53.244  1.00  0.00    -0.051 Br
HETATM   29  C9  UNL     1      26.765  -0.231  53.131  1.00  0.00     0.032 A 
ENDBRANCH  22  23
ENDBRANCH   3  21
BRANCH   1  30
HETATM   30  N1  UNL     1      22.817   6.323  51.622  1.00  0.00    -0.385 N 
HETATM   31  H1  UNL     1      23.408   7.192  51.751  1.00  0.00     0.157 HD
HETATM   32  H2  UNL     1      21.898   6.689  51.306  1.00  0.00     0.157 HD
ENDBRANCH   1  30
TORSDOF 5
ENDMDL
MODEL 9
REMARK VINA RESULT:      -9.2      1.923      2.489
REMARK  5 active torsions:
REMARK  status: ('A' for Active; 'I' for Inactive)
REMARK    1  A    between atoms: N1_1  and  C1_2 
REMARK    2  A    between atoms: C2_4  and  N3_5 
REMARK    3  A    between atoms: C3_6  and  C4_7 
REMARK    4  A    between atoms: C12_16  and  C13_17 
REMARK    5  A    between atoms: C13_17  and  C14_18 
ROOT
HETATM    1  C1  UNL     1      23.169   6.437  50.291  1.00  0.00     0.127 C 
HETATM    2  N2  UNL     1      22.199   6.111  49.507  1.00  0.00    -0.213 NA
HETATM    3  C2  UNL     1      22.482   4.870  48.874  1.00  0.00     0.159 C 
HETATM    4  C10 UNL     1      23.647   4.415  49.274  1.00  0.00     0.022 C 
HETATM    5  C11 UNL     1      24.781   3.497  49.360  1.00  0.00     0.038 C 
HETATM    6  C12 UNL     1      25.363   3.633  50.586  1.00  0.00     0.011 C 
HETATM    7  N4  UNL     1      24.592   4.659  51.293  1.00  0.00    -0.377 N 
HETATM    8  C24 UNL     1      24.237   5.477  50.170  1.00  0.00     0.188 C 
HETATM    9  H18 UNL     1      24.499   4.555  52.326  1.00  0.00     0.160 HD
ENDROOT
BRANCH   6  10
HETATM   10  C13 UNL     1      26.570   2.840  51.047  1.00  0.00     0.096 C 
BRANCH  10  11
HETATM   11  C14 UNL     1      26.210   1.834  52.079  1.00  0.00    -0.042 A 
HETATM   12  C15 UNL     1      24.891   1.359  52.059  1.00  0.00     0.008 A 
HETATM   13  C16 UNL     1      24.363   0.422  52.924  1.00  0.00     0.001 A 
HETATM   14  C17 UNL     1      25.202  -0.088  53.886  1.00  0.00     0.012 A 
HETATM   15  C18 UNL     1      26.510   0.352  53.940  1.00  0.00    -0.025 A 
HETATM   16  C19 UNL     1      27.353  -0.166  54.916  1.00  0.00     0.012 A 
HETATM   17  C23 UNL     1      27.006   1.291  53.059  1.00  0.00    -0.019 A 
HETATM   18  C20 UNL     1      28.663   0.292  54.957  1.00  0.00     0.001 A 
HETATM   19  C21 UNL     1      29.138   1.238  54.061  1.00  0.00     0.001 A 
HETATM   20  C22 UNL     1      28.304   1.752  53.091  1.00  0.00     0.013 A 
ENDBRANCH  10  11
ENDBRANCH   6  10
BRANCH   3  21
HETATM   21  N3  UNL     1      21.799   4.051  47.942  1.00  0.00    -0.240 NA
HETATM   22  C3  UNL     1      21.207   2.955  48.241  1.00  0.00     0.130 C 
BRANCH  22  23
HETATM   23  C4  UNL     1      20.855   2.004  49.277  1.00  0.00    -0.017 A 
HETATM   24  C5  UNL     1      21.839   1.310  49.926  1.00  0.00     0.013 A 
HETATM   25  C6  UNL     1      21.484   0.410  50.909  1.00  0.00     0.002 A 
HETATM   26  C7  UNL     1      20.139   0.268  51.176  1.00  0.00     0.019 A 
HETATM   27  C8  UNL     1      19.168   0.984  50.504  1.00  0.00     0.011 A 
HETATM   28 BR1  UNL     1      17.312   0.725  50.940  1.00  0.00    -0.051 Br
HETATM   29  C9  UNL     1      19.502   1.902  49.505  1.00  0.00     0.032 A 
ENDBRANCH  22  23
ENDBRANCH   3  21
BRANCH   1  30
HETATM   30  N1  UNL     1      23.563   7.457  51.191  1.00  0.00    -0.385 N 
HETATM   31  H1  UNL     1      24.304   7.473  51.947  1.00  0.00     0.157 HD
HETATM   32  H2  UNL     1      23.142   8.406  51.233  1.00  0.00     0.157 HD
ENDBRANCH   1  30
TORSDOF 5
ENDMDL
