MODEL 1
REMARK VINA RESULT:      -6.0      0.000      0.000
REMARK  9 active torsions:
REMARK  status: ('A' for Active; 'I' for Inactive)
REMARK    1  A    between atoms: C2_2  and  C3_3 
REMARK    2  A    between atoms: C3_3  and  N2_14 
REMARK    3  A    between atoms: C4_4  and  C5_5 
REMARK    4  A    between atoms: C5_5  and  C6_6 
REMARK       I    between atoms: C6_6  and  N1_8 
REMARK    5  A    between atoms: N1_8  and  C7_9 
REMARK    6  A    between atoms: N2_14  and  C12_15 
REMARK    7  A    between atoms: N2_14  and  C14_18 
REMARK    8  A    between atoms: C12_15  and  C13_16 
REMARK    9  A    between atoms: C14_18  and  C15_19 
ROOT
HETATM    1  C3  UNL     1      23.059   1.914  51.939  1.00  0.00     0.026 C 
HETATM    2  C4  UNL     1      23.882   1.342  52.791  1.00  0.00     0.012 C 
ENDROOT
BRANCH   2   3
HETATM    3  C5  UNL     1      23.794   0.019  53.443  1.00  0.00     0.132 C 
BRANCH   3   4
HETATM    4  C6  UNL     1      25.156  -0.455  53.884  1.00  0.00     0.225 C 
HETATM    5  O1  UNL     1      25.372  -1.022  54.995  1.00  0.00    -0.273 OA
HETATM    6  N1  UNL     1      26.179  -0.202  52.933  1.00  0.00    -0.330 N 
HETATM    7  H7  UNL     1      26.032   0.263  52.014  1.00  0.00     0.168 HD
BRANCH   6   8
HETATM    8  C7  UNL     1      27.536  -0.565  53.146  1.00  0.00     0.015 A 
HETATM    9  C8  UNL     1      28.025  -1.809  52.999  1.00  0.00     0.025 A 
HETATM   10  C9  UNL     1      29.453  -1.808  53.302  1.00  0.00    -0.002 A 
HETATM   11  C10 UNL     1      29.806  -0.561  53.628  1.00  0.00    -0.021 A 
HETATM   12  C11 UNL     1      28.650   0.351  53.568  1.00  0.00     0.084 A 
ENDBRANCH   6   8
ENDBRANCH   3   4
ENDBRANCH   2   3
BRANCH   1  13
HETATM   13  C2  UNL     1      21.931   1.115  51.626  1.00  0.00     0.019 C 
HETATM   14  C1  UNL     1      21.397   0.587  50.558  1.00  0.00     0.013 C 
ENDBRANCH   1  13
BRANCH   1  15
HETATM   15  N2  UNL     1      23.370   3.215  51.462  1.00  0.00    -0.379 N 
BRANCH  15  16
HETATM   16  C12 UNL     1      24.102   3.210  50.221  1.00  0.00     0.138 C 
BRANCH  16  17
HETATM   17  C13 UNL     1      25.438   3.878  50.244  1.00  0.00     0.134 C 
HETATM   18 CL1  UNL     1      26.628   2.654  50.842  1.00  0.00    -0.129 Cl
ENDBRANCH  16  17
ENDBRANCH  15  16
BRANCH  15  19
HETATM   19  C14 UNL     1      22.896   4.263  52.329  1.00  0.00     0.138 C 
BRANCH  19  20
HETATM   20  C15 UNL     1      22.018   5.292  51.706  1.00  0.00     0.134 C 
HETATM   21 CL2  UNL     1      20.473   4.436  51.306  1.00  0.00    -0.129 Cl
ENDBRANCH  19  20
ENDBRANCH  15  19
ENDBRANCH   1  15
TORSDOF 9
ENDMDL
MODEL 2
REMARK VINA RESULT:      -6.0      1.542      1.708
REMARK  9 active torsions:
REMARK  status: ('A' for Active; 'I' for Inactive)
REMARK    1  A    between atoms: C2_2  and  C3_3 
REMARK    2  A    between atoms: C3_3  and  N2_14 
REMARK    3  A    between atoms: C4_4  and  C5_5 
REMARK    4  A    between atoms: C5_5  and  C6_6 
REMARK       I    between atoms: C6_6  and  N1_8 
REMARK    5  A    between atoms: N1_8  and  C7_9 
REMARK    6  A    between atoms: N2_14  and  C12_15 
REMARK    7  A    between atoms: N2_14  and  C14_18 
REMARK    8  A    between atoms: C12_15  and  C13_16 
REMARK    9  A    between atoms: C14_18  and  C15_19 
ROOT
HETATM    1  C3  UNL     1      22.658   1.249  51.959  1.00  0.00     0.026 C 
HETATM    2  C4  UNL     1      23.643   0.864  52.741  1.00  0.00     0.012 C 
ENDROOT
BRANCH   2   3
HETATM    3  C5  UNL     1      23.806  -0.391  53.503  1.00  0.00     0.132 C 
BRANCH   3   4
HETATM    4  C6  UNL     1      25.230  -0.553  53.973  1.00  0.00     0.225 C 
HETATM    5  O1  UNL     1      25.542  -0.849  55.164  1.00  0.00    -0.273 OA
HETATM    6  N1  UNL     1      26.191  -0.342  52.950  1.00  0.00    -0.330 N 
HETATM    7  H7  UNL     1      25.964  -0.097  51.965  1.00  0.00     0.168 HD
BRANCH   6   8
HETATM    8  C7  UNL     1      27.590  -0.444  53.176  1.00  0.00     0.015 A 
HETATM    9  C8  UNL     1      28.292  -1.589  53.115  1.00  0.00     0.025 A 
HETATM   10  C9  UNL     1      29.696  -1.314  53.402  1.00  0.00    -0.002 A 
HETATM   11  C10 UNL     1      29.823  -0.004  53.631  1.00  0.00    -0.021 A 
HETATM   12  C11 UNL     1      28.524   0.684  53.516  1.00  0.00     0.084 A 
ENDBRANCH   6   8
ENDBRANCH   3   4
ENDBRANCH   2   3
BRANCH   1  13
HETATM   13  C2  UNL     1      21.614   0.294  51.859  1.00  0.00     0.019 C 
HETATM   14  C1  UNL     1      20.362   0.278  51.492  1.00  0.00     0.013 C 
ENDBRANCH   1  13
BRANCH   1  15
HETATM   15  N2  UNL     1      22.737   2.525  51.342  1.00  0.00    -0.379 N 
BRANCH  15  16
HETATM   16  C12 UNL     1      23.484   2.520  50.109  1.00  0.00     0.138 C 
BRANCH  16  17
HETATM   17  C13 UNL     1      22.719   2.884  48.879  1.00  0.00     0.134 C 
HETATM   18 CL1  UNL     1      21.830   1.400  48.353  1.00  0.00    -0.129 Cl
ENDBRANCH  16  17
ENDBRANCH  15  16
BRANCH  15  19
HETATM   19  C14 UNL     1      22.064   3.557  52.089  1.00  0.00     0.138 C 
BRANCH  19  20
HETATM   20  C15 UNL     1      22.901   4.706  52.534  1.00  0.00     0.134 C 
HETATM   21 CL2  UNL     1      22.756   5.949  51.225  1.00  0.00    -0.129 Cl
ENDBRANCH  19  20
ENDBRANCH  15  19
ENDBRANCH   1  15
TORSDOF 9
ENDMDL
MODEL 3
REMARK VINA RESULT:      -5.9      0.730      2.841
REMARK  9 active torsions:
REMARK  status: ('A' for Active; 'I' for Inactive)
REMARK    1  A    between atoms: C2_2  and  C3_3 
REMARK    2  A    between atoms: C3_3  and  N2_14 
REMARK    3  A    between atoms: C4_4  and  C5_5 
REMARK    4  A    between atoms: C5_5  and  C6_6 
REMARK       I    between atoms: C6_6  and  N1_8 
REMARK    5  A    between atoms: N1_8  and  C7_9 
REMARK    6  A    between atoms: N2_14  and  C12_15 
REMARK    7  A    between atoms: N2_14  and  C14_18 
REMARK    8  A    between atoms: C12_15  and  C13_16 
REMARK    9  A    between atoms: C14_18  and  C15_19 
ROOT
HETATM    1  C3  UNL     1      22.866   1.409  51.800  1.00  0.00     0.026 C 
HETATM    2  C4  UNL     1      23.718   0.996  52.713  1.00  0.00     0.012 C 
ENDROOT
BRANCH   2   3
HETATM    3  C5  UNL     1      23.776  -0.292  53.435  1.00  0.00     0.132 C 
BRANCH   3   4
HETATM    4  C6  UNL     1      25.179  -0.582  53.905  1.00  0.00     0.225 C 
HETATM    5  O1  UNL     1      25.454  -0.988  55.072  1.00  0.00    -0.273 OA
HETATM    6  N1  UNL     1      26.167  -0.355  52.912  1.00  0.00    -0.330 N 
HETATM    7  H7  UNL     1      25.971  -0.022  51.947  1.00  0.00     0.168 HD
BRANCH   6   8
HETATM    8  C7  UNL     1      27.553  -0.566  53.143  1.00  0.00     0.015 A 
HETATM    9  C8  UNL     1      28.424   0.398  53.493  1.00  0.00     0.025 A 
HETATM   10  C9  UNL     1      29.755  -0.182  53.644  1.00  0.00    -0.002 A 
HETATM   11  C10 UNL     1      29.669  -1.489  53.384  1.00  0.00    -0.021 A 
HETATM   12  C11 UNL     1      28.287  -1.874  53.042  1.00  0.00     0.084 A 
ENDBRANCH   6   8
ENDBRANCH   3   4
ENDBRANCH   2   3
BRANCH   1  13
HETATM   13  C2  UNL     1      21.868   0.451  51.490  1.00  0.00     0.019 C 
HETATM   14  C1  UNL     1      20.584   0.312  51.676  1.00  0.00     0.013 C 
ENDBRANCH   1  13
BRANCH   1  15
HETATM   15  N2  UNL     1      23.025   2.714  51.263  1.00  0.00    -0.379 N 
BRANCH  15  16
HETATM   16  C12 UNL     1      22.077   3.667  51.784  1.00  0.00     0.138 C 
BRANCH  16  17
HETATM   17  C13 UNL     1      20.984   4.080  50.854  1.00  0.00     0.134 C 
HETATM   18 CL1  UNL     1      19.421   3.767  51.707  1.00  0.00    -0.129 Cl
ENDBRANCH  16  17
ENDBRANCH  15  16
BRANCH  15  19
HETATM   19  C14 UNL     1      24.093   2.803  50.301  1.00  0.00     0.138 C 
BRANCH  19  20
HETATM   20  C15 UNL     1      25.219   3.715  50.644  1.00  0.00     0.134 C 
HETATM   21 CL2  UNL     1      26.618   2.635  51.041  1.00  0.00    -0.129 Cl
ENDBRANCH  19  20
ENDBRANCH  15  19
ENDBRANCH   1  15
TORSDOF 9
ENDMDL
MODEL 4
REMARK VINA RESULT:      -5.9      2.918      4.180
REMARK  9 active torsions:
REMARK  status: ('A' for Active; 'I' for Inactive)
REMARK    1  A    between atoms: C2_2  and  C3_3 
REMARK    2  A    between atoms: C3_3  and  N2_14 
REMARK    3  A    between atoms: C4_4  and  C5_5 
REMARK    4  A    between atoms: C5_5  and  C6_6 
REMARK       I    between atoms: C6_6  and  N1_8 
REMARK    5  A    between atoms: N1_8  and  C7_9 
REMARK    6  A    between atoms: N2_14  and  C12_15 
REMARK    7  A    between atoms: N2_14  and  C14_18 
REMARK    8  A    between atoms: C12_15  and  C13_16 
REMARK    9  A    between atoms: C14_18  and  C15_19 
ROOT
HETATM    1  C3  UNL     1      23.016   1.279  52.238  1.00  0.00     0.026 C 
HETATM    2  C4  UNL     1      23.972   1.700  53.038  1.00  0.00     0.012 C 
ENDROOT
BRANCH   2   3
HETATM    3  C5  UNL     1      25.104   2.606  52.757  1.00  0.00     0.132 C 
BRANCH   3   4
HETATM    4  C6  UNL     1      26.368   1.823  52.503  1.00  0.00     0.225 C 
HETATM    5  O1  UNL     1      27.083   1.969  51.468  1.00  0.00    -0.273 OA
HETATM    6  N1  UNL     1      26.681   0.903  53.537  1.00  0.00    -0.330 N 
HETATM    7  H7  UNL     1      26.113   0.761  54.396  1.00  0.00     0.168 HD
BRANCH   6   8
HETATM    8  C7  UNL     1      27.828   0.064  53.499  1.00  0.00     0.015 A 
HETATM    9  C8  UNL     1      27.828  -1.210  53.068  1.00  0.00     0.025 A 
HETATM   10  C9  UNL     1      29.177  -1.758  53.173  1.00  0.00    -0.002 A 
HETATM   11  C10 UNL     1      29.973  -0.805  53.666  1.00  0.00    -0.021 A 
HETATM   12  C11 UNL     1      29.221   0.436  53.924  1.00  0.00     0.084 A 
ENDBRANCH   6   8
ENDBRANCH   3   4
ENDBRANCH   2   3
BRANCH   1  13
HETATM   13  C2  UNL     1      23.122   1.790  50.919  1.00  0.00     0.019 C 
HETATM   14  C1  UNL     1      22.358   1.890  49.866  1.00  0.00     0.013 C 
ENDBRANCH   1  13
BRANCH   1  15
HETATM   15  N2  UNL     1      22.038   0.390  52.755  1.00  0.00    -0.379 N 
BRANCH  15  16
HETATM   16  C12 UNL     1      20.794   1.037  53.089  1.00  0.00     0.138 C 
BRANCH  16  17
HETATM   17  C13 UNL     1      19.636   0.734  52.194  1.00  0.00     0.134 C 
HETATM   18 CL1  UNL     1      18.789  -0.699  52.899  1.00  0.00    -0.129 Cl
ENDBRANCH  16  17
ENDBRANCH  15  16
BRANCH  15  19
HETATM   19  C14 UNL     1      22.503  -0.970  52.849  1.00  0.00     0.138 C 
BRANCH  19  20
HETATM   20  C15 UNL     1      21.943  -1.787  53.961  1.00  0.00     0.134 C 
HETATM   21 CL2  UNL     1      22.846  -1.274  55.445  1.00  0.00    -0.129 Cl
ENDBRANCH  19  20
ENDBRANCH  15  19
ENDBRANCH   1  15
TORSDOF 9
ENDMDL
MODEL 5
REMARK VINA RESULT:      -5.8      1.433      3.025
REMARK  9 active torsions:
REMARK  status: ('A' for Active; 'I' for Inactive)
REMARK    1  A    between atoms: C2_2  and  C3_3 
REMARK    2  A    between atoms: C3_3  and  N2_14 
REMARK    3  A    between atoms: C4_4  and  C5_5 
REMARK    4  A    between atoms: C5_5  and  C6_6 
REMARK       I    between atoms: C6_6  and  N1_8 
REMARK    5  A    between atoms: N1_8  and  C7_9 
REMARK    6  A    between atoms: N2_14  and  C12_15 
REMARK    7  A    between atoms: N2_14  and  C14_18 
REMARK    8  A    between atoms: C12_15  and  C13_16 
REMARK    9  A    between atoms: C14_18  and  C15_19 
ROOT
HETATM    1  C3  UNL     1      24.096   2.641  51.445  1.00  0.00     0.026 C 
HETATM    2  C4  UNL     1      24.213   1.370  51.761  1.00  0.00     0.012 C 
ENDROOT
BRANCH   2   3
HETATM    3  C5  UNL     1      23.940   0.689  53.044  1.00  0.00     0.132 C 
BRANCH   3   4
HETATM    4  C6  UNL     1      25.191   0.045  53.586  1.00  0.00     0.225 C 
HETATM    5  O1  UNL     1      25.241  -0.552  54.701  1.00  0.00    -0.273 OA
HETATM    6  N1  UNL     1      26.313   0.173  52.726  1.00  0.00    -0.330 N 
HETATM    7  H7  UNL     1      26.302   0.658  51.806  1.00  0.00     0.168 HD
BRANCH   6   8
HETATM    8  C7  UNL     1      27.591  -0.361  53.043  1.00  0.00     0.015 A 
HETATM    9  C8  UNL     1      27.939  -1.651  52.892  1.00  0.00     0.025 A 
HETATM   10  C9  UNL     1      29.323  -1.833  53.318  1.00  0.00    -0.002 A 
HETATM   11  C10 UNL     1      29.792  -0.649  53.720  1.00  0.00    -0.021 A 
HETATM   12  C11 UNL     1      28.765   0.400  53.594  1.00  0.00     0.084 A 
ENDBRANCH   6   8
ENDBRANCH   3   4
ENDBRANCH   2   3
BRANCH   1  13
HETATM   13  C2  UNL     1      23.640   3.447  52.519  1.00  0.00     0.019 C 
HETATM   14  C1  UNL     1      23.452   4.718  52.750  1.00  0.00     0.013 C 
ENDBRANCH   1  13
BRANCH   1  15
HETATM   15  N2  UNL     1      24.437   3.049  50.128  1.00  0.00    -0.379 N 
BRANCH  15  16
HETATM   16  C12 UNL     1      23.338   2.966  49.200  1.00  0.00     0.138 C 
BRANCH  16  17
HETATM   17  C13 UNL     1      22.444   4.161  49.133  1.00  0.00     0.134 C 
HETATM   18 CL1  UNL     1      20.939   3.743  50.045  1.00  0.00    -0.129 Cl
ENDBRANCH  16  17
ENDBRANCH  15  16
BRANCH  15  19
HETATM   19  C14 UNL     1      25.815   3.448  50.000  1.00  0.00     0.138 C 
BRANCH  19  20
HETATM   20  C15 UNL     1      26.061   4.850  49.559  1.00  0.00     0.134 C 
HETATM   21 CL2  UNL     1      27.599   4.798  48.605  1.00  0.00    -0.129 Cl
ENDBRANCH  19  20
ENDBRANCH  15  19
ENDBRANCH   1  15
TORSDOF 9
ENDMDL
MODEL 6
REMARK VINA RESULT:      -5.8      1.367      1.798
REMARK  9 active torsions:
REMARK  status: ('A' for Active; 'I' for Inactive)
REMARK    1  A    between atoms: C2_2  and  C3_3 
REMARK    2  A    between atoms: C3_3  and  N2_14 
REMARK    3  A    between atoms: C4_4  and  C5_5 
REMARK    4  A    between atoms: C5_5  and  C6_6 
REMARK       I    between atoms: C6_6  and  N1_8 
REMARK    5  A    between atoms: N1_8  and  C7_9 
REMARK    6  A    between atoms: N2_14  and  C12_15 
REMARK    7  A    between atoms: N2_14  and  C14_18 
REMARK    8  A    between atoms: C12_15  and  C13_16 
REMARK    9  A    between atoms: C14_18  and  C15_19 
ROOT
HETATM    1  C3  UNL     1      22.706   1.054  52.371  1.00  0.00     0.026 C 
HETATM    2  C4  UNL     1      23.767   0.372  52.745  1.00  0.00     0.012 C 
ENDROOT
BRANCH   2   3
HETATM    3  C5  UNL     1      23.952  -0.518  53.910  1.00  0.00     0.132 C 
BRANCH   3   4
HETATM    4  C6  UNL     1      25.409  -0.609  54.289  1.00  0.00     0.225 C 
HETATM    5  O1  UNL     1      25.812  -0.803  55.474  1.00  0.00    -0.273 OA
HETATM    6  N1  UNL     1      26.292  -0.455  53.188  1.00  0.00    -0.330 N 
HETATM    7  H7  UNL     1      25.991  -0.293  52.205  1.00  0.00     0.168 HD
BRANCH   6   8
HETATM    8  C7  UNL     1      27.705  -0.506  53.321  1.00  0.00     0.015 A 
HETATM    9  C8  UNL     1      28.441  -1.627  53.223  1.00  0.00     0.025 A 
HETATM   10  C9  UNL     1      29.851  -1.300  53.415  1.00  0.00    -0.002 A 
HETATM   11  C10 UNL     1      29.946   0.016  53.625  1.00  0.00    -0.021 A 
HETATM   12  C11 UNL     1      28.619   0.657  53.590  1.00  0.00     0.084 A 
ENDBRANCH   6   8
ENDBRANCH   3   4
ENDBRANCH   2   3
BRANCH   1  13
HETATM   13  C2  UNL     1      21.597   0.888  53.239  1.00  0.00     0.019 C 
HETATM   14  C1  UNL     1      20.465   0.238  53.233  1.00  0.00     0.013 C 
ENDBRANCH   1  13
BRANCH   1  15
HETATM   15  N2  UNL     1      22.790   1.855  51.202  1.00  0.00    -0.379 N 
BRANCH  15  16
HETATM   16  C12 UNL     1      23.672   2.986  51.344  1.00  0.00     0.138 C 
BRANCH  16  17
HETATM   17  C13 UNL     1      24.748   3.112  50.316  1.00  0.00     0.134 C 
HETATM   18 CL1  UNL     1      26.234   2.354  51.015  1.00  0.00    -0.129 Cl
ENDBRANCH  16  17
ENDBRANCH  15  16
BRANCH  15  19
HETATM   19  C14 UNL     1      21.963   1.372  50.125  1.00  0.00     0.138 C 
BRANCH  19  20
HETATM   20  C15 UNL     1      20.742   2.169  49.819  1.00  0.00     0.134 C 
HETATM   21 CL2  UNL     1      19.364   0.996  49.895  1.00  0.00    -0.129 Cl
ENDBRANCH  19  20
ENDBRANCH  15  19
ENDBRANCH   1  15
TORSDOF 9
ENDMDL
MODEL 7
REMARK VINA RESULT:      -5.8      2.729      3.742
REMARK  9 active torsions:
REMARK  status: ('A' for Active; 'I' for Inactive)
REMARK    1  A    between atoms: C2_2  and  C3_3 
REMARK    2  A    between atoms: C3_3  and  N2_14 
REMARK    3  A    between atoms: C4_4  and  C5_5 
REMARK    4  A    between atoms: C5_5  and  C6_6 
REMARK       I    between atoms: C6_6  and  N1_8 
REMARK    5  A    between atoms: N1_8  and  C7_9 
REMARK    6  A    between atoms: N2_14  and  C12_15 
REMARK    7  A    between atoms: N2_14  and  C14_18 
REMARK    8  A    between atoms: C12_15  and  C13_16 
REMARK    9  A    between atoms: C14_18  and  C15_19 
ROOT
HETATM    1  C3  UNL     1      22.770   1.908  52.554  1.00  0.00     0.026 C 
HETATM    2  C4  UNL     1      23.994   1.727  53.001  1.00  0.00     0.012 C 
ENDROOT
BRANCH   2   3
HETATM    3  C5  UNL     1      25.163   2.627  52.936  1.00  0.00     0.132 C 
BRANCH   3   4
HETATM    4  C6  UNL     1      26.425   1.849  52.659  1.00  0.00     0.225 C 
HETATM    5  O1  UNL     1      27.156   2.045  51.644  1.00  0.00    -0.273 OA
HETATM    6  N1  UNL     1      26.717   0.872  53.646  1.00  0.00    -0.330 N 
HETATM    7  H7  UNL     1      26.135   0.689  54.489  1.00  0.00     0.168 HD
BRANCH   6   8
HETATM    8  C7  UNL     1      27.858   0.028  53.580  1.00  0.00     0.015 A 
HETATM    9  C8  UNL     1      27.849  -1.233  53.114  1.00  0.00     0.025 A 
HETATM   10  C9  UNL     1      29.194  -1.791  53.198  1.00  0.00    -0.002 A 
HETATM   11  C10 UNL     1      29.998  -0.858  53.715  1.00  0.00    -0.021 A 
HETATM   12  C11 UNL     1      29.255   0.379  54.011  1.00  0.00     0.084 A 
ENDBRANCH   6   8
ENDBRANCH   3   4
ENDBRANCH   2   3
BRANCH   1  13
HETATM   13  C2  UNL     1      22.583   3.163  51.921  1.00  0.00     0.019 C 
HETATM   14  C1  UNL     1      22.127   4.341  52.247  1.00  0.00     0.013 C 
ENDBRANCH   1  13
BRANCH   1  15
HETATM   15  N2  UNL     1      21.819   0.869  52.734  1.00  0.00    -0.379 N 
BRANCH  15  16
HETATM   16  C12 UNL     1      22.406  -0.378  53.155  1.00  0.00     0.138 C 
BRANCH  16  17
HETATM   17  C13 UNL     1      21.781  -1.029  54.345  1.00  0.00     0.134 C 
HETATM   18 CL1  UNL     1      23.113  -1.368  55.520  1.00  0.00    -0.129 Cl
ENDBRANCH  16  17
ENDBRANCH  15  16
BRANCH  15  19
HETATM   19  C14 UNL     1      20.470   1.280  52.444  1.00  0.00     0.138 C 
BRANCH  19  20
HETATM   20  C15 UNL     1      19.716   0.442  51.470  1.00  0.00     0.134 C 
HETATM   21 CL2  UNL     1      18.611  -0.590  52.469  1.00  0.00    -0.129 Cl
ENDBRANCH  19  20
ENDBRANCH  15  19
ENDBRANCH   1  15
TORSDOF 9
ENDMDL
MODEL 8
REMARK VINA RESULT:      -5.6      1.833      3.256
REMARK  9 active torsions:
REMARK  status: ('A' for Active; 'I' for Inactive)
REMARK    1  A    between atoms: C2_2  and  C3_3 
REMARK    2  A    between atoms: C3_3  and  N2_14 
REMARK    3  A    between atoms: C4_4  and  C5_5 
REMARK    4  A    between atoms: C5_5  and  C6_6 
REMARK       I    between atoms: C6_6  and  N1_8 
REMARK    5  A    between atoms: N1_8  and  C7_9 
REMARK    6  A    between atoms: N2_14  and  C12_15 
REMARK    7  A    between atoms: N2_14  and  C14_18 
REMARK    8  A    between atoms: C12_15  and  C13_16 
REMARK    9  A    between atoms: C14_18  and  C15_19 
ROOT
HETATM    1  C3  UNL     1      23.992   3.557  50.719  1.00  0.00     0.026 C 
HETATM    2  C4  UNL     1      24.519   3.177  51.862  1.00  0.00     0.012 C 
ENDROOT
BRANCH   2   3
HETATM    3  C5  UNL     1      24.634   1.823  52.443  1.00  0.00     0.132 C 
BRANCH   3   4
HETATM    4  C6  UNL     1      26.035   1.288  52.287  1.00  0.00     0.225 C 
HETATM    5  O1  UNL     1      26.784   1.569  51.305  1.00  0.00    -0.273 OA
HETATM    6  N1  UNL     1      26.438   0.436  53.348  1.00  0.00    -0.330 N 
HETATM    7  H7  UNL     1      25.845   0.187  54.165  1.00  0.00     0.168 HD
BRANCH   6   8
HETATM    8  C7  UNL     1      27.719  -0.177  53.399  1.00  0.00     0.015 A 
HETATM    9  C8  UNL     1      27.960  -1.468  53.112  1.00  0.00     0.025 A 
HETATM   10  C9  UNL     1      29.384  -1.743  53.272  1.00  0.00    -0.002 A 
HETATM   11  C10 UNL     1      29.984  -0.612  53.654  1.00  0.00    -0.021 A 
HETATM   12  C11 UNL     1      29.013   0.490  53.776  1.00  0.00     0.084 A 
ENDBRANCH   6   8
ENDBRANCH   3   4
ENDBRANCH   2   3
BRANCH   1  13
HETATM   13  C2  UNL     1      23.463   2.483  49.960  1.00  0.00     0.019 C 
HETATM   14  C1  UNL     1      22.302   2.134  49.474  1.00  0.00     0.013 C 
ENDBRANCH   1  13
BRANCH   1  15
HETATM   15  N2  UNL     1      23.997   4.939  50.393  1.00  0.00    -0.379 N 
BRANCH  15  16
HETATM   16  C12 UNL     1      23.330   5.761  51.372  1.00  0.00     0.138 C 
BRANCH  16  17
HETATM   17  C13 UNL     1      21.971   6.255  50.997  1.00  0.00     0.134 C 
HETATM   18 CL1  UNL     1      20.819   4.891  51.281  1.00  0.00    -0.129 Cl
ENDBRANCH  16  17
ENDBRANCH  15  16
BRANCH  15  19
HETATM   19  C14 UNL     1      24.659   5.223  49.146  1.00  0.00     0.138 C 
BRANCH  19  20
HETATM   20  C15 UNL     1      26.059   5.723  49.238  1.00  0.00     0.134 C 
HETATM   21 CL2  UNL     1      27.112   4.262  49.045  1.00  0.00    -0.129 Cl
ENDBRANCH  19  20
ENDBRANCH  15  19
ENDBRANCH   1  15
TORSDOF 9
ENDMDL
MODEL 9
REMARK VINA RESULT:      -5.5      1.834      1.985
REMARK  9 active torsions:
REMARK  status: ('A' for Active; 'I' for Inactive)
REMARK    1  A    between atoms: C2_2  and  C3_3 
REMARK    2  A    between atoms: C3_3  and  N2_14 
REMARK    3  A    between atoms: C4_4  and  C5_5 
REMARK    4  A    between atoms: C5_5  and  C6_6 
REMARK       I    between atoms: C6_6  and  N1_8 
REMARK    5  A    between atoms: N1_8  and  C7_9 
REMARK    6  A    between atoms: N2_14  and  C12_15 
REMARK    7  A    between atoms: N2_14  and  C14_18 
REMARK    8  A    between atoms: C12_15  and  C13_16 
REMARK    9  A    between atoms: C14_18  and  C15_19 
ROOT
HETATM    1  C3  UNL     1      23.500   3.527  51.568  1.00  0.00     0.026 C 
HETATM    2  C4  UNL     1      24.212   3.199  52.624  1.00  0.00     0.012 C 
ENDROOT
BRANCH   2   3
HETATM    3  C5  UNL     1      24.474   1.868  53.209  1.00  0.00     0.132 C 
BRANCH   3   4
HETATM    4  C6  UNL     1      25.882   1.417  52.908  1.00  0.00     0.225 C 
HETATM    5  O1  UNL     1      26.593   1.918  51.988  1.00  0.00    -0.273 OA
HETATM    6  N1  UNL     1      26.336   0.374  53.757  1.00  0.00    -0.330 N 
HETATM    7  H7  UNL     1      25.774  -0.056  54.519  1.00  0.00     0.168 HD
BRANCH   6   8
HETATM    8  C7  UNL     1      27.631  -0.198  53.647  1.00  0.00     0.015 A 
HETATM    9  C8  UNL     1      27.895  -1.388  53.078  1.00  0.00     0.025 A 
HETATM   10  C9  UNL     1      29.329  -1.652  53.145  1.00  0.00    -0.002 A 
HETATM   11  C10 UNL     1      29.912  -0.616  53.754  1.00  0.00    -0.021 A 
HETATM   12  C11 UNL     1      28.919   0.405  54.135  1.00  0.00     0.084 A 
ENDBRANCH   6   8
ENDBRANCH   3   4
ENDBRANCH   2   3
BRANCH   1  13
HETATM   13  C2  UNL     1      22.911   2.411  50.921  1.00  0.00     0.019 C 
HETATM   14  C1  UNL     1      22.560   2.083  49.707  1.00  0.00     0.013 C 
ENDBRANCH   1  13
BRANCH   1  15
HETATM   15  N2  UNL     1      23.393   4.898  51.218  1.00  0.00    -0.379 N 
BRANCH  15  16
HETATM   16  C12 UNL     1      24.602   5.440  50.649  1.00  0.00     0.138 C 
BRANCH  16  17
HETATM   17  C13 UNL     1      24.895   5.051  49.237  1.00  0.00     0.134 C 
HETATM   18 CL1  UNL     1      26.400   4.049  49.269  1.00  0.00    -0.129 Cl
ENDBRANCH  16  17
ENDBRANCH  15  16
BRANCH  15  19
HETATM   19  C14 UNL     1      22.101   5.459  51.517  1.00  0.00     0.138 C 
BRANCH  19  20
HETATM   20  C15 UNL     1      21.331   6.002  50.363  1.00  0.00     0.134 C 
HETATM   21 CL2  UNL     1      21.702   7.774  50.319  1.00  0.00    -0.129 Cl
ENDBRANCH  19  20
ENDBRANCH  15  19
ENDBRANCH   1  15
TORSDOF 9
ENDMDL
