MODEL 1
REMARK VINA RESULT:      -8.2      0.000      0.000
REMARK  0 active torsions:
REMARK  status: ('A' for Active; 'I' for Inactive)
ROOT
HETATM    1  C1  UNL     1      26.683   2.858  50.827  1.00  0.00     0.046 C 
HETATM    2  C2  UNL     1      26.346   1.556  51.419  1.00  0.00    -0.056 C 
HETATM    3  C3  UNL     1      27.062   0.463  51.891  1.00  0.00    -0.003 C 
HETATM    4  C4  UNL     1      26.791  -0.894  52.497  1.00  0.00     0.144 C 
HETATM    5  N1  UNL     1      27.195  -0.905  53.933  1.00  0.00    -0.391 N 
HETATM    6  C5  UNL     1      26.467   0.432  54.225  1.00  0.00     0.170 A 
HETATM    7  N2  UNL     1      27.552   0.986  54.404  1.00  0.00    -0.206 NA
HETATM    8  C6  UNL     1      28.234   2.107  54.305  1.00  0.00     0.226 A 
HETATM    9  N3  UNL     1      26.936   2.353  53.833  1.00  0.00    -0.254 NA
HETATM   10  C7  UNL     1      26.036   1.403  53.829  1.00  0.00     0.215 A 
HETATM   11  C8  UNL     1      25.103   0.391  53.832  1.00  0.00     0.110 A 
HETATM   12  C9  UNL     1      24.919  -0.892  54.407  1.00  0.00     0.019 C 
HETATM   13  C10 UNL     1      23.644  -0.579  54.310  1.00  0.00     0.131 C 
HETATM   14  O1  UNL     1      22.994   0.517  53.839  1.00  0.00    -0.362 OA
HETATM   15  C11 UNL     1      21.776   0.563  53.166  1.00  0.00     0.193 C 
HETATM   16  C12 UNL     1      21.989   0.954  51.689  1.00  0.00     0.143 C 
HETATM   17  N4  UNL     1      22.629   2.183  51.554  1.00  0.00    -0.412 N 
HETATM   18  C13 UNL     1      22.027   3.382  51.919  1.00  0.00     0.143 C 
HETATM   19  C14 UNL     1      23.928   2.218  50.932  1.00  0.00     0.153 C 
HETATM   20  C15 UNL     1      24.861   1.534  51.762  1.00  0.00     0.172 C 
HETATM   21  O2  UNL     1      24.905   2.096  53.133  1.00  0.00    -0.336 OA
HETATM   22  H7  UNL     1      27.768  -1.697  54.283  1.00  0.00     0.155 HD
ENDROOT
TORSDOF 0
ENDMDL
MODEL 2
REMARK VINA RESULT:      -7.2      1.690      5.667
REMARK  0 active torsions:
REMARK  status: ('A' for Active; 'I' for Inactive)
ROOT
HETATM    1  C1  UNL     1      21.802   0.228  53.475  1.00  0.00     0.046 C 
HETATM    2  C2  UNL     1      22.142   0.588  52.092  1.00  0.00    -0.056 C 
HETATM    3  C3  UNL     1      21.443   0.723  50.899  1.00  0.00    -0.003 C 
HETATM    4  C4  UNL     1      21.718   1.075  49.456  1.00  0.00     0.144 C 
HETATM    5  N1  UNL     1      21.130   2.408  49.131  1.00  0.00    -0.391 N 
HETATM    6  C5  UNL     1      21.723   3.063  50.403  1.00  0.00     0.170 A 
HETATM    7  N2  UNL     1      20.591   3.193  50.868  1.00  0.00    -0.206 NA
HETATM    8  C6  UNL     1      19.857   3.225  51.960  1.00  0.00     0.226 A 
HETATM    9  N3  UNL     1      21.187   3.003  52.346  1.00  0.00    -0.254 NA
HETATM   10  C7  UNL     1      22.139   2.937  51.451  1.00  0.00     0.215 A 
HETATM   11  C8  UNL     1      23.127   2.870  50.495  1.00  0.00     0.110 A 
HETATM   12  C9  UNL     1      23.317   3.195  49.128  1.00  0.00     0.019 C 
HETATM   13  C10 UNL     1      24.570   3.347  49.501  1.00  0.00     0.131 C 
HETATM   14  O1  UNL     1      25.204   3.204  50.694  1.00  0.00    -0.362 OA
HETATM   15  C11 UNL     1      26.495   2.735  50.923  1.00  0.00     0.193 C 
HETATM   16  C12 UNL     1      26.454   1.352  51.605  1.00  0.00     0.143 C 
HETATM   17  N4  UNL     1      25.759   1.376  52.812  1.00  0.00    -0.412 N 
HETATM   18  C13 UNL     1      26.228   2.058  53.930  1.00  0.00     0.143 C 
HETATM   19  C14 UNL     1      24.555   0.595  52.928  1.00  0.00     0.153 C 
HETATM   20  C15 UNL     1      23.567   1.129  52.052  1.00  0.00     0.172 C 
HETATM   21  O2  UNL     1      23.305   2.564  52.314  1.00  0.00    -0.336 OA
HETATM   22  H7  UNL     1      20.568   2.505  48.264  1.00  0.00     0.155 HD
ENDROOT
TORSDOF 0
ENDMDL
MODEL 3
REMARK VINA RESULT:      -7.1      1.623      4.990
REMARK  0 active torsions:
REMARK  status: ('A' for Active; 'I' for Inactive)
ROOT
HETATM    1  C1  UNL     1      21.525   1.142  52.897  1.00  0.00     0.046 C 
HETATM    2  C2  UNL     1      22.510   1.435  51.846  1.00  0.00    -0.056 C 
HETATM    3  C3  UNL     1      22.510   2.148  50.654  1.00  0.00    -0.003 C 
HETATM    4  C4  UNL     1      23.465   2.482  49.533  1.00  0.00     0.144 C 
HETATM    5  N1  UNL     1      23.825   3.930  49.578  1.00  0.00    -0.391 N 
HETATM    6  C5  UNL     1      24.118   3.885  51.099  1.00  0.00     0.170 A 
HETATM    7  N2  UNL     1      23.138   4.598  51.312  1.00  0.00    -0.206 NA
HETATM    8  C6  UNL     1      22.167   4.897  52.148  1.00  0.00     0.226 A 
HETATM    9  N3  UNL     1      22.919   3.859  52.720  1.00  0.00    -0.254 NA
HETATM   10  C7  UNL     1      23.962   3.372  52.098  1.00  0.00     0.215 A 
HETATM   11  C8  UNL     1      25.057   2.872  51.430  1.00  0.00     0.110 A 
HETATM   12  C9  UNL     1      25.902   3.225  50.347  1.00  0.00     0.019 C 
HETATM   13  C10 UNL     1      26.793   2.528  51.022  1.00  0.00     0.131 C 
HETATM   14  O1  UNL     1      26.738   1.847  52.196  1.00  0.00    -0.362 OA
HETATM   15  C11 UNL     1      27.395   0.665  52.528  1.00  0.00     0.193 C 
HETATM   16  C12 UNL     1      26.388  -0.497  52.647  1.00  0.00     0.143 C 
HETATM   17  N4  UNL     1      25.399  -0.246  53.594  1.00  0.00    -0.412 N 
HETATM   18  C13 UNL     1      25.670  -0.171  54.955  1.00  0.00     0.143 C 
HETATM   19  C14 UNL     1      24.032  -0.148  53.150  1.00  0.00     0.153 C 
HETATM   20  C15 UNL     1      23.892   1.003  52.323  1.00  0.00     0.172 C 
HETATM   21  O2  UNL     1      24.325   2.242  53.011  1.00  0.00    -0.336 OA
HETATM   22  H7  UNL     1      23.784   4.481  48.699  1.00  0.00     0.155 HD
ENDROOT
TORSDOF 0
ENDMDL
MODEL 4
REMARK VINA RESULT:      -7.0      1.768      5.042
REMARK  0 active torsions:
REMARK  status: ('A' for Active; 'I' for Inactive)
ROOT
HETATM    1  C1  UNL     1      22.527   4.267  50.832  1.00  0.00     0.046 C 
HETATM    2  C2  UNL     1      22.168   3.214  51.791  1.00  0.00    -0.056 C 
HETATM    3  C3  UNL     1      20.988   2.614  52.212  1.00  0.00    -0.003 C 
HETATM    4  C4  UNL     1      20.543   1.547  53.185  1.00  0.00     0.144 C 
HETATM    5  N1  UNL     1      20.061   0.344  52.444  1.00  0.00    -0.391 N 
HETATM    6  C5  UNL     1      21.300   0.329  51.514  1.00  0.00     0.170 A 
HETATM    7  N2  UNL     1      20.587   0.632  50.556  1.00  0.00    -0.206 NA
HETATM    8  C6  UNL     1      20.517   1.268  49.406  1.00  0.00     0.226 A 
HETATM    9  N3  UNL     1      21.815   1.439  49.911  1.00  0.00    -0.254 NA
HETATM   10  C7  UNL     1      22.165   0.895  51.048  1.00  0.00     0.215 A 
HETATM   11  C8  UNL     1      22.515   0.316  52.247  1.00  0.00     0.110 A 
HETATM   12  C9  UNL     1      22.031  -0.676  53.138  1.00  0.00     0.019 C 
HETATM   13  C10 UNL     1      23.308  -0.817  53.424  1.00  0.00     0.131 C 
HETATM   14  O1  UNL     1      24.431  -0.199  52.974  1.00  0.00    -0.362 OA
HETATM   15  C11 UNL     1      25.583   0.109  53.694  1.00  0.00     0.193 C 
HETATM   16  C12 UNL     1      25.702   1.634  53.896  1.00  0.00     0.143 C 
HETATM   17  N4  UNL     1      25.722   2.327  52.689  1.00  0.00    -0.412 N 
HETATM   18  C13 UNL     1      26.780   2.233  51.791  1.00  0.00     0.143 C 
HETATM   19  C14 UNL     1      24.647   3.242  52.403  1.00  0.00     0.153 C 
HETATM   20  C15 UNL     1      23.436   2.507  52.255  1.00  0.00     0.172 C 
HETATM   21  O2  UNL     1      23.543   1.459  51.212  1.00  0.00    -0.336 OA
HETATM   22  H7  UNL     1      19.157  -0.083  52.724  1.00  0.00     0.155 HD
ENDROOT
TORSDOF 0
ENDMDL
MODEL 5
REMARK VINA RESULT:      -6.8      2.300      5.355
REMARK  0 active torsions:
REMARK  status: ('A' for Active; 'I' for Inactive)
ROOT
HETATM    1  C1  UNL     1      19.879   0.108  51.599  1.00  0.00     0.046 C 
HETATM    2  C2  UNL     1      21.135   0.705  51.127  1.00  0.00    -0.056 C 
HETATM    3  C3  UNL     1      21.496   1.604  50.131  1.00  0.00    -0.003 C 
HETATM    4  C4  UNL     1      22.747   2.251  49.587  1.00  0.00     0.144 C 
HETATM    5  N1  UNL     1      22.763   3.705  49.922  1.00  0.00    -0.391 N 
HETATM    6  C5  UNL     1      22.392   3.443  51.403  1.00  0.00     0.170 A 
HETATM    7  N2  UNL     1      21.294   3.969  51.224  1.00  0.00    -0.206 NA
HETATM    8  C6  UNL     1      20.023   3.987  51.567  1.00  0.00     0.226 A 
HETATM    9  N3  UNL     1      20.653   2.979  52.313  1.00  0.00    -0.254 NA
HETATM   10  C7  UNL     1      21.934   2.751  52.177  1.00  0.00     0.215 A 
HETATM   11  C8  UNL     1      23.283   2.526  52.020  1.00  0.00     0.110 A 
HETATM   12  C9  UNL     1      24.418   3.169  51.463  1.00  0.00     0.019 C 
HETATM   13  C10 UNL     1      25.060   2.496  52.395  1.00  0.00     0.131 C 
HETATM   14  O1  UNL     1      24.652   1.624  53.354  1.00  0.00    -0.362 OA
HETATM   15  C11 UNL     1      25.327   0.504  53.832  1.00  0.00     0.193 C 
HETATM   16  C12 UNL     1      24.613  -0.788  53.382  1.00  0.00     0.143 C 
HETATM   17  N4  UNL     1      23.290  -0.839  53.810  1.00  0.00    -0.412 N 
HETATM   18  C13 UNL     1      22.942  -0.960  55.151  1.00  0.00     0.143 C 
HETATM   19  C14 UNL     1      22.246  -0.853  52.817  1.00  0.00     0.153 C 
HETATM   20  C15 UNL     1      22.243   0.391  52.125  1.00  0.00     0.172 C 
HETATM   21  O2  UNL     1      22.094   1.542  53.046  1.00  0.00    -0.336 OA
HETATM   22  H7  UNL     1      22.988   4.386  49.171  1.00  0.00     0.155 HD
ENDROOT
TORSDOF 0
ENDMDL
MODEL 6
REMARK VINA RESULT:      -6.6      2.513      4.361
REMARK  0 active torsions:
REMARK  status: ('A' for Active; 'I' for Inactive)
ROOT
HETATM    1  C1  UNL     1      20.604   2.588  50.021  1.00  0.00     0.046 C 
HETATM    2  C2  UNL     1      22.033   2.386  50.296  1.00  0.00    -0.056 C 
HETATM    3  C3  UNL     1      23.214   3.017  49.929  1.00  0.00    -0.003 C 
HETATM    4  C4  UNL     1      24.699   2.866  50.160  1.00  0.00     0.144 C 
HETATM    5  N1  UNL     1      25.202   3.978  51.020  1.00  0.00    -0.391 N 
HETATM    6  C5  UNL     1      24.054   3.801  52.046  1.00  0.00     0.170 A 
HETATM    7  N2  UNL     1      23.585   4.890  51.713  1.00  0.00    -0.206 NA
HETATM    8  C6  UNL     1      22.493   5.607  51.564  1.00  0.00     0.226 A 
HETATM    9  N3  UNL     1      22.111   4.339  52.025  1.00  0.00    -0.254 NA
HETATM   10  C7  UNL     1      23.010   3.420  52.271  1.00  0.00     0.215 A 
HETATM   11  C8  UNL     1      23.970   2.467  52.525  1.00  0.00     0.110 A 
HETATM   12  C9  UNL     1      25.374   2.384  52.703  1.00  0.00     0.019 C 
HETATM   13  C10 UNL     1      25.058   1.352  53.457  1.00  0.00     0.131 C 
HETATM   14  O1  UNL     1      23.873   0.776  53.787  1.00  0.00    -0.362 OA
HETATM   15  C11 UNL     1      23.610  -0.577  53.992  1.00  0.00     0.193 C 
HETATM   16  C12 UNL     1      22.732  -1.134  52.852  1.00  0.00     0.143 C 
HETATM   17  N4  UNL     1      21.526  -0.450  52.730  1.00  0.00    -0.412 N 
HETATM   18  C13 UNL     1      20.531  -0.510  53.701  1.00  0.00     0.143 C 
HETATM   19  C14 UNL     1      21.267   0.276  51.513  1.00  0.00     0.153 C 
HETATM   20  C15 UNL     1      22.186   1.358  51.411  1.00  0.00     0.172 C 
HETATM   21  O2  UNL     1      22.130   2.252  52.593  1.00  0.00    -0.336 OA
HETATM   22  H7  UNL     1      26.060   4.484  50.728  1.00  0.00     0.155 HD
ENDROOT
TORSDOF 0
ENDMDL
MODEL 7
REMARK VINA RESULT:      -6.6      9.857     12.228
REMARK  0 active torsions:
REMARK  status: ('A' for Active; 'I' for Inactive)
ROOT
HETATM    1  C1  UNL     1      32.836   9.287  47.147  1.00  0.00     0.046 C 
HETATM    2  C2  UNL     1      33.761   8.153  47.277  1.00  0.00    -0.056 C 
HETATM    3  C3  UNL     1      34.430   7.531  48.323  1.00  0.00    -0.003 C 
HETATM    4  C4  UNL     1      35.389   6.383  48.533  1.00  0.00     0.144 C 
HETATM    5  N1  UNL     1      34.704   5.262  49.240  1.00  0.00    -0.391 N 
HETATM    6  C5  UNL     1      33.477   5.318  48.295  1.00  0.00     0.170 A 
HETATM    7  N2  UNL     1      32.776   5.718  49.224  1.00  0.00    -0.206 NA
HETATM    8  C6  UNL     1      31.747   6.460  49.574  1.00  0.00     0.226 A 
HETATM    9  N3  UNL     1      31.898   6.567  48.183  1.00  0.00    -0.254 NA
HETATM   10  C7  UNL     1      32.848   5.915  47.563  1.00  0.00     0.215 A 
HETATM   11  C8  UNL     1      33.854   5.221  46.929  1.00  0.00     0.110 A 
HETATM   12  C9  UNL     1      34.752   4.156  47.195  1.00  0.00     0.019 C 
HETATM   13  C10 UNL     1      34.671   3.972  45.894  1.00  0.00     0.131 C 
HETATM   14  O1  UNL     1      33.992   4.616  44.910  1.00  0.00    -0.362 OA
HETATM   15  C11 UNL     1      34.401   4.840  43.597  1.00  0.00     0.193 C 
HETATM   16  C12 UNL     1      34.695   6.338  43.372  1.00  0.00     0.143 C 
HETATM   17  N4  UNL     1      33.592   7.141  43.648  1.00  0.00    -0.412 N 
HETATM   18  C13 UNL     1      32.439   7.118  42.871  1.00  0.00     0.143 C 
HETATM   19  C14 UNL     1      33.686   8.093  44.725  1.00  0.00     0.153 C 
HETATM   20  C15 UNL     1      33.805   7.390  45.958  1.00  0.00     0.172 C 
HETATM   21  O2  UNL     1      32.684   6.443  46.172  1.00  0.00    -0.336 OA
HETATM   22  H7  UNL     1      35.178   4.821  50.051  1.00  0.00     0.155 HD
ENDROOT
TORSDOF 0
ENDMDL
MODEL 8
REMARK VINA RESULT:      -6.6      2.633      5.131
REMARK  0 active torsions:
REMARK  status: ('A' for Active; 'I' for Inactive)
ROOT
HETATM    1  C1  UNL     1      21.502   4.663  51.964  1.00  0.00     0.046 C 
HETATM    2  C2  UNL     1      22.881   4.205  52.181  1.00  0.00    -0.056 C 
HETATM    3  C3  UNL     1      23.503   3.276  53.005  1.00  0.00    -0.003 C 
HETATM    4  C4  UNL     1      24.895   2.762  53.287  1.00  0.00     0.144 C 
HETATM    5  N1  UNL     1      25.038   1.362  52.789  1.00  0.00    -0.391 N 
HETATM    6  C5  UNL     1      24.410   1.710  51.415  1.00  0.00     0.170 A 
HETATM    7  N2  UNL     1      23.427   1.020  51.687  1.00  0.00    -0.206 NA
HETATM    8  C6  UNL     1      22.131   0.857  51.530  1.00  0.00     0.226 A 
HETATM    9  N3  UNL     1      22.506   2.009  50.822  1.00  0.00    -0.254 NA
HETATM   10  C7  UNL     1      23.754   2.401  50.800  1.00  0.00     0.215 A 
HETATM   11  C8  UNL     1      25.072   2.797  50.787  1.00  0.00     0.110 A 
HETATM   12  C9  UNL     1      26.351   2.269  51.098  1.00  0.00     0.019 C 
HETATM   13  C10 UNL     1      26.751   3.111  50.169  1.00  0.00     0.131 C 
HETATM   14  O1  UNL     1      26.092   4.004  49.384  1.00  0.00    -0.362 OA
HETATM   15  C11 UNL     1      26.539   5.248  48.947  1.00  0.00     0.193 C 
HETATM   16  C12 UNL     1      25.750   6.379  49.639  1.00  0.00     0.143 C 
HETATM   17  N4  UNL     1      24.380   6.284  49.413  1.00  0.00    -0.412 N 
HETATM   18  C13 UNL     1      23.815   6.482  48.158  1.00  0.00     0.143 C 
HETATM   19  C14 UNL     1      23.511   6.058  50.540  1.00  0.00     0.153 C 
HETATM   20  C15 UNL     1      23.772   4.765  51.077  1.00  0.00     0.172 C 
HETATM   21  O2  UNL     1      23.624   3.697  50.061  1.00  0.00    -0.336 OA
HETATM   22  H7  UNL     1      25.460   0.652  53.416  1.00  0.00     0.155 HD
ENDROOT
TORSDOF 0
ENDMDL
MODEL 9
REMARK VINA RESULT:      -6.4      3.496      5.949
REMARK  0 active torsions:
REMARK  status: ('A' for Active; 'I' for Inactive)
ROOT
HETATM    1  C1  UNL     1      26.213   3.242  49.626  1.00  0.00     0.046 C 
HETATM    2  C2  UNL     1      24.788   3.592  49.546  1.00  0.00    -0.056 C 
HETATM    3  C3  UNL     1      23.588   2.896  49.621  1.00  0.00    -0.003 C 
HETATM    4  C4  UNL     1      22.106   3.179  49.541  1.00  0.00     0.144 C 
HETATM    5  N1  UNL     1      21.476   3.004  50.883  1.00  0.00    -0.391 N 
HETATM    6  C5  UNL     1      22.571   3.844  51.588  1.00  0.00     0.170 A 
HETATM    7  N2  UNL     1      22.979   2.834  52.162  1.00  0.00    -0.206 NA
HETATM    8  C6  UNL     1      24.025   2.211  52.662  1.00  0.00     0.226 A 
HETATM    9  N3  UNL     1      24.468   3.432  52.131  1.00  0.00    -0.254 NA
HETATM   10  C7  UNL     1      23.624   4.263  51.576  1.00  0.00     0.215 A 
HETATM   11  C8  UNL     1      22.722   5.126  50.996  1.00  0.00     0.110 A 
HETATM   12  C9  UNL     1      21.318   5.323  50.934  1.00  0.00     0.019 C 
HETATM   13  C10 UNL     1      21.662   6.583  50.769  1.00  0.00     0.131 C 
HETATM   14  O1  UNL     1      22.864   7.214  50.707  1.00  0.00    -0.362 OA
HETATM   15  C11 UNL     1      23.211   8.313  49.926  1.00  0.00     0.193 C 
HETATM   16  C12 UNL     1      24.192   7.895  48.811  1.00  0.00     0.143 C 
HETATM   17  N4  UNL     1      25.352   7.314  49.317  1.00  0.00    -0.412 N 
HETATM   18  C13 UNL     1      26.288   8.033  50.051  1.00  0.00     0.143 C 
HETATM   19  C14 UNL     1      25.630   5.938  48.993  1.00  0.00     0.153 C 
HETATM   20  C15 UNL     1      24.643   5.108  49.597  1.00  0.00     0.172 C 
HETATM   21  O2  UNL     1      24.565   5.310  51.063  1.00  0.00    -0.336 OA
HETATM   22  H7  UNL     1      20.603   2.448  50.953  1.00  0.00     0.155 HD
ENDROOT
TORSDOF 0
ENDMDL
