MODEL 1
REMARK VINA RESULT:     -10.2      0.000      0.000
REMARK  3 active torsions:
REMARK  status: ('A' for Active; 'I' for Inactive)
REMARK    1  A    between atoms: C5_5  and  N1_6 
REMARK    2  A    between atoms: N2_11  and  C10_12 
REMARK    3  A    between atoms: C10_12  and  C11_13 
ROOT
HETATM    1  N1  UNL     1      23.081   8.054  49.136  1.00  0.00    -0.405 N 
HETATM    2  C6  UNL     1      23.430   8.125  50.509  1.00  0.00     0.118 C 
HETATM    3  C7  UNL     1      24.631   7.224  50.692  1.00  0.00     0.037 C 
HETATM    4  C8  UNL     1      24.648   6.319  49.477  1.00  0.00     0.021 C 
HETATM    5  C9  UNL     1      24.015   4.977  49.774  1.00  0.00     0.137 C 
HETATM    6  N2  UNL     1      25.001   4.124  50.356  1.00  0.00    -0.184 NA
HETATM    7  O1  UNL     1      25.981   3.809  49.479  1.00  0.00    -0.261 OA
HETATM    8  C18 UNL     1      26.738   4.873  49.003  1.00  0.00     0.099 A 
HETATM    9  C19 UNL     1      28.027   4.818  48.551  1.00  0.00     0.039 A 
HETATM   10  C20 UNL     1      28.705   5.929  48.093  1.00  0.00     0.003 A 
HETATM   11  C21 UNL     1      28.014   7.127  48.113  1.00  0.00     0.001 A 
HETATM   12  C22 UNL     1      26.713   7.213  48.563  1.00  0.00     0.011 A 
HETATM   13  C23 UNL     1      26.052   6.069  49.021  1.00  0.00    -0.011 A 
HETATM   14  C24 UNL     1      23.848   7.070  48.469  1.00  0.00     0.133 C 
ENDROOT
BRANCH   6  15
HETATM   15  C10 UNL     1      24.505   3.067  51.146  1.00  0.00     0.177 C 
BRANCH  15  16
HETATM   16  C11 UNL     1      25.558   2.152  51.708  1.00  0.00     0.022 C 
HETATM   17  C12 UNL     1      25.329   0.865  52.074  1.00  0.00     0.036 C 
HETATM   18  C13 UNL     1      26.582   0.298  52.567  1.00  0.00    -0.023 C 
HETATM   19  C14 UNL     1      26.977  -0.960  52.565  1.00  0.00     0.013 C 
HETATM   20  C17 UNL     1      27.166   1.569  53.095  1.00  0.00     0.184 C 
HETATM   21  C15 UNL     1      28.262  -1.407  53.079  1.00  0.00     0.050 C 
HETATM   22  C16 UNL     1      29.078  -0.494  53.567  1.00  0.00     0.155 C 
HETATM   23  F1  UNL     1      30.312  -0.654  54.102  1.00  0.00    -0.198 F 
HETATM   24  S1  UNL     1      28.842   1.274  53.605  1.00  0.00    -0.070 SA
HETATM   25  N3  UNL     1      26.961   2.433  51.974  1.00  0.00    -0.374 N 
HETATM   26  H22 UNL     1      27.472   3.114  51.379  1.00  0.00     0.161 HD
ENDBRANCH  15  16
ENDBRANCH   6  15
BRANCH   1  27
HETATM   27  C5  UNL     1      21.703   8.147  48.811  1.00  0.00     0.107 C 
HETATM   28  C4  UNL     1      21.365   9.563  48.394  1.00  0.00     0.029 C 
HETATM   29  C3  UNL     1      19.948   9.657  47.883  1.00  0.00     0.037 C 
HETATM   30  C2  UNL     1      19.001   9.036  48.853  1.00  0.00     0.216 C 
HETATM   31  C1  UNL     1      18.588  10.050  49.908  1.00  0.00     0.042 C 
HETATM   32  N4  UNL     1      19.399   7.776  49.390  1.00  0.00     0.089 N 
HETATM   33  C25 UNL     1      20.749   7.692  49.863  1.00  0.00     0.294 C 
HETATM   34  H31 UNL     1      18.765   7.573  50.207  1.00  0.00     0.316 HD
ENDBRANCH   1  27
TORSDOF 3
ENDMDL
MODEL 2
REMARK VINA RESULT:     -10.1      3.682      8.401
REMARK  3 active torsions:
REMARK  status: ('A' for Active; 'I' for Inactive)
REMARK    1  A    between atoms: C5_5  and  N1_6 
REMARK    2  A    between atoms: N2_11  and  C10_12 
REMARK    3  A    between atoms: C10_12  and  C11_13 
ROOT
HETATM    1  N1  UNL     1      25.014   2.062  52.975  1.00  0.00    -0.405 N 
HETATM    2  C6  UNL     1      24.076   2.992  53.489  1.00  0.00     0.118 C 
HETATM    3  C7  UNL     1      23.319   3.539  52.299  1.00  0.00     0.037 C 
HETATM    4  C8  UNL     1      24.173   3.212  51.092  1.00  0.00     0.021 C 
HETATM    5  C9  UNL     1      25.018   4.395  50.673  1.00  0.00     0.137 C 
HETATM    6  N2  UNL     1      24.239   5.240  49.826  1.00  0.00    -0.184 NA
HETATM    7  O1  UNL     1      23.945   4.646  48.648  1.00  0.00    -0.261 OA
HETATM    8  C18 UNL     1      23.175   3.490  48.723  1.00  0.00     0.099 A 
HETATM    9  C19 UNL     1      22.345   3.001  47.753  1.00  0.00     0.039 A 
HETATM   10  C20 UNL     1      21.615   1.841  47.913  1.00  0.00     0.003 A 
HETATM   11  C21 UNL     1      21.760   1.181  49.119  1.00  0.00     0.001 A 
HETATM   12  C22 UNL     1      22.589   1.651  50.115  1.00  0.00     0.011 A 
HETATM   13  C23 UNL     1      23.317   2.829  49.924  1.00  0.00    -0.011 A 
HETATM   14  C24 UNL     1      25.030   2.088  51.561  1.00  0.00     0.133 C 
ENDROOT
BRANCH   6  15
HETATM   15  C10 UNL     1      24.649   6.587  49.762  1.00  0.00     0.177 C 
BRANCH  15  16
HETATM   16  C11 UNL     1      25.929   6.822  49.007  1.00  0.00     0.022 C 
HETATM   17  C12 UNL     1      25.985   7.295  47.736  1.00  0.00     0.036 C 
HETATM   18  C13 UNL     1      27.389   7.394  47.345  1.00  0.00    -0.023 C 
HETATM   19  C14 UNL     1      27.948   8.207  46.471  1.00  0.00     0.013 C 
HETATM   20  C17 UNL     1      27.898   6.269  48.189  1.00  0.00     0.184 C 
HETATM   21  C15 UNL     1      29.371   8.221  46.169  1.00  0.00     0.050 C 
HETATM   22  C16 UNL     1      30.142   7.372  46.819  1.00  0.00     0.155 C 
HETATM   23  F1  UNL     1      31.480   7.187  46.716  1.00  0.00    -0.198 F 
HETATM   24  S1  UNL     1      29.672   6.237  48.113  1.00  0.00    -0.070 SA
HETATM   25  N3  UNL     1      27.299   6.599  49.445  1.00  0.00    -0.374 N 
HETATM   26  H22 UNL     1      27.543   6.707  50.449  1.00  0.00     0.161 HD
ENDBRANCH  15  16
ENDBRANCH   6  15
BRANCH   1  27
HETATM   27  C5  UNL     1      26.261   1.958  53.646  1.00  0.00     0.107 C 
HETATM   28  C4  UNL     1      27.393   2.220  52.676  1.00  0.00     0.029 C 
HETATM   29  C3  UNL     1      28.720   2.280  53.392  1.00  0.00     0.037 C 
HETATM   30  C2  UNL     1      28.896   1.088  54.268  1.00  0.00     0.216 C 
HETATM   31  C1  UNL     1      29.485  -0.067  53.474  1.00  0.00     0.042 C 
HETATM   32  N4  UNL     1      27.765   0.725  55.059  1.00  0.00     0.089 N 
HETATM   33  C25 UNL     1      26.508   0.680  54.374  1.00  0.00     0.294 C 
HETATM   34  H31 UNL     1      27.951  -0.239  55.442  1.00  0.00     0.316 HD
ENDBRANCH   1  27
TORSDOF 3
ENDMDL
MODEL 3
REMARK VINA RESULT:     -10.0      5.100      7.219
REMARK  3 active torsions:
REMARK  status: ('A' for Active; 'I' for Inactive)
REMARK    1  A    between atoms: C5_5  and  N1_6 
REMARK    2  A    between atoms: N2_11  and  C10_12 
REMARK    3  A    between atoms: C10_12  and  C11_13 
ROOT
HETATM    1  N1  UNL     1      24.494   2.709  51.010  1.00  0.00    -0.405 N 
HETATM    2  C6  UNL     1      23.896   3.284  52.159  1.00  0.00     0.118 C 
HETATM    3  C7  UNL     1      24.603   2.683  53.354  1.00  0.00     0.037 C 
HETATM    4  C8  UNL     1      25.292   1.438  52.833  1.00  0.00     0.021 C 
HETATM    5  C9  UNL     1      24.477   0.194  53.112  1.00  0.00     0.137 C 
HETATM    6  N2  UNL     1      24.771  -0.262  54.432  1.00  0.00    -0.184 NA
HETATM    7  O1  UNL     1      26.044  -0.702  54.546  1.00  0.00    -0.261 OA
HETATM    8  C18 UNL     1      27.038   0.242  54.318  1.00  0.00     0.099 A 
HETATM    9  C19 UNL     1      28.306   0.230  54.830  1.00  0.00     0.039 A 
HETATM   10  C20 UNL     1      29.233   1.213  54.550  1.00  0.00     0.003 A 
HETATM   11  C21 UNL     1      28.819   2.232  53.712  1.00  0.00     0.001 A 
HETATM   12  C22 UNL     1      27.547   2.271  53.181  1.00  0.00     0.011 A 
HETATM   13  C23 UNL     1      26.629   1.261  53.483  1.00  0.00    -0.011 A 
HETATM   14  C24 UNL     1      25.400   1.684  51.368  1.00  0.00     0.133 C 
ENDROOT
BRANCH   6  15
HETATM   15  C10 UNL     1      23.777  -1.056  55.040  1.00  0.00     0.177 C 
BRANCH  15  16
HETATM   16  C11 UNL     1      22.398  -0.894  54.460  1.00  0.00     0.022 C 
HETATM   17  C12 UNL     1      21.540  -1.923  54.245  1.00  0.00     0.036 C 
HETATM   18  C13 UNL     1      20.307  -1.381  53.679  1.00  0.00    -0.023 C 
HETATM   19  C14 UNL     1      19.081  -1.860  53.760  1.00  0.00     0.013 C 
HETATM   20  C17 UNL     1      20.921  -0.214  52.975  1.00  0.00     0.184 C 
HETATM   21  C15 UNL     1      17.920  -1.222  53.159  1.00  0.00     0.050 C 
HETATM   22  C16 UNL     1      18.112  -0.094  52.505  1.00  0.00     0.155 C 
HETATM   23  F1  UNL     1      17.206   0.681  51.861  1.00  0.00    -0.198 F 
HETATM   24  S1  UNL     1      19.633   0.820  52.324  1.00  0.00    -0.070 SA
HETATM   25  N3  UNL     1      21.731   0.324  54.024  1.00  0.00    -0.374 N 
HETATM   26  H22 UNL     1      21.943   1.224  54.495  1.00  0.00     0.161 HD
ENDBRANCH  15  16
ENDBRANCH   6  15
BRANCH   1  27
HETATM   27  C5  UNL     1      23.656   2.484  49.886  1.00  0.00     0.107 C 
HETATM   28  C4  UNL     1      23.201   3.807  49.308  1.00  0.00     0.029 C 
HETATM   29  C3  UNL     1      22.447   3.606  48.016  1.00  0.00     0.037 C 
HETATM   30  C2  UNL     1      21.375   2.586  48.191  1.00  0.00     0.216 C 
HETATM   31  C1  UNL     1      20.107   3.239  48.719  1.00  0.00     0.042 C 
HETATM   32  N4  UNL     1      21.751   1.404  48.896  1.00  0.00     0.089 N 
HETATM   33  C25 UNL     1      22.475   1.603  50.115  1.00  0.00     0.294 C 
HETATM   34  H31 UNL     1      20.862   0.891  49.137  1.00  0.00     0.316 HD
ENDBRANCH   1  27
TORSDOF 3
ENDMDL
MODEL 4
REMARK VINA RESULT:     -10.0      4.426      7.082
REMARK  3 active torsions:
REMARK  status: ('A' for Active; 'I' for Inactive)
REMARK    1  A    between atoms: C5_5  and  N1_6 
REMARK    2  A    between atoms: N2_11  and  C10_12 
REMARK    3  A    between atoms: C10_12  and  C11_13 
ROOT
HETATM    1  N1  UNL     1      21.166   3.019  51.315  1.00  0.00    -0.405 N 
HETATM    2  C6  UNL     1      21.867   2.068  50.531  1.00  0.00     0.118 C 
HETATM    3  C7  UNL     1      21.388   0.706  50.981  1.00  0.00     0.037 C 
HETATM    4  C8  UNL     1      20.742   0.930  52.333  1.00  0.00     0.021 C 
HETATM    5  C9  UNL     1      21.691   0.600  53.464  1.00  0.00     0.137 C 
HETATM    6  N2  UNL     1      21.624  -0.802  53.726  1.00  0.00    -0.184 NA
HETATM    7  O1  UNL     1      20.422  -1.168  54.222  1.00  0.00    -0.261 OA
HETATM    8  C18 UNL     1      19.328  -0.958  53.390  1.00  0.00     0.099 A 
HETATM    9  C19 UNL     1      18.150  -1.653  53.402  1.00  0.00     0.039 A 
HETATM   10  C20 UNL     1      17.113  -1.375  52.536  1.00  0.00     0.003 A 
HETATM   11  C21 UNL     1      17.318  -0.346  51.635  1.00  0.00     0.001 A 
HETATM   12  C22 UNL     1      18.495   0.371  51.600  1.00  0.00     0.011 A 
HETATM   13  C23 UNL     1      19.528   0.068  52.491  1.00  0.00    -0.011 A 
HETATM   14  C24 UNL     1      20.410   2.382  52.326  1.00  0.00     0.133 C 
ENDROOT
BRANCH   6  15
HETATM   15  C10 UNL     1      22.757  -1.361  54.351  1.00  0.00     0.177 C 
BRANCH  15  16
HETATM   16  C11 UNL     1      24.047  -0.633  54.087  1.00  0.00     0.022 C 
HETATM   17  C12 UNL     1      24.374  -0.078  52.893  1.00  0.00     0.036 C 
HETATM   18  C13 UNL     1      25.692   0.540  53.020  1.00  0.00    -0.023 C 
HETATM   19  C14 UNL     1      26.193   1.561  52.353  1.00  0.00     0.013 C 
HETATM   20  C17 UNL     1      26.235  -0.391  54.056  1.00  0.00     0.184 C 
HETATM   21  C15 UNL     1      27.526   2.100  52.576  1.00  0.00     0.050 C 
HETATM   22  C16 UNL     1      28.267   1.533  53.508  1.00  0.00     0.155 C 
HETATM   23  F1  UNL     1      29.527   1.843  53.897  1.00  0.00    -0.198 F 
HETATM   24  S1  UNL     1      27.809   0.213  54.616  1.00  0.00    -0.070 SA
HETATM   25  N3  UNL     1      25.157  -0.389  54.996  1.00  0.00    -0.374 N 
HETATM   26  H22 UNL     1      24.976  -0.276  56.012  1.00  0.00     0.161 HD
ENDBRANCH  15  16
ENDBRANCH   6  15
BRANCH   1  27
HETATM   27  C5  UNL     1      21.855   4.211  51.659  1.00  0.00     0.107 C 
HETATM   28  C4  UNL     1      21.894   5.147  50.470  1.00  0.00     0.029 C 
HETATM   29  C3  UNL     1      22.472   6.488  50.851  1.00  0.00     0.037 C 
HETATM   30  C2  UNL     1      23.768   6.314  51.566  1.00  0.00     0.216 C 
HETATM   31  C1  UNL     1      24.910   6.212  50.568  1.00  0.00     0.042 C 
HETATM   32  N4  UNL     1      23.791   5.304  52.574  1.00  0.00     0.089 N 
HETATM   33  C25 UNL     1      23.231   4.038  52.207  1.00  0.00     0.294 C 
HETATM   34  H31 UNL     1      24.801   5.142  52.826  1.00  0.00     0.316 HD
ENDBRANCH   1  27
TORSDOF 3
ENDMDL
MODEL 5
REMARK VINA RESULT:      -9.8      2.608      3.162
REMARK  3 active torsions:
REMARK  status: ('A' for Active; 'I' for Inactive)
REMARK    1  A    between atoms: C5_5  and  N1_6 
REMARK    2  A    between atoms: N2_11  and  C10_12 
REMARK    3  A    between atoms: C10_12  and  C11_13 
ROOT
HETATM    1  N1  UNL     1      21.301   5.184  48.792  1.00  0.00    -0.405 N 
HETATM    2  C6  UNL     1      21.370   5.713  50.105  1.00  0.00     0.118 C 
HETATM    3  C7  UNL     1      22.783   5.471  50.589  1.00  0.00     0.037 C 
HETATM    4  C8  UNL     1      23.347   4.403  49.676  1.00  0.00     0.021 C 
HETATM    5  C9  UNL     1      23.254   3.029  50.304  1.00  0.00     0.137 C 
HETATM    6  N2  UNL     1      24.390   2.831  51.146  1.00  0.00    -0.184 NA
HETATM    7  O1  UNL     1      25.540   2.765  50.440  1.00  0.00    -0.261 OA
HETATM    8  C18 UNL     1      25.884   3.906  49.724  1.00  0.00     0.099 A 
HETATM    9  C19 UNL     1      27.145   4.295  49.368  1.00  0.00     0.039 A 
HETATM   10  C20 UNL     1      27.395   5.448  48.653  1.00  0.00     0.003 A 
HETATM   11  C21 UNL     1      26.296   6.211  48.305  1.00  0.00     0.001 A 
HETATM   12  C22 UNL     1      25.012   5.844  48.651  1.00  0.00     0.011 A 
HETATM   13  C23 UNL     1      24.790   4.669  49.375  1.00  0.00    -0.011 A 
HETATM   14  C24 UNL     1      22.488   4.490  48.462  1.00  0.00     0.133 C 
ENDROOT
BRANCH   6  15
HETATM   15  C10 UNL     1      24.230   1.880  52.174  1.00  0.00     0.177 C 
BRANCH  15  16
HETATM   16  C11 UNL     1      25.468   1.088  52.499  1.00  0.00     0.022 C 
HETATM   17  C12 UNL     1      25.476  -0.251  52.720  1.00  0.00     0.036 C 
HETATM   18  C13 UNL     1      26.849  -0.661  53.000  1.00  0.00    -0.023 C 
HETATM   19  C14 UNL     1      27.419  -1.833  52.795  1.00  0.00     0.013 C 
HETATM   20  C17 UNL     1      27.305   0.621  53.618  1.00  0.00     0.184 C 
HETATM   21  C15 UNL     1      28.810  -2.123  53.106  1.00  0.00     0.050 C 
HETATM   22  C16 UNL     1      29.540  -1.150  53.615  1.00  0.00     0.155 C 
HETATM   23  F1  UNL     1      30.842  -1.169  53.988  1.00  0.00    -0.198 F 
HETATM   24  S1  UNL     1      29.057   0.543  53.902  1.00  0.00    -0.070 SA
HETATM   25  N3  UNL     1      26.837   1.558  52.645  1.00  0.00    -0.374 N 
HETATM   26  H22 UNL     1      27.164   2.372  52.089  1.00  0.00     0.161 HD
ENDBRANCH  15  16
ENDBRANCH   6  15
BRANCH   1  27
HETATM   27  C5  UNL     1      20.068   4.609  48.387  1.00  0.00     0.107 C 
HETATM   28  C4  UNL     1      19.017   4.836  49.453  1.00  0.00     0.029 C 
HETATM   29  C3  UNL     1      17.657   4.384  48.982  1.00  0.00     0.037 C 
HETATM   30  C2  UNL     1      17.725   2.997  48.441  1.00  0.00     0.216 C 
HETATM   31  C1  UNL     1      17.567   1.985  49.565  1.00  0.00     0.042 C 
HETATM   32  N4  UNL     1      18.822   2.723  47.570  1.00  0.00     0.089 N 
HETATM   33  C25 UNL     1      20.108   3.165  48.020  1.00  0.00     0.294 C 
HETATM   34  H31 UNL     1      18.870   1.677  47.452  1.00  0.00     0.316 HD
ENDBRANCH   1  27
TORSDOF 3
ENDMDL
MODEL 6
REMARK VINA RESULT:      -9.4      4.651      7.603
REMARK  3 active torsions:
REMARK  status: ('A' for Active; 'I' for Inactive)
REMARK    1  A    between atoms: C5_5  and  N1_6 
REMARK    2  A    between atoms: N2_11  and  C10_12 
REMARK    3  A    between atoms: C10_12  and  C11_13 
ROOT
HETATM    1  N1  UNL     1      20.418   0.568  51.630  1.00  0.00    -0.405 N 
HETATM    2  C6  UNL     1      21.017   0.779  50.363  1.00  0.00     0.118 C 
HETATM    3  C7  UNL     1      22.401   1.327  50.630  1.00  0.00     0.037 C 
HETATM    4  C8  UNL     1      22.371   1.825  52.060  1.00  0.00     0.021 C 
HETATM    5  C9  UNL     1      22.132   3.318  52.124  1.00  0.00     0.137 C 
HETATM    6  N2  UNL     1      23.383   3.990  51.974  1.00  0.00    -0.184 NA
HETATM    7  O1  UNL     1      24.206   3.769  53.023  1.00  0.00    -0.261 OA
HETATM    8  C18 UNL     1      24.590   2.449  53.231  1.00  0.00     0.099 A 
HETATM    9  C19 UNL     1      25.737   2.020  53.840  1.00  0.00     0.039 A 
HETATM   10  C20 UNL     1      26.037   0.684  54.005  1.00  0.00     0.003 A 
HETATM   11  C21 UNL     1      25.113  -0.223  53.519  1.00  0.00     0.001 A 
HETATM   12  C22 UNL     1      23.948   0.180  52.901  1.00  0.00     0.011 A 
HETATM   13  C23 UNL     1      23.670   1.542  52.748  1.00  0.00    -0.011 A 
HETATM   14  C24 UNL     1      21.232   1.080  52.667  1.00  0.00     0.133 C 
ENDROOT
BRANCH   6  15
HETATM   15  C10 UNL     1      23.312   5.316  51.502  1.00  0.00     0.177 C 
BRANCH  15  16
HETATM   16  C11 UNL     1      24.537   5.791  50.770  1.00  0.00     0.022 C 
HETATM   17  C12 UNL     1      24.706   7.060  50.317  1.00  0.00     0.036 C 
HETATM   18  C13 UNL     1      26.011   7.144  49.666  1.00  0.00    -0.023 C 
HETATM   19  C14 UNL     1      26.797   8.193  49.524  1.00  0.00     0.013 C 
HETATM   20  C17 UNL     1      26.078   5.726  49.198  1.00  0.00     0.184 C 
HETATM   21  C15 UNL     1      28.090   8.154  48.860  1.00  0.00     0.050 C 
HETATM   22  C16 UNL     1      28.497   6.995  48.381  1.00  0.00     0.155 C 
HETATM   23  F1  UNL     1      29.645   6.702  47.724  1.00  0.00    -0.198 F 
HETATM   24  S1  UNL     1      27.688   5.411  48.516  1.00  0.00    -0.070 SA
HETATM   25  N3  UNL     1      25.728   5.040  50.403  1.00  0.00    -0.374 N 
HETATM   26  H22 UNL     1      26.049   4.258  51.006  1.00  0.00     0.161 HD
ENDBRANCH  15  16
ENDBRANCH   6  15
BRANCH   1  27
HETATM   27  C5  UNL     1      19.017   0.775  51.730  1.00  0.00     0.107 C 
HETATM   28  C4  UNL     1      18.325  -0.528  52.071  1.00  0.00     0.029 C 
HETATM   29  C3  UNL     1      16.858  -0.308  52.347  1.00  0.00     0.037 C 
HETATM   30  C2  UNL     1      16.231   0.475  51.245  1.00  0.00     0.216 C 
HETATM   31  C1  UNL     1      15.785  -0.454  50.127  1.00  0.00     0.042 C 
HETATM   32  N4  UNL     1      16.967   1.610  50.793  1.00  0.00     0.089 N 
HETATM   33  C25 UNL     1      18.362   1.396  50.543  1.00  0.00     0.294 C 
HETATM   34  H31 UNL     1      16.529   1.923  49.887  1.00  0.00     0.316 HD
ENDBRANCH   1  27
TORSDOF 3
ENDMDL
MODEL 7
REMARK VINA RESULT:      -9.4      3.393      4.142
REMARK  3 active torsions:
REMARK  status: ('A' for Active; 'I' for Inactive)
REMARK    1  A    between atoms: C5_5  and  N1_6 
REMARK    2  A    between atoms: N2_11  and  C10_12 
REMARK    3  A    between atoms: C10_12  and  C11_13 
ROOT
HETATM    1  N1  UNL     1      22.420   5.257  49.395  1.00  0.00    -0.405 N 
HETATM    2  C6  UNL     1      22.761   5.611  50.725  1.00  0.00     0.118 C 
HETATM    3  C7  UNL     1      24.272   5.591  50.798  1.00  0.00     0.037 C 
HETATM    4  C8  UNL     1      24.725   4.785  49.598  1.00  0.00     0.021 C 
HETATM    5  C9  UNL     1      25.022   3.349  49.973  1.00  0.00     0.137 C 
HETATM    6  N2  UNL     1      26.360   3.270  50.463  1.00  0.00    -0.184 NA
HETATM    7  O1  UNL     1      27.271   3.525  49.498  1.00  0.00    -0.261 OA
HETATM    8  C18 UNL     1      27.224   4.796  48.936  1.00  0.00     0.099 A 
HETATM    9  C19 UNL     1      28.264   5.470  48.357  1.00  0.00     0.039 A 
HETATM   10  C20 UNL     1      28.127   6.734  47.822  1.00  0.00     0.003 A 
HETATM   11  C21 UNL     1      26.869   7.304  47.896  1.00  0.00     0.001 A 
HETATM   12  C22 UNL     1      25.802   6.649  48.473  1.00  0.00     0.011 A 
HETATM   13  C23 UNL     1      25.971   5.368  49.007  1.00  0.00    -0.011 A 
HETATM   14  C24 UNL     1      23.565   4.860  48.667  1.00  0.00     0.133 C 
ENDROOT
BRANCH   6  15
HETATM   15  C10 UNL     1      26.637   2.178  51.311  1.00  0.00     0.177 C 
BRANCH  15  16
HETATM   16  C11 UNL     1      25.437   1.610  52.020  1.00  0.00     0.022 C 
HETATM   17  C12 UNL     1      25.349   0.327  52.453  1.00  0.00     0.036 C 
HETATM   18  C13 UNL     1      24.047   0.148  53.092  1.00  0.00    -0.023 C 
HETATM   19  C14 UNL     1      23.705  -0.698  54.044  1.00  0.00     0.013 C 
HETATM   20  C17 UNL     1      23.299   1.152  52.277  1.00  0.00     0.184 C 
HETATM   21  C15 UNL     1      22.369  -0.780  54.614  1.00  0.00     0.050 C 
HETATM   22  C16 UNL     1      21.455   0.051  54.152  1.00  0.00     0.155 C 
HETATM   23  F1  UNL     1      20.154   0.169  54.511  1.00  0.00    -0.198 F 
HETATM   24  S1  UNL     1      21.666   1.350  52.948  1.00  0.00    -0.070 SA
HETATM   25  N3  UNL     1      24.186   2.270  52.365  1.00  0.00    -0.374 N 
HETATM   26  H22 UNL     1      24.182   3.285  52.579  1.00  0.00     0.161 HD
ENDBRANCH  15  16
ENDBRANCH   6  15
BRANCH   1  27
HETATM   27  C5  UNL     1      21.228   4.509  49.208  1.00  0.00     0.107 C 
HETATM   28  C4  UNL     1      20.066   5.212  49.876  1.00  0.00     0.029 C 
HETATM   29  C3  UNL     1      18.759   4.530  49.554  1.00  0.00     0.037 C 
HETATM   30  C2  UNL     1      18.854   3.066  49.820  1.00  0.00     0.216 C 
HETATM   31  C1  UNL     1      18.539   2.774  51.278  1.00  0.00     0.042 C 
HETATM   32  N4  UNL     1      20.037   2.425  49.346  1.00  0.00     0.089 N 
HETATM   33  C25 UNL     1      21.273   3.085  49.647  1.00  0.00     0.294 C 
HETATM   34  H31 UNL     1      20.072   1.470  49.791  1.00  0.00     0.316 HD
ENDBRANCH   1  27
TORSDOF 3
ENDMDL
MODEL 8
REMARK VINA RESULT:      -9.3      3.200      5.269
REMARK  3 active torsions:
REMARK  status: ('A' for Active; 'I' for Inactive)
REMARK    1  A    between atoms: C5_5  and  N1_6 
REMARK    2  A    between atoms: N2_11  and  C10_12 
REMARK    3  A    between atoms: C10_12  and  C11_13 
ROOT
HETATM    1  N1  UNL     1      20.934   3.311  47.917  1.00  0.00    -0.405 N 
HETATM    2  C6  UNL     1      21.971   2.389  47.625  1.00  0.00     0.118 C 
HETATM    3  C7  UNL     1      22.312   1.702  48.929  1.00  0.00     0.037 C 
HETATM    4  C8  UNL     1      21.744   2.592  50.015  1.00  0.00     0.021 C 
HETATM    5  C9  UNL     1      22.804   3.497  50.603  1.00  0.00     0.137 C 
HETATM    6  N2  UNL     1      23.501   2.786  51.625  1.00  0.00    -0.184 NA
HETATM    7  O1  UNL     1      22.710   2.518  52.687  1.00  0.00    -0.261 OA
HETATM    8  C18 UNL     1      21.612   1.702  52.439  1.00  0.00     0.099 A 
HETATM    9  C19 UNL     1      20.977   0.893  53.342  1.00  0.00     0.039 A 
HETATM   10  C20 UNL     1      19.889   0.114  53.007  1.00  0.00     0.003 A 
HETATM   11  C21 UNL     1      19.458   0.184  51.695  1.00  0.00     0.001 A 
HETATM   12  C22 UNL     1      20.077   0.991  50.764  1.00  0.00     0.011 A 
HETATM   13  C23 UNL     1      21.178   1.770  51.132  1.00  0.00    -0.011 A 
HETATM   14  C24 UNL     1      20.700   3.386  49.309  1.00  0.00     0.133 C 
ENDROOT
BRANCH   6  15
HETATM   15  C10 UNL     1      24.801   3.249  51.914  1.00  0.00     0.177 C 
BRANCH  15  16
HETATM   16  C11 UNL     1      25.786   2.173  52.284  1.00  0.00     0.022 C 
HETATM   17  C12 UNL     1      25.463   0.860  52.412  1.00  0.00     0.036 C 
HETATM   18  C13 UNL     1      26.672   0.125  52.774  1.00  0.00    -0.023 C 
HETATM   19  C14 UNL     1      26.974  -1.137  52.537  1.00  0.00     0.013 C 
HETATM   20  C17 UNL     1      27.350   1.232  53.516  1.00  0.00     0.184 C 
HETATM   21  C15 UNL     1      28.223  -1.762  52.941  1.00  0.00     0.050 C 
HETATM   22  C16 UNL     1      29.106  -1.014  53.573  1.00  0.00     0.155 C 
HETATM   23  F1  UNL     1      30.326  -1.357  54.050  1.00  0.00    -0.198 F 
HETATM   24  S1  UNL     1      29.001   0.730  53.936  1.00  0.00    -0.070 SA
HETATM   25  N3  UNL     1      27.206   2.299  52.574  1.00  0.00    -0.374 N 
HETATM   26  H22 UNL     1      27.764   3.038  52.105  1.00  0.00     0.161 HD
ENDBRANCH  15  16
ENDBRANCH   6  15
BRANCH   1  27
HETATM   27  C5  UNL     1      20.918   4.525  47.180  1.00  0.00     0.107 C 
HETATM   28  C4  UNL     1      21.938   4.465  46.063  1.00  0.00     0.029 C 
HETATM   29  C3  UNL     1      21.830   5.671  45.162  1.00  0.00     0.037 C 
HETATM   30  C2  UNL     1      21.839   6.926  45.965  1.00  0.00     0.216 C 
HETATM   31  C1  UNL     1      23.269   7.371  46.231  1.00  0.00     0.042 C 
HETATM   32  N4  UNL     1      21.010   6.926  47.127  1.00  0.00     0.089 N 
HETATM   33  C25 UNL     1      21.112   5.774  47.972  1.00  0.00     0.294 C 
HETATM   34  H31 UNL     1      21.285   7.765  47.704  1.00  0.00     0.316 HD
ENDBRANCH   1  27
TORSDOF 3
ENDMDL
MODEL 9
REMARK VINA RESULT:      -9.2      2.065      2.354
REMARK  3 active torsions:
REMARK  status: ('A' for Active; 'I' for Inactive)
REMARK    1  A    between atoms: C5_5  and  N1_6 
REMARK    2  A    between atoms: N2_11  and  C10_12 
REMARK    3  A    between atoms: C10_12  and  C11_13 
ROOT
HETATM    1  N1  UNL     1      24.481   8.722  47.667  1.00  0.00    -0.405 N 
HETATM    2  C6  UNL     1      24.607   8.938  49.062  1.00  0.00     0.118 C 
HETATM    3  C7  UNL     1      25.644   7.953  49.556  1.00  0.00     0.037 C 
HETATM    4  C8  UNL     1      25.749   6.900  48.473  1.00  0.00     0.021 C 
HETATM    5  C9  UNL     1      24.919   5.679  48.803  1.00  0.00     0.137 C 
HETATM    6  N2  UNL     1      25.685   4.815  49.642  1.00  0.00    -0.184 NA
HETATM    7  O1  UNL     1      26.750   4.291  48.995  1.00  0.00    -0.261 OA
HETATM    8  C18 UNL     1      27.698   5.202  48.543  1.00  0.00     0.099 A 
HETATM    9  C19 UNL     1      29.028   4.959  48.336  1.00  0.00     0.039 A 
HETATM   10  C20 UNL     1      29.901   5.927  47.884  1.00  0.00     0.003 A 
HETATM   11  C21 UNL     1      29.366   7.180  47.645  1.00  0.00     0.001 A 
HETATM   12  C22 UNL     1      28.029   7.454  47.845  1.00  0.00     0.011 A 
HETATM   13  C23 UNL     1      27.168   6.453  48.304  1.00  0.00    -0.011 A 
HETATM   14  C24 UNL     1      25.222   7.587  47.261  1.00  0.00     0.133 C 
ENDROOT
BRANCH   6  15
HETATM   15  C10 UNL     1      24.943   3.926  50.446  1.00  0.00     0.177 C 
BRANCH  15  16
HETATM   16  C11 UNL     1      25.764   2.894  51.170  1.00  0.00     0.022 C 
HETATM   17  C12 UNL     1      25.299   1.671  51.531  1.00  0.00     0.036 C 
HETATM   18  C13 UNL     1      26.376   0.952  52.206  1.00  0.00    -0.023 C 
HETATM   19  C14 UNL     1      26.576  -0.349  52.288  1.00  0.00     0.013 C 
HETATM   20  C17 UNL     1      27.068   2.147  52.779  1.00  0.00     0.184 C 
HETATM   21  C15 UNL     1      27.700  -0.954  52.985  1.00  0.00     0.050 C 
HETATM   22  C16 UNL     1      28.571  -0.148  53.558  1.00  0.00     0.155 C 
HETATM   23  F1  UNL     1      29.685  -0.461  54.262  1.00  0.00    -0.198 F 
HETATM   24  S1  UNL     1      28.599   1.635  53.521  1.00  0.00    -0.070 SA
HETATM   25  N3  UNL     1      27.145   2.981  51.620  1.00  0.00    -0.374 N 
HETATM   26  H22 UNL     1      27.826   3.554  51.085  1.00  0.00     0.161 HD
ENDBRANCH  15  16
ENDBRANCH   6  15
BRANCH   1  27
HETATM   27  C5  UNL     1      23.196   8.909  47.093  1.00  0.00     0.107 C 
HETATM   28  C4  UNL     1      22.997   7.942  45.946  1.00  0.00     0.029 C 
HETATM   29  C3  UNL     1      21.582   8.001  45.424  1.00  0.00     0.037 C 
HETATM   30  C2  UNL     1      21.187   9.411  45.143  1.00  0.00     0.216 C 
HETATM   31  C1  UNL     1      21.621   9.810  43.742  1.00  0.00     0.042 C 
HETATM   32  N4  UNL     1      21.534  10.364  46.147  1.00  0.00     0.089 N 
HETATM   33  C25 UNL     1      22.875  10.294  46.644  1.00  0.00     0.294 C 
HETATM   34  H31 UNL     1      21.403  11.321  45.724  1.00  0.00     0.316 HD
ENDBRANCH   1  27
TORSDOF 3
ENDMDL
