MODEL 1
REMARK VINA RESULT:      -8.9      0.000      0.000
REMARK  8 active torsions:
REMARK  status: ('A' for Active; 'I' for Inactive)
REMARK    1  A    between atoms: C5_5  and  C6_6 
REMARK       I    between atoms: C6_6  and  N1_8 
REMARK    2  A    between atoms: N1_8  and  C7_9 
REMARK    3  A    between atoms: N2_12  and  O2_13 
REMARK    4  A    between atoms: C13_17  and  N3_18 
REMARK    5  A    between atoms: N3_18  and  C15_20 
REMARK    6  A    between atoms: C15_20  and  C16_21 
REMARK    7  A    between atoms: C20_27  and  O3_28 
REMARK    8  A    between atoms: C22_30  and  O4_31 
ROOT
HETATM    1  C1  UNL     1      21.019   0.677  50.304  1.00  0.00     0.045 C 
HETATM    2  C2  UNL     1      21.695   1.529  49.537  1.00  0.00    -0.030 A 
HETATM    3  C3  UNL     1      21.918   1.426  48.094  1.00  0.00     0.010 A 
HETATM    4  C4  UNL     1      22.631   2.448  47.667  1.00  0.00     0.020 A 
HETATM    5  C5  UNL     1      22.902   3.268  48.841  1.00  0.00     0.059 A 
HETATM    6  C13 UNL     1      22.374   2.756  49.916  1.00  0.00     0.052 A 
ENDROOT
BRANCH   6   7
HETATM    7  N3  UNL     1      22.367   3.186  51.288  1.00  0.00    -0.378 N 
HETATM    8  C14 UNL     1      21.070   3.789  51.633  1.00  0.00     0.150 C 
BRANCH   7   9
HETATM    9  C15 UNL     1      23.408   3.109  52.311  1.00  0.00     0.182 C 
BRANCH   9  10
HETATM   10  C16 UNL     1      23.405   1.770  52.921  1.00  0.00     0.066 A 
HETATM   11  N4  UNL     1      22.236   1.157  53.225  1.00  0.00    -0.244 NA
HETATM   12  C17 UNL     1      22.189  -0.076  53.782  1.00  0.00     0.234 A 
HETATM   13  N5  UNL     1      23.346  -0.723  54.046  1.00  0.00    -0.241 NA
HETATM   14  C18 UNL     1      24.541  -0.181  53.775  1.00  0.00     0.073 A 
HETATM   15  C19 UNL     1      25.741  -0.822  54.038  1.00  0.00     0.072 A 
HETATM   16  C25 UNL     1      24.584   1.080  53.206  1.00  0.00     0.022 A 
HETATM   17  C20 UNL     1      26.941  -0.194  53.730  1.00  0.00     0.103 A 
HETATM   18  C22 UNL     1      27.003   1.060  53.164  1.00  0.00     0.102 A 
HETATM   19  C24 UNL     1      25.789   1.684  52.909  1.00  0.00     0.055 A 
BRANCH  17  20
HETATM   20  O3  UNL     1      28.116  -0.868  54.008  1.00  0.00    -0.353 OA
HETATM   21  C21 UNL     1      28.763  -1.734  53.118  1.00  0.00     0.210 C 
ENDBRANCH  17  20
BRANCH  18  22
HETATM   22  O4  UNL     1      28.253   1.592  52.899  1.00  0.00    -0.353 OA
HETATM   23  C23 UNL     1      28.941   2.517  53.683  1.00  0.00     0.210 C 
ENDBRANCH  18  22
ENDBRANCH   9  10
ENDBRANCH   7   9
ENDBRANCH   6   7
BRANCH   5  24
HETATM   24  C6  UNL     1      23.667   4.509  48.826  1.00  0.00     0.258 C 
HETATM   25  O1  UNL     1      23.399   5.638  48.345  1.00  0.00    -0.267 OA
HETATM   26  N1  UNL     1      24.968   4.574  49.438  1.00  0.00    -0.323 N 
HETATM   27  H5  UNL     1      25.403   3.725  49.912  1.00  0.00     0.169 HD
BRANCH  26  28
HETATM   28  C7  UNL     1      25.731   5.774  49.436  1.00  0.00     0.034 A 
HETATM   29  C8  UNL     1      26.720   5.684  48.568  1.00  0.00     0.025 A 
HETATM   30  C9  UNL     1      27.671   6.822  48.377  1.00  0.00     0.184 A 
HETATM   31  N2  UNL     1      27.379   7.944  49.213  1.00  0.00    -0.267 N 
HETATM   32  C11 UNL     1      26.306   8.007  50.136  1.00  0.00     0.119 A 
HETATM   33  C12 UNL     1      25.504   6.960  50.250  1.00  0.00     0.048 A 
BRANCH  31  34
HETATM   34  O2  UNL     1      28.258   8.953  49.019  1.00  0.00    -0.283 OA
HETATM   35  C10 UNL     1      29.564   8.479  48.982  1.00  0.00     0.237 C 
ENDBRANCH  31  34
ENDBRANCH  26  28
ENDBRANCH   5  24
TORSDOF 8
ENDMDL
MODEL 2
REMARK VINA RESULT:      -8.6      3.124      6.605
REMARK  8 active torsions:
REMARK  status: ('A' for Active; 'I' for Inactive)
REMARK    1  A    between atoms: C5_5  and  C6_6 
REMARK       I    between atoms: C6_6  and  N1_8 
REMARK    2  A    between atoms: N1_8  and  C7_9 
REMARK    3  A    between atoms: N2_12  and  O2_13 
REMARK    4  A    between atoms: C13_17  and  N3_18 
REMARK    5  A    between atoms: N3_18  and  C15_20 
REMARK    6  A    between atoms: C15_20  and  C16_21 
REMARK    7  A    between atoms: C20_27  and  O3_28 
REMARK    8  A    between atoms: C22_30  and  O4_31 
ROOT
HETATM    1  C1  UNL     1      22.274   5.972  49.548  1.00  0.00     0.045 C 
HETATM    2  C2  UNL     1      23.518   5.504  49.610  1.00  0.00    -0.030 A 
HETATM    3  C3  UNL     1      24.714   6.108  49.021  1.00  0.00     0.010 A 
HETATM    4  C4  UNL     1      25.775   5.371  49.283  1.00  0.00     0.020 A 
HETATM    5  C5  UNL     1      25.295   4.240  50.067  1.00  0.00     0.059 A 
HETATM    6  C13 UNL     1      24.008   4.303  50.262  1.00  0.00     0.052 A 
ENDROOT
BRANCH   6   7
HETATM    7  N3  UNL     1      23.094   3.439  50.959  1.00  0.00    -0.378 N 
HETATM    8  C14 UNL     1      22.751   4.006  52.273  1.00  0.00     0.150 C 
BRANCH   7   9
HETATM    9  C15 UNL     1      22.506   2.162  50.562  1.00  0.00     0.182 C 
BRANCH   9  10
HETATM   10  C16 UNL     1      22.488   1.245  51.712  1.00  0.00     0.066 A 
HETATM   11  N4  UNL     1      23.630   0.968  52.386  1.00  0.00    -0.244 NA
HETATM   12  C17 UNL     1      23.657   0.134  53.453  1.00  0.00     0.234 A 
HETATM   13  N5  UNL     1      22.507  -0.444  53.865  1.00  0.00    -0.241 NA
HETATM   14  C18 UNL     1      21.339  -0.219  53.249  1.00  0.00     0.073 A 
HETATM   15  C19 UNL     1      20.147  -0.800  53.650  1.00  0.00     0.072 A 
HETATM   16  C25 UNL     1      21.316   0.633  52.159  1.00  0.00     0.022 A 
HETATM   17  C20 UNL     1      18.975  -0.520  52.959  1.00  0.00     0.103 A 
HETATM   18  C22 UNL     1      18.934   0.326  51.872  1.00  0.00     0.102 A 
HETATM   19  C24 UNL     1      20.140   0.898  51.488  1.00  0.00     0.055 A 
BRANCH  17  20
HETATM   20  O3  UNL     1      17.807  -1.120  53.391  1.00  0.00    -0.353 OA
HETATM   21  C21 UNL     1      17.612  -2.504  53.476  1.00  0.00     0.210 C 
ENDBRANCH  17  20
BRANCH  18  22
HETATM   22  O4  UNL     1      17.711   0.534  51.257  1.00  0.00    -0.353 OA
HETATM   23  C23 UNL     1      17.414   0.317  49.913  1.00  0.00     0.210 C 
ENDBRANCH  18  22
ENDBRANCH   9  10
ENDBRANCH   7   9
ENDBRANCH   6   7
BRANCH   5  24
HETATM   24  C6  UNL     1      26.141   3.167  50.576  1.00  0.00     0.258 C 
HETATM   25  O1  UNL     1      26.890   2.354  49.979  1.00  0.00    -0.267 OA
HETATM   26  N1  UNL     1      26.212   2.898  51.988  1.00  0.00    -0.323 N 
HETATM   27  H5  UNL     1      25.653   3.469  52.691  1.00  0.00     0.169 HD
BRANCH  26  28
HETATM   28  C7  UNL     1      27.031   1.857  52.505  1.00  0.00     0.034 A 
HETATM   29  C8  UNL     1      27.978   2.362  53.274  1.00  0.00     0.025 A 
HETATM   30  C9  UNL     1      28.974   1.469  53.941  1.00  0.00     0.184 A 
HETATM   31  N2  UNL     1      28.773   0.085  53.645  1.00  0.00    -0.267 N 
HETATM   32  C11 UNL     1      27.745  -0.424  52.813  1.00  0.00     0.119 A 
HETATM   33  C12 UNL     1      26.898   0.429  52.257  1.00  0.00     0.048 A 
BRANCH  31  34
HETATM   34  O2  UNL     1      29.691  -0.696  54.259  1.00  0.00    -0.283 OA
HETATM   35  C10 UNL     1      29.890  -1.880  53.557  1.00  0.00     0.237 C 
ENDBRANCH  31  34
ENDBRANCH  26  28
ENDBRANCH   5  24
TORSDOF 8
ENDMDL
MODEL 3
REMARK VINA RESULT:      -8.6      3.134      6.549
REMARK  8 active torsions:
REMARK  status: ('A' for Active; 'I' for Inactive)
REMARK    1  A    between atoms: C5_5  and  C6_6 
REMARK       I    between atoms: C6_6  and  N1_8 
REMARK    2  A    between atoms: N1_8  and  C7_9 
REMARK    3  A    between atoms: N2_12  and  O2_13 
REMARK    4  A    between atoms: C13_17  and  N3_18 
REMARK    5  A    between atoms: N3_18  and  C15_20 
REMARK    6  A    between atoms: C15_20  and  C16_21 
REMARK    7  A    between atoms: C20_27  and  O3_28 
REMARK    8  A    between atoms: C22_30  and  O4_31 
ROOT
HETATM    1  C1  UNL     1      21.925   5.384  49.131  1.00  0.00     0.045 C 
HETATM    2  C2  UNL     1      23.214   5.095  49.295  1.00  0.00    -0.030 A 
HETATM    3  C3  UNL     1      24.354   5.819  48.732  1.00  0.00     0.010 A 
HETATM    4  C4  UNL     1      25.485   5.252  49.103  1.00  0.00     0.020 A 
HETATM    5  C5  UNL     1      25.110   4.116  49.937  1.00  0.00     0.059 A 
HETATM    6  C13 UNL     1      23.816   4.015  50.055  1.00  0.00     0.052 A 
ENDROOT
BRANCH   6   7
HETATM    7  N3  UNL     1      22.982   3.079  50.759  1.00  0.00    -0.378 N 
HETATM    8  C14 UNL     1      22.425   3.697  51.973  1.00  0.00     0.150 C 
BRANCH   7   9
HETATM    9  C15 UNL     1      22.641   1.692  50.448  1.00  0.00     0.182 C 
BRANCH   9  10
HETATM   10  C16 UNL     1      21.187   1.571  50.256  1.00  0.00     0.066 A 
HETATM   11  N4  UNL     1      20.580   2.179  49.208  1.00  0.00    -0.244 NA
HETATM   12  C17 UNL     1      19.247   2.088  48.992  1.00  0.00     0.234 A 
HETATM   13  N5  UNL     1      18.489   1.367  49.847  1.00  0.00    -0.241 NA
HETATM   14  C18 UNL     1      19.017   0.738  50.906  1.00  0.00     0.073 A 
HETATM   15  C19 UNL     1      18.262  -0.005  51.799  1.00  0.00     0.072 A 
HETATM   16  C25 UNL     1      20.380   0.834  51.124  1.00  0.00     0.022 A 
HETATM   17  C20 UNL     1      18.881  -0.627  52.876  1.00  0.00     0.103 A 
HETATM   18  C22 UNL     1      20.237  -0.543  53.108  1.00  0.00     0.102 A 
HETATM   19  C24 UNL     1      20.973   0.208  52.201  1.00  0.00     0.055 A 
BRANCH  17  20
HETATM   20  O3  UNL     1      18.092  -1.360  53.743  1.00  0.00    -0.353 OA
HETATM   21  C21 UNL     1      17.670  -2.675  53.512  1.00  0.00     0.210 C 
ENDBRANCH  17  20
BRANCH  18  22
HETATM   22  O4  UNL     1      20.748  -1.202  54.213  1.00  0.00    -0.353 OA
HETATM   23  C23 UNL     1      21.945  -0.913  54.867  1.00  0.00     0.210 C 
ENDBRANCH  18  22
ENDBRANCH   9  10
ENDBRANCH   7   9
ENDBRANCH   6   7
BRANCH   5  24
HETATM   24  C6  UNL     1      26.056   3.202  50.565  1.00  0.00     0.258 C 
HETATM   25  O1  UNL     1      27.039   2.579  50.092  1.00  0.00    -0.267 OA
HETATM   26  N1  UNL     1      25.945   2.883  51.964  1.00  0.00    -0.323 N 
HETATM   27  H5  UNL     1      25.177   3.300  52.571  1.00  0.00     0.169 HD
BRANCH  26  28
HETATM   28  C7  UNL     1      26.858   1.995  52.597  1.00  0.00     0.034 A 
HETATM   29  C8  UNL     1      26.413   0.755  52.524  1.00  0.00     0.025 A 
HETATM   30  C9  UNL     1      27.196  -0.372  53.118  1.00  0.00     0.184 A 
HETATM   31  N2  UNL     1      28.412   0.055  53.738  1.00  0.00    -0.267 N 
HETATM   32  C11 UNL     1      28.860   1.399  53.799  1.00  0.00     0.119 A 
HETATM   33  C12 UNL     1      28.113   2.343  53.248  1.00  0.00     0.048 A 
BRANCH  31  34
HETATM   34  O2  UNL     1      29.094  -0.984  54.268  1.00  0.00    -0.283 OA
HETATM   35  C10 UNL     1      29.340  -1.962  53.310  1.00  0.00     0.237 C 
ENDBRANCH  31  34
ENDBRANCH  26  28
ENDBRANCH   5  24
TORSDOF 8
ENDMDL
MODEL 4
REMARK VINA RESULT:      -8.5      2.048      3.009
REMARK  8 active torsions:
REMARK  status: ('A' for Active; 'I' for Inactive)
REMARK    1  A    between atoms: C5_5  and  C6_6 
REMARK       I    between atoms: C6_6  and  N1_8 
REMARK    2  A    between atoms: N1_8  and  C7_9 
REMARK    3  A    between atoms: N2_12  and  O2_13 
REMARK    4  A    between atoms: C13_17  and  N3_18 
REMARK    5  A    between atoms: N3_18  and  C15_20 
REMARK    6  A    between atoms: C15_20  and  C16_21 
REMARK    7  A    between atoms: C20_27  and  O3_28 
REMARK    8  A    between atoms: C22_30  and  O4_31 
ROOT
HETATM    1  C1  UNL     1      21.586   0.912  50.403  1.00  0.00     0.045 C 
HETATM    2  C2  UNL     1      21.959   1.881  49.571  1.00  0.00    -0.030 A 
HETATM    3  C3  UNL     1      22.146   1.772  48.124  1.00  0.00     0.010 A 
HETATM    4  C4  UNL     1      22.519   2.932  47.621  1.00  0.00     0.020 A 
HETATM    5  C5  UNL     1      22.589   3.854  48.748  1.00  0.00     0.059 A 
HETATM    6  C13 UNL     1      22.272   3.268  49.868  1.00  0.00     0.052 A 
ENDROOT
BRANCH   6   7
HETATM    7  N3  UNL     1      22.195   3.748  51.221  1.00  0.00    -0.378 N 
HETATM    8  C14 UNL     1      20.867   4.321  51.490  1.00  0.00     0.150 C 
BRANCH   7   9
HETATM    9  C15 UNL     1      23.195   3.743  52.287  1.00  0.00     0.182 C 
BRANCH   9  10
HETATM   10  C16 UNL     1      24.470   3.224  51.767  1.00  0.00     0.066 A 
HETATM   11  N4  UNL     1      25.197   3.950  50.884  1.00  0.00    -0.244 NA
HETATM   12  C17 UNL     1      26.378   3.512  50.386  1.00  0.00     0.234 A 
HETATM   13  N5  UNL     1      26.853   2.311  50.781  1.00  0.00    -0.241 NA
HETATM   14  C18 UNL     1      26.191   1.536  51.651  1.00  0.00     0.073 A 
HETATM   15  C19 UNL     1      26.655   0.299  52.069  1.00  0.00     0.072 A 
HETATM   16  C25 UNL     1      24.984   1.986  52.156  1.00  0.00     0.022 A 
HETATM   17  C20 UNL     1      25.910  -0.448  52.972  1.00  0.00     0.103 A 
HETATM   18  C22 UNL     1      24.708  -0.015  53.487  1.00  0.00     0.102 A 
HETATM   19  C24 UNL     1      24.261   1.227  53.053  1.00  0.00     0.055 A 
BRANCH  17  20
HETATM   20  O3  UNL     1      26.409  -1.677  53.365  1.00  0.00    -0.353 OA
HETATM   21  C21 UNL     1      27.357  -2.414  52.645  1.00  0.00     0.210 C 
ENDBRANCH  17  20
BRANCH  18  22
HETATM   22  O4  UNL     1      24.048  -0.841  54.380  1.00  0.00    -0.353 OA
HETATM   23  C23 UNL     1      22.669  -1.006  54.490  1.00  0.00     0.210 C 
ENDBRANCH  18  22
ENDBRANCH   9  10
ENDBRANCH   7   9
ENDBRANCH   6   7
BRANCH   5  24
HETATM   24  C6  UNL     1      22.965   5.258  48.647  1.00  0.00     0.258 C 
HETATM   25  O1  UNL     1      22.263   6.297  48.560  1.00  0.00    -0.267 OA
HETATM   26  N1  UNL     1      24.351   5.646  48.635  1.00  0.00    -0.323 N 
HETATM   27  H5  UNL     1      25.131   4.924  48.698  1.00  0.00     0.169 HD
BRANCH  26  28
HETATM   28  C7  UNL     1      24.740   7.010  48.539  1.00  0.00     0.034 A 
HETATM   29  C8  UNL     1      25.128   7.458  49.718  1.00  0.00     0.025 A 
HETATM   30  C9  UNL     1      25.588   8.871  49.882  1.00  0.00     0.184 A 
HETATM   31  N2  UNL     1      25.548   9.619  48.664  1.00  0.00    -0.267 N 
HETATM   32  C11 UNL     1      25.125   9.106  47.413  1.00  0.00     0.119 A 
HETATM   33  C12 UNL     1      24.733   7.843  47.345  1.00  0.00     0.048 A 
BRANCH  31  34
HETATM   34  O2  UNL     1      25.966  10.892  48.846  1.00  0.00    -0.283 OA
HETATM   35  C10 UNL     1      25.440  11.735  47.873  1.00  0.00     0.237 C 
ENDBRANCH  31  34
ENDBRANCH  26  28
ENDBRANCH   5  24
TORSDOF 8
ENDMDL
MODEL 5
REMARK VINA RESULT:      -8.3      2.986      7.714
REMARK  8 active torsions:
REMARK  status: ('A' for Active; 'I' for Inactive)
REMARK    1  A    between atoms: C5_5  and  C6_6 
REMARK       I    between atoms: C6_6  and  N1_8 
REMARK    2  A    between atoms: N1_8  and  C7_9 
REMARK    3  A    between atoms: N2_12  and  O2_13 
REMARK    4  A    between atoms: C13_17  and  N3_18 
REMARK    5  A    between atoms: N3_18  and  C15_20 
REMARK    6  A    between atoms: C15_20  and  C16_21 
REMARK    7  A    between atoms: C20_27  and  O3_28 
REMARK    8  A    between atoms: C22_30  and  O4_31 
ROOT
HETATM    1  C1  UNL     1      24.547   6.995  47.913  1.00  0.00     0.045 C 
HETATM    2  C2  UNL     1      24.955   6.016  48.716  1.00  0.00    -0.030 A 
HETATM    3  C3  UNL     1      26.299   5.442  48.789  1.00  0.00     0.010 A 
HETATM    4  C4  UNL     1      26.341   4.489  49.699  1.00  0.00     0.020 A 
HETATM    5  C5  UNL     1      24.998   4.410  50.261  1.00  0.00     0.059 A 
HETATM    6  C13 UNL     1      24.196   5.276  49.709  1.00  0.00     0.052 A 
ENDROOT
BRANCH   6   7
HETATM    7  N3  UNL     1      22.805   5.573  49.919  1.00  0.00    -0.378 N 
HETATM    8  C14 UNL     1      22.622   6.320  51.174  1.00  0.00     0.150 C 
BRANCH   7   9
HETATM    9  C15 UNL     1      21.633   5.252  49.108  1.00  0.00     0.182 C 
BRANCH   9  10
HETATM   10  C16 UNL     1      21.531   3.794  48.940  1.00  0.00     0.066 A 
HETATM   11  N4  UNL     1      22.385   3.136  48.120  1.00  0.00    -0.244 NA
HETATM   12  C17 UNL     1      22.329   1.795  47.941  1.00  0.00     0.234 A 
HETATM   13  N5  UNL     1      21.391   1.082  48.602  1.00  0.00    -0.241 NA
HETATM   14  C18 UNL     1      20.511   1.662  49.430  1.00  0.00     0.073 A 
HETATM   15  C19 UNL     1      19.538   0.954  50.117  1.00  0.00     0.072 A 
HETATM   16  C25 UNL     1      20.571   3.033  49.609  1.00  0.00     0.022 A 
HETATM   17  C20 UNL     1      18.659   1.626  50.957  1.00  0.00     0.103 A 
HETATM   18  C22 UNL     1      18.705   2.990  51.147  1.00  0.00     0.102 A 
HETATM   19  C24 UNL     1      19.687   3.679  50.448  1.00  0.00     0.055 A 
BRANCH  17  20
HETATM   20  O3  UNL     1      17.703   0.883  51.625  1.00  0.00    -0.353 OA
HETATM   21  C21 UNL     1      17.943  -0.358  52.227  1.00  0.00     0.210 C 
ENDBRANCH  17  20
BRANCH  18  22
HETATM   22  O4  UNL     1      17.779   3.557  52.006  1.00  0.00    -0.353 OA
HETATM   23  C23 UNL     1      16.645   4.280  51.640  1.00  0.00     0.210 C 
ENDBRANCH  18  22
ENDBRANCH   9  10
ENDBRANCH   7   9
ENDBRANCH   6   7
BRANCH   5  24
HETATM   24  C6  UNL     1      24.592   3.481  51.308  1.00  0.00     0.258 C 
HETATM   25  O1  UNL     1      24.471   3.639  52.549  1.00  0.00    -0.267 OA
HETATM   26  N1  UNL     1      24.246   2.122  50.988  1.00  0.00    -0.323 N 
HETATM   27  H5  UNL     1      24.277   1.761  49.987  1.00  0.00     0.169 HD
BRANCH  26  28
HETATM   28  C7  UNL     1      23.846   1.200  51.994  1.00  0.00     0.034 A 
HETATM   29  C8  UNL     1      22.533   1.219  52.134  1.00  0.00     0.025 A 
HETATM   30  C9  UNL     1      21.861   0.334  53.134  1.00  0.00     0.184 A 
HETATM   31  N2  UNL     1      22.779  -0.478  53.871  1.00  0.00    -0.267 N 
HETATM   32  C11 UNL     1      24.185  -0.472  53.696  1.00  0.00     0.119 A 
HETATM   33  C12 UNL     1      24.709   0.338  52.789  1.00  0.00     0.048 A 
BRANCH  31  34
HETATM   34  O2  UNL     1      22.142  -1.262  54.769  1.00  0.00    -0.283 OA
HETATM   35  C10 UNL     1      20.875  -1.614  54.316  1.00  0.00     0.237 C 
ENDBRANCH  31  34
ENDBRANCH  26  28
ENDBRANCH   5  24
TORSDOF 8
ENDMDL
MODEL 6
REMARK VINA RESULT:      -8.1      2.922      7.342
REMARK  8 active torsions:
REMARK  status: ('A' for Active; 'I' for Inactive)
REMARK    1  A    between atoms: C5_5  and  C6_6 
REMARK       I    between atoms: C6_6  and  N1_8 
REMARK    2  A    between atoms: N1_8  and  C7_9 
REMARK    3  A    between atoms: N2_12  and  O2_13 
REMARK    4  A    between atoms: C13_17  and  N3_18 
REMARK    5  A    between atoms: N3_18  and  C15_20 
REMARK    6  A    between atoms: C15_20  and  C16_21 
REMARK    7  A    between atoms: C20_27  and  O3_28 
REMARK    8  A    between atoms: C22_30  and  O4_31 
ROOT
HETATM    1  C1  UNL     1      23.009   6.602  47.280  1.00  0.00     0.045 C 
HETATM    2  C2  UNL     1      22.594   5.417  47.722  1.00  0.00    -0.030 A 
HETATM    3  C3  UNL     1      22.232   4.255  46.910  1.00  0.00     0.010 A 
HETATM    4  C4  UNL     1      21.867   3.252  47.683  1.00  0.00     0.020 A 
HETATM    5  C5  UNL     1      21.981   3.739  49.053  1.00  0.00     0.059 A 
HETATM    6  C13 UNL     1      22.395   4.973  49.090  1.00  0.00     0.052 A 
ENDROOT
BRANCH   6   7
HETATM    7  N3  UNL     1      22.656   5.871  50.182  1.00  0.00    -0.378 N 
HETATM    8  C14 UNL     1      21.470   6.694  50.468  1.00  0.00     0.150 C 
BRANCH   7   9
HETATM    9  C15 UNL     1      23.861   6.060  50.987  1.00  0.00     0.182 C 
BRANCH   9  10
HETATM   10  C16 UNL     1      24.903   5.119  50.547  1.00  0.00     0.066 A 
HETATM   11  N4  UNL     1      24.868   3.823  50.942  1.00  0.00    -0.244 NA
HETATM   12  C17 UNL     1      25.804   2.924  50.556  1.00  0.00     0.234 A 
HETATM   13  N5  UNL     1      26.810   3.326  49.749  1.00  0.00    -0.241 NA
HETATM   14  C18 UNL     1      26.913   4.591  49.319  1.00  0.00     0.073 A 
HETATM   15  C19 UNL     1      27.936   5.030  48.494  1.00  0.00     0.072 A 
HETATM   16  C25 UNL     1      25.955   5.507  49.716  1.00  0.00     0.022 A 
HETATM   17  C20 UNL     1      27.976   6.358  48.091  1.00  0.00     0.103 A 
HETATM   18  C22 UNL     1      27.032   7.284  48.476  1.00  0.00     0.102 A 
HETATM   19  C24 UNL     1      26.015   6.822  49.303  1.00  0.00     0.055 A 
BRANCH  17  20
HETATM   20  O3  UNL     1      29.014   6.755  47.268  1.00  0.00    -0.353 OA
HETATM   21  C21 UNL     1      30.322   6.999  47.703  1.00  0.00     0.210 C 
ENDBRANCH  17  20
BRANCH  18  22
HETATM   22  O4  UNL     1      27.169   8.582  48.016  1.00  0.00    -0.353 OA
HETATM   23  C23 UNL     1      27.690   9.661  48.729  1.00  0.00     0.210 C 
ENDBRANCH  18  22
ENDBRANCH   9  10
ENDBRANCH   7   9
ENDBRANCH   6   7
BRANCH   5  24
HETATM   24  C6  UNL     1      21.673   2.950  50.240  1.00  0.00     0.258 C 
HETATM   25  O1  UNL     1      20.887   3.170  51.195  1.00  0.00    -0.267 OA
HETATM   26  N1  UNL     1      22.317   1.683  50.464  1.00  0.00    -0.323 N 
HETATM   27  H5  UNL     1      23.030   1.293  49.778  1.00  0.00     0.169 HD
BRANCH  26  28
HETATM   28  C7  UNL     1      22.030   0.898  51.615  1.00  0.00     0.034 A 
HETATM   29  C8  UNL     1      23.100   0.803  52.381  1.00  0.00     0.025 A 
HETATM   30  C9  UNL     1      23.057   0.026  53.657  1.00  0.00     0.184 A 
HETATM   31  N2  UNL     1      21.780  -0.564  53.912  1.00  0.00    -0.267 N 
HETATM   32  C11 UNL     1      20.650  -0.443  53.065  1.00  0.00     0.119 A 
HETATM   33  C12 UNL     1      20.764   0.264  51.951  1.00  0.00     0.048 A 
BRANCH  31  34
HETATM   34  O2  UNL     1      21.774  -1.263  55.069  1.00  0.00    -0.283 OA
HETATM   35  C10 UNL     1      23.070  -1.495  55.519  1.00  0.00     0.237 C 
ENDBRANCH  31  34
ENDBRANCH  26  28
ENDBRANCH   5  24
TORSDOF 8
ENDMDL
MODEL 7
REMARK VINA RESULT:      -8.0      3.026      8.703
REMARK  8 active torsions:
REMARK  status: ('A' for Active; 'I' for Inactive)
REMARK    1  A    between atoms: C5_5  and  C6_6 
REMARK       I    between atoms: C6_6  and  N1_8 
REMARK    2  A    between atoms: N1_8  and  C7_9 
REMARK    3  A    between atoms: N2_12  and  O2_13 
REMARK    4  A    between atoms: C13_17  and  N3_18 
REMARK    5  A    between atoms: N3_18  and  C15_20 
REMARK    6  A    between atoms: C15_20  and  C16_21 
REMARK    7  A    between atoms: C20_27  and  O3_28 
REMARK    8  A    between atoms: C22_30  and  O4_31 
ROOT
HETATM    1  C1  UNL     1      26.796   6.960  48.156  1.00  0.00     0.045 C 
HETATM    2  C2  UNL     1      26.527   5.835  48.816  1.00  0.00    -0.030 A 
HETATM    3  C3  UNL     1      27.280   4.582  48.757  1.00  0.00     0.010 A 
HETATM    4  C4  UNL     1      26.728   3.679  49.542  1.00  0.00     0.020 A 
HETATM    5  C5  UNL     1      25.573   4.329  50.151  1.00  0.00     0.059 A 
HETATM    6  C13 UNL     1      25.447   5.560  49.745  1.00  0.00     0.052 A 
ENDROOT
BRANCH   6   7
HETATM    7  N3  UNL     1      24.486   6.584  50.054  1.00  0.00    -0.378 N 
HETATM    8  C14 UNL     1      25.085   7.608  50.924  1.00  0.00     0.150 C 
BRANCH   7   9
HETATM    9  C15 UNL     1      23.090   6.729  49.647  1.00  0.00     0.182 C 
BRANCH   9  10
HETATM   10  C16 UNL     1      23.026   7.133  48.233  1.00  0.00     0.066 A 
HETATM   11  N4  UNL     1      23.368   8.390  47.863  1.00  0.00    -0.244 NA
HETATM   12  C17 UNL     1      23.328   8.800  46.573  1.00  0.00     0.234 A 
HETATM   13  N5  UNL     1      22.934   7.930  45.617  1.00  0.00    -0.241 NA
HETATM   14  C18 UNL     1      22.579   6.671  45.907  1.00  0.00     0.073 A 
HETATM   15  C19 UNL     1      22.169   5.760  44.946  1.00  0.00     0.072 A 
HETATM   16  C25 UNL     1      22.621   6.255  47.226  1.00  0.00     0.022 A 
HETATM   17  C20 UNL     1      21.815   4.471  45.324  1.00  0.00     0.103 A 
HETATM   18  C22 UNL     1      21.850   4.040  46.632  1.00  0.00     0.102 A 
HETATM   19  C24 UNL     1      22.264   4.970  47.578  1.00  0.00     0.055 A 
BRANCH  17  20
HETATM   20  O3  UNL     1      21.411   3.593  44.335  1.00  0.00    -0.353 OA
HETATM   21  C21 UNL     1      20.475   3.897  43.339  1.00  0.00     0.210 C 
ENDBRANCH  17  20
BRANCH  18  22
HETATM   22  O4  UNL     1      21.474   2.735  46.896  1.00  0.00    -0.353 OA
HETATM   23  C23 UNL     1      21.228   2.183  48.152  1.00  0.00     0.210 C 
ENDBRANCH  18  22
ENDBRANCH   9  10
ENDBRANCH   7   9
ENDBRANCH   6   7
BRANCH   5  24
HETATM   24  C6  UNL     1      24.667   3.689  51.097  1.00  0.00     0.258 C 
HETATM   25  O1  UNL     1      24.200   4.091  52.193  1.00  0.00    -0.267 OA
HETATM   26  N1  UNL     1      24.152   2.371  50.840  1.00  0.00    -0.323 N 
HETATM   27  H5  UNL     1      24.417   1.832  49.961  1.00  0.00     0.169 HD
BRANCH  26  28
HETATM   28  C7  UNL     1      23.265   1.729  51.748  1.00  0.00     0.034 A 
HETATM   29  C8  UNL     1      23.921   0.847  52.479  1.00  0.00     0.025 A 
HETATM   30  C9  UNL     1      23.210   0.037  53.514  1.00  0.00     0.184 A 
HETATM   31  N2  UNL     1      21.813   0.330  53.594  1.00  0.00    -0.267 N 
HETATM   32  C11 UNL     1      21.139   1.285  52.793  1.00  0.00     0.119 A 
HETATM   33  C12 UNL     1      21.837   1.967  51.897  1.00  0.00     0.048 A 
BRANCH  31  34
HETATM   34  O2  UNL     1      21.198  -0.421  54.536  1.00  0.00    -0.283 OA
HETATM   35  C10 UNL     1      21.650  -1.735  54.501  1.00  0.00     0.237 C 
ENDBRANCH  31  34
ENDBRANCH  26  28
ENDBRANCH   5  24
TORSDOF 8
ENDMDL
MODEL 8
REMARK VINA RESULT:      -7.9      1.990      3.256
REMARK  8 active torsions:
REMARK  status: ('A' for Active; 'I' for Inactive)
REMARK    1  A    between atoms: C5_5  and  C6_6 
REMARK       I    between atoms: C6_6  and  N1_8 
REMARK    2  A    between atoms: N1_8  and  C7_9 
REMARK    3  A    between atoms: N2_12  and  O2_13 
REMARK    4  A    between atoms: C13_17  and  N3_18 
REMARK    5  A    between atoms: N3_18  and  C15_20 
REMARK    6  A    between atoms: C15_20  and  C16_21 
REMARK    7  A    between atoms: C20_27  and  O3_28 
REMARK    8  A    between atoms: C22_30  and  O4_31 
ROOT
HETATM    1  C1  UNL     1      19.312   3.643  50.510  1.00  0.00     0.045 C 
HETATM    2  C2  UNL     1      20.098   4.691  50.274  1.00  0.00    -0.030 A 
HETATM    3  C3  UNL     1      19.709   5.960  49.659  1.00  0.00     0.010 A 
HETATM    4  C4  UNL     1      20.747   6.769  49.583  1.00  0.00     0.020 A 
HETATM    5  C5  UNL     1      21.869   6.038  50.159  1.00  0.00     0.059 A 
HETATM    6  C13 UNL     1      21.514   4.850  50.558  1.00  0.00     0.052 A 
ENDROOT
BRANCH   6   7
HETATM    7  N3  UNL     1      22.248   3.780  51.175  1.00  0.00    -0.378 N 
HETATM    8  C14 UNL     1      22.356   3.999  52.627  1.00  0.00     0.150 C 
BRANCH   7   9
HETATM    9  C15 UNL     1      22.859   2.588  50.591  1.00  0.00     0.182 C 
BRANCH   9  10
HETATM   10  C16 UNL     1      24.325   2.683  50.690  1.00  0.00     0.066 A 
HETATM   11  N4  UNL     1      25.011   3.546  49.903  1.00  0.00    -0.244 NA
HETATM   12  C17 UNL     1      26.358   3.669  49.966  1.00  0.00     0.234 A 
HETATM   13  N5  UNL     1      27.047   2.907  50.844  1.00  0.00    -0.241 NA
HETATM   14  C18 UNL     1      26.438   2.030  51.654  1.00  0.00     0.073 A 
HETATM   15  C19 UNL     1      27.122   1.236  52.560  1.00  0.00     0.072 A 
HETATM   16  C25 UNL     1      25.062   1.908  51.586  1.00  0.00     0.022 A 
HETATM   17  C20 UNL     1      26.421   0.348  53.367  1.00  0.00     0.103 A 
HETATM   18  C22 UNL     1      25.051   0.213  53.313  1.00  0.00     0.102 A 
HETATM   19  C24 UNL     1      24.387   1.019  52.397  1.00  0.00     0.055 A 
BRANCH  17  20
HETATM   20  O3  UNL     1      27.141  -0.426  54.258  1.00  0.00    -0.353 OA
HETATM   21  C21 UNL     1      28.438  -0.131  54.696  1.00  0.00     0.210 C 
ENDBRANCH  17  20
BRANCH  18  22
HETATM   22  O4  UNL     1      24.455  -0.703  54.162  1.00  0.00    -0.353 OA
HETATM   23  C23 UNL     1      23.087  -0.874  54.364  1.00  0.00     0.210 C 
ENDBRANCH  18  22
ENDBRANCH   9  10
ENDBRANCH   7   9
ENDBRANCH   6   7
BRANCH   5  24
HETATM   24  C6  UNL     1      23.224   6.562  50.278  1.00  0.00     0.258 C 
HETATM   25  O1  UNL     1      24.011   6.600  51.257  1.00  0.00    -0.267 OA
HETATM   26  N1  UNL     1      23.879   7.163  49.146  1.00  0.00    -0.323 N 
HETATM   27  H5  UNL     1      23.395   7.242  48.201  1.00  0.00     0.169 HD
BRANCH  26  28
HETATM   28  C7  UNL     1      25.201   7.679  49.240  1.00  0.00     0.034 A 
HETATM   29  C8  UNL     1      26.040   6.907  48.576  1.00  0.00     0.025 A 
HETATM   30  C9  UNL     1      27.497   7.235  48.522  1.00  0.00     0.184 A 
HETATM   31  N2  UNL     1      27.832   8.423  49.244  1.00  0.00    -0.267 N 
HETATM   32  C11 UNL     1      26.904   9.230  49.948  1.00  0.00     0.119 A 
HETATM   33  C12 UNL     1      25.628   8.876  49.950  1.00  0.00     0.048 A 
BRANCH  31  34
HETATM   34  O2  UNL     1      29.155   8.691  49.179  1.00  0.00    -0.283 OA
HETATM   35  C10 UNL     1      29.837   7.682  48.506  1.00  0.00     0.237 C 
ENDBRANCH  31  34
ENDBRANCH  26  28
ENDBRANCH   5  24
TORSDOF 8
ENDMDL
MODEL 9
REMARK VINA RESULT:      -7.8      2.779      3.930
REMARK  8 active torsions:
REMARK  status: ('A' for Active; 'I' for Inactive)
REMARK    1  A    between atoms: C5_5  and  C6_6 
REMARK       I    between atoms: C6_6  and  N1_8 
REMARK    2  A    between atoms: N1_8  and  C7_9 
REMARK    3  A    between atoms: N2_12  and  O2_13 
REMARK    4  A    between atoms: C13_17  and  N3_18 
REMARK    5  A    between atoms: N3_18  and  C15_20 
REMARK    6  A    between atoms: C15_20  and  C16_21 
REMARK    7  A    between atoms: C20_27  and  O3_28 
REMARK    8  A    between atoms: C22_30  and  O4_31 
ROOT
HETATM    1  C1  UNL     1      21.556   0.478  50.981  1.00  0.00     0.045 C 
HETATM    2  C2  UNL     1      21.782   1.353  50.003  1.00  0.00    -0.030 A 
HETATM    3  C3  UNL     1      21.873   1.065  48.571  1.00  0.00     0.010 A 
HETATM    4  C4  UNL     1      22.106   2.173  47.896  1.00  0.00     0.020 A 
HETATM    5  C5  UNL     1      22.176   3.241  48.887  1.00  0.00     0.059 A 
HETATM    6  C13 UNL     1      21.992   2.787  50.094  1.00  0.00     0.052 A 
ENDROOT
BRANCH   6   7
HETATM    7  N3  UNL     1      21.972   3.436  51.377  1.00  0.00    -0.378 N 
HETATM    8  C14 UNL     1      20.596   3.804  51.746  1.00  0.00     0.150 C 
BRANCH   7   9
HETATM    9  C15 UNL     1      23.062   3.758  52.295  1.00  0.00     0.182 C 
BRANCH   9  10
HETATM   10  C16 UNL     1      24.335   3.265  51.744  1.00  0.00     0.066 A 
HETATM   11  N4  UNL     1      25.010   3.992  50.821  1.00  0.00    -0.244 NA
HETATM   12  C17 UNL     1      26.187   3.578  50.293  1.00  0.00     0.234 A 
HETATM   13  N5  UNL     1      26.710   2.400  50.697  1.00  0.00    -0.241 NA
HETATM   14  C18 UNL     1      26.100   1.625  51.605  1.00  0.00     0.073 A 
HETATM   15  C19 UNL     1      26.615   0.412  52.033  1.00  0.00     0.072 A 
HETATM   16  C25 UNL     1      24.898   2.052  52.141  1.00  0.00     0.022 A 
HETATM   17  C20 UNL     1      25.923  -0.336  52.977  1.00  0.00     0.103 A 
HETATM   18  C22 UNL     1      24.725   0.073  53.522  1.00  0.00     0.102 A 
HETATM   19  C24 UNL     1      24.228   1.291  53.078  1.00  0.00     0.055 A 
BRANCH  17  20
HETATM   20  O3  UNL     1      26.471  -1.541  53.379  1.00  0.00    -0.353 OA
HETATM   21  C21 UNL     1      27.258  -2.364  52.564  1.00  0.00     0.210 C 
ENDBRANCH  17  20
BRANCH  18  22
HETATM   22  O4  UNL     1      24.121  -0.752  54.455  1.00  0.00    -0.353 OA
HETATM   23  C23 UNL     1      22.766  -1.075  54.518  1.00  0.00     0.210 C 
ENDBRANCH  18  22
ENDBRANCH   9  10
ENDBRANCH   7   9
ENDBRANCH   6   7
BRANCH   5  24
HETATM   24  C6  UNL     1      22.419   4.644  48.577  1.00  0.00     0.258 C 
HETATM   25  O1  UNL     1      23.454   5.232  48.174  1.00  0.00    -0.267 OA
HETATM   26  N1  UNL     1      21.368   5.617  48.716  1.00  0.00    -0.323 N 
HETATM   27  H5  UNL     1      20.396   5.341  49.048  1.00  0.00     0.169 HD
BRANCH  26  28
HETATM   28  C7  UNL     1      21.584   6.991  48.417  1.00  0.00     0.034 A 
HETATM   29  C8  UNL     1      21.252   7.242  47.165  1.00  0.00     0.025 A 
HETATM   30  C9  UNL     1      21.387   8.621  46.603  1.00  0.00     0.184 A 
HETATM   31  N2  UNL     1      21.895   9.565  47.549  1.00  0.00    -0.267 N 
HETATM   32  C11 UNL     1      22.242   9.260  48.889  1.00  0.00     0.119 A 
HETATM   33  C12 UNL     1      22.094   8.016  49.316  1.00  0.00     0.048 A 
BRANCH  31  34
HETATM   34  O2  UNL     1      22.009  10.800  47.011  1.00  0.00    -0.283 OA
HETATM   35  C10 UNL     1      21.472  11.765  47.856  1.00  0.00     0.237 C 
ENDBRANCH  31  34
ENDBRANCH  26  28
ENDBRANCH   5  24
TORSDOF 8
ENDMDL
