MODEL 1
REMARK VINA RESULT:      -7.9      0.000      0.000
REMARK  2 active torsions:
REMARK  status: ('A' for Active; 'I' for Inactive)
REMARK    1  A    between atoms: C8_10  and  C9_11 
REMARK    2  A    between atoms: C9_11  and  C10_12 
ROOT
HETATM    1  O1  UNL     1      26.521   5.801  48.694  1.00  0.00    -0.293 OA
HETATM    2  C1  UNL     1      25.370   6.038  48.955  1.00  0.00     0.173 C 
HETATM    3  C2  UNL     1      24.335   6.490  47.916  1.00  0.00     0.137 C 
HETATM    4  C3  UNL     1      22.964   5.953  48.301  1.00  0.00     0.022 C 
HETATM    5  N1  UNL     1      22.371   6.529  49.376  1.00  0.00    -0.268 NA
HETATM    6  C4  UNL     1      22.821   6.294  50.781  1.00  0.00     0.226 C 
HETATM    7  C5  UNL     1      22.106   5.088  51.414  1.00  0.00     0.021 C 
HETATM    8  C6  UNL     1      22.464   3.899  52.011  1.00  0.00     0.009 C 
HETATM    9  C7  UNL     1      23.755   3.173  52.100  1.00  0.00    -0.028 C 
HETATM   10  C8  UNL     1      24.943   3.279  51.517  1.00  0.00     0.036 C 
HETATM   11  N2  UNL     1      25.635   4.373  50.818  1.00  0.00    -0.362 N 
HETATM   12  C11 UNL     1      25.293   5.784  50.458  1.00  0.00     0.251 C 
HETATM   13  N3  UNL     1      23.970   5.675  50.539  1.00  0.00    -0.370 N 
HETATM   14  C12 UNL     1      23.788   2.056  53.083  1.00  0.00     0.067 C 
HETATM   15  C13 UNL     1      22.992   0.916  52.545  1.00  0.00    -0.026 C 
HETATM   16  C14 UNL     1      22.405   0.979  51.372  1.00  0.00    -0.029 C 
HETATM   17  C15 UNL     1      21.662   0.862  50.057  1.00  0.00     0.003 C 
HETATM   18  C16 UNL     1      21.165   1.173  48.838  1.00  0.00     0.051 C 
HETATM   19  C17 UNL     1      21.397   2.482  48.166  1.00  0.00    -0.025 C 
HETATM   20  C18 UNL     1      21.277   3.382  47.207  1.00  0.00    -0.029 C 
HETATM   21  C19 UNL     1      21.525   4.713  46.572  1.00  0.00     0.005 C 
HETATM   22  C20 UNL     1      22.202   4.860  47.729  1.00  0.00     0.079 C 
HETATM   23  H8  UNL     1      26.556   4.005  50.542  1.00  0.00     0.162 HD
HETATM   24  H10 UNL     1      23.705   4.808  49.897  1.00  0.00     0.158 HD
ENDROOT
BRANCH  10  25
HETATM   25  C9  UNL     1      25.737   2.077  51.581  1.00  0.00     0.037 C 
BRANCH  25  26
HETATM   26  C10 UNL     1      26.667   1.193  51.926  1.00  0.00     0.058 C 
HETATM   27 BR1  UNL     1      27.167  -0.469  52.708  1.00  0.00    -0.064 Br
ENDBRANCH  25  26
ENDBRANCH  10  25
TORSDOF 2
ENDMDL
MODEL 2
REMARK VINA RESULT:      -7.5      3.767      5.929
REMARK  2 active torsions:
REMARK  status: ('A' for Active; 'I' for Inactive)
REMARK    1  A    between atoms: C8_10  and  C9_11 
REMARK    2  A    between atoms: C9_11  and  C10_12 
ROOT
HETATM    1  O1  UNL     1      21.621   6.288  51.155  1.00  0.00    -0.293 OA
HETATM    2  C1  UNL     1      22.185   5.325  50.704  1.00  0.00     0.173 C 
HETATM    3  C2  UNL     1      23.596   4.890  51.120  1.00  0.00     0.137 C 
HETATM    4  C3  UNL     1      23.700   3.373  51.048  1.00  0.00     0.022 C 
HETATM    5  N1  UNL     1      23.725   2.830  49.806  1.00  0.00    -0.268 NA
HETATM    6  C4  UNL     1      22.525   2.757  48.920  1.00  0.00     0.226 C 
HETATM    7  C5  UNL     1      21.731   1.459  49.142  1.00  0.00     0.021 C 
HETATM    8  C6  UNL     1      20.441   1.105  49.475  1.00  0.00     0.009 C 
HETATM    9  C7  UNL     1      19.289   1.890  49.983  1.00  0.00    -0.028 C 
HETATM   10  C8  UNL     1      19.117   3.114  50.466  1.00  0.00     0.036 C 
HETATM   11  N2  UNL     1      19.889   4.362  50.364  1.00  0.00    -0.362 N 
HETATM   12  C11 UNL     1      21.173   4.762  49.709  1.00  0.00     0.251 C 
HETATM   13  N3  UNL     1      21.706   3.549  49.601  1.00  0.00    -0.370 N 
HETATM   14  C12 UNL     1      17.978   1.187  49.946  1.00  0.00     0.067 C 
HETATM   15  C13 UNL     1      17.957   0.148  51.015  1.00  0.00    -0.026 C 
HETATM   16  C14 UNL     1      18.977  -0.031  51.821  1.00  0.00    -0.029 C 
HETATM   17  C15 UNL     1      20.044  -0.386  52.837  1.00  0.00     0.003 C 
HETATM   18  C16 UNL     1      21.207  -0.370  53.528  1.00  0.00     0.051 C 
HETATM   19  C17 UNL     1      22.327   0.565  53.227  1.00  0.00    -0.025 C 
HETATM   20  C18 UNL     1      23.528   1.093  53.377  1.00  0.00    -0.029 C 
HETATM   21  C19 UNL     1      24.634   2.041  53.036  1.00  0.00     0.005 C 
HETATM   22  C20 UNL     1      23.712   2.393  52.116  1.00  0.00     0.079 C 
HETATM   23  H8  UNL     1      19.363   5.074  50.890  1.00  0.00     0.162 HD
HETATM   24  H10 UNL     1      21.660   3.113  50.621  1.00  0.00     0.158 HD
ENDROOT
BRANCH  10  25
HETATM   25  C9  UNL     1      17.918   3.271  51.252  1.00  0.00     0.037 C 
BRANCH  25  26
HETATM   26  C10 UNL     1      16.862   3.807  51.854  1.00  0.00     0.058 C 
HETATM   27 BR1  UNL     1      15.106   3.650  52.573  1.00  0.00    -0.064 Br
ENDBRANCH  25  26
ENDBRANCH  10  25
TORSDOF 2
ENDMDL
MODEL 3
REMARK VINA RESULT:      -7.4      3.129      6.171
REMARK  2 active torsions:
REMARK  status: ('A' for Active; 'I' for Inactive)
REMARK    1  A    between atoms: C8_10  and  C9_11 
REMARK    2  A    between atoms: C9_11  and  C10_12 
ROOT
HETATM    1  O1  UNL     1      20.845   1.018  49.505  1.00  0.00    -0.293 OA
HETATM    2  C1  UNL     1      21.379   1.595  50.416  1.00  0.00     0.173 C 
HETATM    3  C2  UNL     1      22.308   0.915  51.430  1.00  0.00     0.137 C 
HETATM    4  C3  UNL     1      23.375   1.903  51.881  1.00  0.00     0.022 C 
HETATM    5  N1  UNL     1      22.960   2.907  52.694  1.00  0.00    -0.268 NA
HETATM    6  C4  UNL     1      22.141   4.060  52.216  1.00  0.00     0.226 C 
HETATM    7  C5  UNL     1      23.022   5.224  51.732  1.00  0.00     0.021 C 
HETATM    8  C6  UNL     1      23.177   5.966  50.581  1.00  0.00     0.009 C 
HETATM    9  C7  UNL     1      22.663   5.788  49.200  1.00  0.00    -0.028 C 
HETATM   10  C8  UNL     1      22.058   4.813  48.533  1.00  0.00     0.036 C 
HETATM   11  N2  UNL     1      21.285   3.631  48.945  1.00  0.00    -0.362 N 
HETATM   12  C11 UNL     1      20.886   3.032  50.256  1.00  0.00     0.251 C 
HETATM   13  N3  UNL     1      21.816   3.609  51.011  1.00  0.00    -0.370 N 
HETATM   14  C12 UNL     1      22.822   6.968  48.308  1.00  0.00     0.067 C 
HETATM   15  C13 UNL     1      24.259   7.102  47.936  1.00  0.00    -0.026 C 
HETATM   16  C14 UNL     1      25.164   6.254  48.365  1.00  0.00    -0.029 C 
HETATM   17  C15 UNL     1      26.343   5.385  48.756  1.00  0.00     0.003 C 
HETATM   18  C16 UNL     1      27.066   4.392  49.322  1.00  0.00     0.051 C 
HETATM   19  C17 UNL     1      26.474   3.338  50.192  1.00  0.00    -0.025 C 
HETATM   20  C18 UNL     1      26.487   2.272  50.972  1.00  0.00    -0.029 C 
HETATM   21  C19 UNL     1      25.855   1.238  51.849  1.00  0.00     0.005 C 
HETATM   22  C20 UNL     1      24.777   1.981  51.523  1.00  0.00     0.079 C 
HETATM   23  H8  UNL     1      20.990   3.160  48.079  1.00  0.00     0.162 HD
HETATM   24  H10 UNL     1      22.783   3.383  50.513  1.00  0.00     0.158 HD
ENDROOT
BRANCH  10  25
HETATM   25  C9  UNL     1      22.165   4.928  47.100  1.00  0.00     0.037 C 
BRANCH  25  26
HETATM   26  C10 UNL     1      21.947   4.771  45.799  1.00  0.00     0.058 C 
HETATM   27 BR1  UNL     1      20.924   4.053  44.363  1.00  0.00    -0.064 Br
ENDBRANCH  25  26
ENDBRANCH  10  25
TORSDOF 2
ENDMDL
MODEL 4
REMARK VINA RESULT:      -7.0      3.428      6.616
REMARK  2 active torsions:
REMARK  status: ('A' for Active; 'I' for Inactive)
REMARK    1  A    between atoms: C8_10  and  C9_11 
REMARK    2  A    between atoms: C9_11  and  C10_12 
ROOT
HETATM    1  O1  UNL     1      21.207   3.264  48.225  1.00  0.00    -0.293 OA
HETATM    2  C1  UNL     1      21.861   3.601  49.178  1.00  0.00     0.173 C 
HETATM    3  C2  UNL     1      22.860   2.683  49.894  1.00  0.00     0.137 C 
HETATM    4  C3  UNL     1      24.013   3.516  50.438  1.00  0.00     0.022 C 
HETATM    5  N1  UNL     1      23.734   4.310  51.501  1.00  0.00    -0.268 NA
HETATM    6  C4  UNL     1      22.923   5.559  51.398  1.00  0.00     0.226 C 
HETATM    7  C5  UNL     1      23.802   6.786  51.099  1.00  0.00     0.021 C 
HETATM    8  C6  UNL     1      23.868   7.773  50.140  1.00  0.00     0.009 C 
HETATM    9  C7  UNL     1      23.203   7.934  48.823  1.00  0.00    -0.028 C 
HETATM   10  C8  UNL     1      22.486   7.155  48.023  1.00  0.00     0.036 C 
HETATM   11  N2  UNL     1      21.707   5.926  48.236  1.00  0.00    -0.362 N 
HETATM   12  C11 UNL     1      21.421   5.044  49.410  1.00  0.00     0.251 C 
HETATM   13  N3  UNL     1      22.452   5.410  50.167  1.00  0.00    -0.370 N 
HETATM   14  C12 UNL     1      23.322   9.287  48.215  1.00  0.00     0.067 C 
HETATM   15  C13 UNL     1      24.716   9.475  47.722  1.00  0.00    -0.026 C 
HETATM   16  C14 UNL     1      25.620   8.531  47.838  1.00  0.00    -0.029 C 
HETATM   17  C15 UNL     1      26.792   7.571  47.882  1.00  0.00     0.003 C 
HETATM   18  C16 UNL     1      27.525   6.459  48.117  1.00  0.00     0.051 C 
HETATM   19  C17 UNL     1      26.980   5.242  48.783  1.00  0.00    -0.025 C 
HETATM   20  C18 UNL     1      27.025   4.023  49.289  1.00  0.00    -0.029 C 
HETATM   21  C19 UNL     1      26.443   2.826  49.970  1.00  0.00     0.005 C 
HETATM   22  C20 UNL     1      25.372   3.646  49.950  1.00  0.00     0.079 C 
HETATM   23  H8  UNL     1      21.300   5.677  47.324  1.00  0.00     0.162 HD
HETATM   24  H10 UNL     1      23.349   5.286  49.524  1.00  0.00     0.158 HD
ENDROOT
BRANCH  10  25
HETATM   25  C9  UNL     1      22.446   7.601  46.652  1.00  0.00     0.037 C 
BRANCH  25  26
HETATM   26  C10 UNL     1      22.583   7.642  45.331  1.00  0.00     0.058 C 
HETATM   27 BR1  UNL     1      23.682   7.733  43.779  1.00  0.00    -0.064 Br
ENDBRANCH  25  26
ENDBRANCH  10  25
TORSDOF 2
ENDMDL
MODEL 5
REMARK VINA RESULT:      -6.9      6.980      9.192
REMARK  2 active torsions:
REMARK  status: ('A' for Active; 'I' for Inactive)
REMARK    1  A    between atoms: C8_10  and  C9_11 
REMARK    2  A    between atoms: C9_11  and  C10_12 
ROOT
HETATM    1  O1  UNL     1      30.484  11.346  44.565  1.00  0.00    -0.293 OA
HETATM    2  C1  UNL     1      30.086  11.342  45.701  1.00  0.00     0.173 C 
HETATM    3  C2  UNL     1      28.629  11.614  46.095  1.00  0.00     0.137 C 
HETATM    4  C3  UNL     1      28.280  10.804  47.336  1.00  0.00     0.022 C 
HETATM    5  N1  UNL     1      28.840  11.215  48.501  1.00  0.00    -0.268 NA
HETATM    6  C4  UNL     1      30.285  11.026  48.824  1.00  0.00     0.226 C 
HETATM    7  C5  UNL     1      30.541   9.683  49.527  1.00  0.00     0.021 C 
HETATM    8  C6  UNL     1      31.325   8.568  49.325  1.00  0.00     0.009 C 
HETATM    9  C7  UNL     1      32.131   8.109  48.166  1.00  0.00    -0.028 C 
HETATM   10  C8  UNL     1      32.248   8.467  46.893  1.00  0.00     0.036 C 
HETATM   11  N2  UNL     1      31.934   9.699  46.154  1.00  0.00    -0.362 N 
HETATM   12  C11 UNL     1      31.342  11.026  46.510  1.00  0.00     0.251 C 
HETATM   13  N3  UNL     1      30.727  10.655  47.629  1.00  0.00    -0.370 N 
HETATM   14  C12 UNL     1      33.068   6.988  48.449  1.00  0.00     0.067 C 
HETATM   15  C13 UNL     1      32.282   5.732  48.614  1.00  0.00    -0.026 C 
HETATM   16  C14 UNL     1      30.975   5.717  48.494  1.00  0.00    -0.029 C 
HETATM   17  C15 UNL     1      29.478   5.500  48.396  1.00  0.00     0.003 C 
HETATM   18  C16 UNL     1      28.160   5.748  48.223  1.00  0.00     0.051 C 
HETATM   19  C17 UNL     1      27.611   7.099  47.920  1.00  0.00    -0.025 C 
HETATM   20  C18 UNL     1      26.665   7.989  47.681  1.00  0.00    -0.029 C 
HETATM   21  C19 UNL     1      26.154   9.364  47.388  1.00  0.00     0.005 C 
HETATM   22  C20 UNL     1      27.480   9.602  47.463  1.00  0.00     0.079 C 
HETATM   23  H8  UNL     1      32.209   9.530  45.176  1.00  0.00     0.162 HD
HETATM   24  H10 UNL     1      30.110   9.775  47.350  1.00  0.00     0.158 HD
ENDROOT
BRANCH  10  25
HETATM   25  C9  UNL     1      32.810   7.445  46.045  1.00  0.00     0.037 C 
BRANCH  25  26
HETATM   26  C10 UNL     1      32.966   6.553  45.073  1.00  0.00     0.058 C 
HETATM   27 BR1  UNL     1      33.203   4.755  44.492  1.00  0.00    -0.064 Br
ENDBRANCH  25  26
ENDBRANCH  10  25
TORSDOF 2
ENDMDL
MODEL 6
REMARK VINA RESULT:      -6.8      8.005     11.137
REMARK  2 active torsions:
REMARK  status: ('A' for Active; 'I' for Inactive)
REMARK    1  A    between atoms: C8_10  and  C9_11 
REMARK    2  A    between atoms: C9_11  and  C10_12 
ROOT
HETATM    1  O1  UNL     1      27.853   7.243  47.521  1.00  0.00    -0.293 OA
HETATM    2  C1  UNL     1      28.871   6.876  48.049  1.00  0.00     0.173 C 
HETATM    3  C2  UNL     1      29.239   5.402  48.261  1.00  0.00     0.137 C 
HETATM    4  C3  UNL     1      30.750   5.240  48.175  1.00  0.00     0.022 C 
HETATM    5  N1  UNL     1      31.469   5.734  49.212  1.00  0.00    -0.268 NA
HETATM    6  C4  UNL     1      31.672   7.196  49.444  1.00  0.00     0.226 C 
HETATM    7  C5  UNL     1      32.925   7.718  48.721  1.00  0.00     0.021 C 
HETATM    8  C6  UNL     1      33.228   8.697  47.799  1.00  0.00     0.009 C 
HETATM    9  C7  UNL     1      32.378   9.552  46.934  1.00  0.00    -0.028 C 
HETATM   10  C8  UNL     1      31.097   9.573  46.589  1.00  0.00     0.036 C 
HETATM   11  N2  UNL     1      29.876   9.013  47.189  1.00  0.00    -0.362 N 
HETATM   12  C11 UNL     1      29.575   8.185  48.398  1.00  0.00     0.251 C 
HETATM   13  N3  UNL     1      30.790   7.676  48.577  1.00  0.00    -0.370 N 
HETATM   14  C12 UNL     1      33.081  10.691  46.284  1.00  0.00     0.067 C 
HETATM   15  C13 UNL     1      33.952  10.164  45.195  1.00  0.00    -0.026 C 
HETATM   16  C14 UNL     1      34.010   8.882  44.920  1.00  0.00    -0.029 C 
HETATM   17  C15 UNL     1      34.211   7.453  44.457  1.00  0.00     0.003 C 
HETATM   18  C16 UNL     1      34.093   6.108  44.374  1.00  0.00     0.051 C 
HETATM   19  C17 UNL     1      33.211   5.305  45.266  1.00  0.00    -0.025 C 
HETATM   20  C18 UNL     1      32.664   4.202  45.744  1.00  0.00    -0.029 C 
HETATM   21  C19 UNL     1      31.775   3.431  46.667  1.00  0.00     0.005 C 
HETATM   22  C20 UNL     1      31.563   4.687  47.109  1.00  0.00     0.079 C 
HETATM   23  H8  UNL     1      29.096   9.295  46.580  1.00  0.00     0.162 HD
HETATM   24  H10 UNL     1      31.072   7.233  47.598  1.00  0.00     0.158 HD
ENDROOT
BRANCH  10  25
HETATM   25  C9  UNL     1      30.828  10.302  45.374  1.00  0.00     0.037 C 
BRANCH  25  26
HETATM   26  C10 UNL     1      30.253  10.724  44.253  1.00  0.00     0.058 C 
HETATM   27 BR1  UNL     1      29.981  10.584  42.374  1.00  0.00    -0.064 Br
ENDBRANCH  25  26
ENDBRANCH  10  25
TORSDOF 2
ENDMDL
MODEL 7
REMARK VINA RESULT:      -6.8      6.475      9.314
REMARK  2 active torsions:
REMARK  status: ('A' for Active; 'I' for Inactive)
REMARK    1  A    between atoms: C8_10  and  C9_11 
REMARK    2  A    between atoms: C9_11  and  C10_12 
ROOT
HETATM    1  O1  UNL     1      26.172  10.086  45.762  1.00  0.00    -0.293 OA
HETATM    2  C1  UNL     1      26.486   9.795  46.887  1.00  0.00     0.173 C 
HETATM    3  C2  UNL     1      25.759   8.741  47.731  1.00  0.00     0.137 C 
HETATM    4  C3  UNL     1      26.756   8.055  48.655  1.00  0.00     0.022 C 
HETATM    5  N1  UNL     1      27.225   8.794  49.691  1.00  0.00    -0.268 NA
HETATM    6  C4  UNL     1      28.199   9.913  49.522  1.00  0.00     0.226 C 
HETATM    7  C5  UNL     1      29.653   9.420  49.612  1.00  0.00     0.021 C 
HETATM    8  C6  UNL     1      30.786   9.458  48.827  1.00  0.00     0.009 C 
HETATM    9  C7  UNL     1      31.007   9.836  47.409  1.00  0.00    -0.028 C 
HETATM   10  C8  UNL     1      30.228  10.079  46.362  1.00  0.00     0.036 C 
HETATM   11  N2  UNL     1      28.815  10.460  46.216  1.00  0.00    -0.362 N 
HETATM   12  C11 UNL     1      27.682  10.705  47.161  1.00  0.00     0.251 C 
HETATM   13  N3  UNL     1      28.165  10.032  48.201  1.00  0.00    -0.370 N 
HETATM   14  C12 UNL     1      32.430  10.017  47.017  1.00  0.00     0.067 C 
HETATM   15  C13 UNL     1      33.084   8.680  46.938  1.00  0.00    -0.026 C 
HETATM   16  C14 UNL     1      32.421   7.574  47.180  1.00  0.00    -0.029 C 
HETATM   17  C15 UNL     1      31.829   6.200  47.421  1.00  0.00     0.003 C 
HETATM   18  C16 UNL     1      30.937   5.226  47.711  1.00  0.00     0.051 C 
HETATM   19  C17 UNL     1      29.514   5.493  48.062  1.00  0.00    -0.025 C 
HETATM   20  C18 UNL     1      28.281   5.180  48.416  1.00  0.00    -0.029 C 
HETATM   21  C19 UNL     1      26.862   5.492  48.773  1.00  0.00     0.005 C 
HETATM   22  C20 UNL     1      27.345   6.734  48.565  1.00  0.00     0.079 C 
HETATM   23  H8  UNL     1      28.643  10.559  45.206  1.00  0.00     0.162 HD
HETATM   24  H10 UNL     1      28.417   9.024  47.810  1.00  0.00     0.158 HD
ENDROOT
BRANCH  10  25
HETATM   25  C9  UNL     1      30.899   9.957  45.091  1.00  0.00     0.037 C 
BRANCH  25  26
HETATM   26  C10 UNL     1      31.302   9.492  43.914  1.00  0.00     0.058 C 
HETATM   27 BR1  UNL     1      32.443   8.380  42.871  1.00  0.00    -0.064 Br
ENDBRANCH  25  26
ENDBRANCH  10  25
TORSDOF 2
ENDMDL
MODEL 8
REMARK VINA RESULT:      -6.7      3.492      6.076
REMARK  2 active torsions:
REMARK  status: ('A' for Active; 'I' for Inactive)
REMARK    1  A    between atoms: C8_10  and  C9_11 
REMARK    2  A    between atoms: C9_11  and  C10_12 
ROOT
HETATM    1  O1  UNL     1      21.669   4.518  52.588  1.00  0.00    -0.293 OA
HETATM    2  C1  UNL     1      22.570   4.191  51.858  1.00  0.00     0.173 C 
HETATM    3  C2  UNL     1      22.710   2.789  51.253  1.00  0.00     0.137 C 
HETATM    4  C3  UNL     1      23.359   2.893  49.879  1.00  0.00     0.022 C 
HETATM    5  N1  UNL     1      24.678   3.209  49.859  1.00  0.00    -0.268 NA
HETATM    6  C4  UNL     1      25.197   4.574  50.171  1.00  0.00     0.226 C 
HETATM    7  C5  UNL     1      25.277   5.454  48.913  1.00  0.00     0.021 C 
HETATM    8  C6  UNL     1      24.785   6.673  48.498  1.00  0.00     0.009 C 
HETATM    9  C7  UNL     1      23.753   7.579  49.060  1.00  0.00    -0.028 C 
HETATM   10  C8  UNL     1      22.827   7.487  50.006  1.00  0.00     0.036 C 
HETATM   11  N2  UNL     1      22.653   6.608  51.172  1.00  0.00    -0.362 N 
HETATM   12  C11 UNL     1      23.414   5.459  51.755  1.00  0.00     0.251 C 
HETATM   13  N3  UNL     1      24.091   5.117  50.663  1.00  0.00    -0.370 N 
HETATM   14  C12 UNL     1      23.716   8.943  48.466  1.00  0.00     0.067 C 
HETATM   15  C13 UNL     1      23.136   8.858  47.096  1.00  0.00    -0.026 C 
HETATM   16  C14 UNL     1      22.736   7.716  46.587  1.00  0.00    -0.029 C 
HETATM   17  C15 UNL     1      22.224   6.504  45.834  1.00  0.00     0.003 C 
HETATM   18  C16 UNL     1      21.890   5.225  45.547  1.00  0.00     0.051 C 
HETATM   19  C17 UNL     1      22.097   4.091  46.490  1.00  0.00    -0.025 C 
HETATM   20  C18 UNL     1      22.069   2.830  46.882  1.00  0.00    -0.029 C 
HETATM   21  C19 UNL     1      22.303   1.718  47.854  1.00  0.00     0.005 C 
HETATM   22  C20 UNL     1      22.766   2.768  48.563  1.00  0.00     0.079 C 
HETATM   23  H8  UNL     1      21.788   6.912  51.640  1.00  0.00     0.162 HD
HETATM   24  H10 UNL     1      23.325   4.992  49.868  1.00  0.00     0.158 HD
ENDROOT
BRANCH  10  25
HETATM   25  C9  UNL     1      21.764   8.455  49.883  1.00  0.00     0.037 C 
BRANCH  25  26
HETATM   26  C10 UNL     1      20.557   9.006  49.819  1.00  0.00     0.058 C 
HETATM   27 BR1  UNL     1      19.358  10.292  49.092  1.00  0.00    -0.064 Br
ENDBRANCH  25  26
ENDBRANCH  10  25
TORSDOF 2
ENDMDL
MODEL 9
REMARK VINA RESULT:      -6.2     18.934     21.715
REMARK  2 active torsions:
REMARK  status: ('A' for Active; 'I' for Inactive)
REMARK    1  A    between atoms: C8_10  and  C9_11 
REMARK    2  A    between atoms: C9_11  and  C10_12 
ROOT
HETATM    1  O1  UNL     1      40.346   6.099  54.694  1.00  0.00    -0.293 OA
HETATM    2  C1  UNL     1      41.355   6.178  55.345  1.00  0.00     0.173 C 
HETATM    3  C2  UNL     1      41.964   5.004  56.122  1.00  0.00     0.137 C 
HETATM    4  C3  UNL     1      43.481   5.139  56.137  1.00  0.00     0.022 C 
HETATM    5  N1  UNL     1      43.989   6.126  56.916  1.00  0.00    -0.268 NA
HETATM    6  C4  UNL     1      43.896   7.575  56.565  1.00  0.00     0.226 C 
HETATM    7  C5  UNL     1      45.098   8.035  55.723  1.00  0.00     0.021 C 
HETATM    8  C6  UNL     1      45.307   8.635  54.500  1.00  0.00     0.009 C 
HETATM    9  C7  UNL     1      44.406   8.904  53.352  1.00  0.00    -0.028 C 
HETATM   10  C8  UNL     1      43.183   8.526  52.999  1.00  0.00     0.036 C 
HETATM   11  N2  UNL     1      42.032   7.993  53.743  1.00  0.00    -0.362 N 
HETATM   12  C11 UNL     1      41.768   7.638  55.172  1.00  0.00     0.251 C 
HETATM   13  N3  UNL     1      43.032   7.498  55.561  1.00  0.00    -0.370 N 
HETATM   14  C12 UNL     1      44.949   9.834  52.325  1.00  0.00     0.067 C 
HETATM   15  C13 UNL     1      46.006   9.130  51.546  1.00  0.00    -0.026 C 
HETATM   16  C14 UNL     1      46.326   7.881  51.793  1.00  0.00    -0.029 C 
HETATM   17  C15 UNL     1      46.832   6.458  51.927  1.00  0.00     0.003 C 
HETATM   18  C16 UNL     1      46.971   5.188  52.371  1.00  0.00     0.051 C 
HETATM   19  C17 UNL     1      46.167   4.615  53.486  1.00  0.00    -0.025 C 
HETATM   20  C18 UNL     1      45.787   3.686  54.344  1.00  0.00    -0.029 C 
HETATM   21  C19 UNL     1      44.967   3.152  55.475  1.00  0.00     0.005 C 
HETATM   22  C20 UNL     1      44.484   4.409  55.389  1.00  0.00     0.079 C 
HETATM   23  H8  UNL     1      41.279   7.856  53.056  1.00  0.00     0.162 HD
HETATM   24  H10 UNL     1      43.487   6.789  54.837  1.00  0.00     0.158 HD
ENDROOT
BRANCH  10  25
HETATM   25  C9  UNL     1      42.908   8.671  51.590  1.00  0.00     0.037 C 
BRANCH  25  26
HETATM   26  C10 UNL     1      42.277   8.702  50.422  1.00  0.00     0.058 C 
HETATM   27 BR1  UNL     1      40.702   8.459  49.380  1.00  0.00    -0.064 Br
ENDBRANCH  25  26
ENDBRANCH  10  25
TORSDOF 2
ENDMDL
