MODEL 1
REMARK VINA RESULT:      -8.0      0.000      0.000
REMARK  6 active torsions:
REMARK  status: ('A' for Active; 'I' for Inactive)
REMARK    1  A    between atoms: C1_2  and  C2_3 
REMARK    2  A    between atoms: C7_11  and  N3_12 
REMARK    3  A    between atoms: C14_20  and  N4_21 
REMARK    4  A    between atoms: N4_21  and  C15_22 
REMARK    5  A    between atoms: C15_22  and  C16_23 
REMARK    6  A    between atoms: C16_23  and  C17_24 
ROOT
HETATM    1  C2  UNL     1      23.274   5.103  50.623  1.00  0.00     0.237 C 
HETATM    2  O2  UNL     1      22.868   4.559  49.394  1.00  0.00    -0.345 OA
HETATM    3  C3  UNL     1      23.272   3.281  49.062  1.00  0.00     0.137 C 
HETATM    4  C4  UNL     1      22.668   2.139  48.898  1.00  0.00     0.043 C 
HETATM    5  C5  UNL     1      21.246   1.844  49.028  1.00  0.00     0.120 C 
HETATM    6  N1  UNL     1      21.302   3.073  49.294  1.00  0.00    -0.254 NA
HETATM    7  C6  UNL     1      20.242   3.948  49.634  1.00  0.00     0.229 C 
HETATM    8  N2  UNL     1      19.888   4.199  50.840  1.00  0.00    -0.253 NA
HETATM    9  C7  UNL     1      20.430   3.698  52.049  1.00  0.00     0.234 C 
HETATM   10  C13 UNL     1      21.881   3.741  52.222  1.00  0.00     0.049 C 
HETATM   11  C14 UNL     1      23.038   4.208  51.780  1.00  0.00     0.041 C 
ENDROOT
BRANCH  11  12
HETATM   12  N4  UNL     1      24.224   3.828  52.500  1.00  0.00    -0.391 N 
HETATM   13  H14 UNL     1      24.675   4.787  52.436  1.00  0.00     0.159 HD
BRANCH  12  14
HETATM   14  C15 UNL     1      24.674   2.601  53.106  1.00  0.00     0.120 C 
BRANCH  14  15
HETATM   15  C16 UNL     1      24.627   1.504  52.096  1.00  0.00     0.024 C 
BRANCH  15  16
HETATM   16  C17 UNL     1      25.947   0.774  51.982  1.00  0.00    -0.013 C 
HETATM   17  C18 UNL     1      25.790  -0.491  52.832  1.00  0.00     0.005 C 
HETATM   18  C19 UNL     1      27.078  -1.308  52.751  1.00  0.00     0.000 C 
HETATM   19  C20 UNL     1      28.117  -0.535  53.513  1.00  0.00     0.000 C 
HETATM   20  C21 UNL     1      27.682   0.887  53.788  1.00  0.00     0.000 C 
HETATM   21  C22 UNL     1      27.089   1.560  52.576  1.00  0.00     0.005 C 
ENDBRANCH  15  16
ENDBRANCH  14  15
ENDBRANCH  12  14
ENDBRANCH  11  12
BRANCH   1  22
HETATM   22  C1  UNL     1      22.715   6.467  50.852  1.00  0.00     0.269 C 
HETATM   23  O1  UNL     1      21.774   7.200  50.833  1.00  0.00    -0.304 OA
ENDBRANCH   1  22
BRANCH   9  24
HETATM   24  N3  UNL     1      19.942   2.317  52.171  1.00  0.00    -0.359 N 
HETATM   25  C8  UNL     1      20.894   1.459  52.819  1.00  0.00     0.107 A 
HETATM   26  C9  UNL     1      20.617   0.177  53.009  1.00  0.00     0.026 A 
HETATM   27 BR1  UNL     1      21.877  -0.964  53.869  1.00  0.00    -0.050 Br
HETATM   28  C10 UNL     1      19.369  -0.403  52.578  1.00  0.00     0.018 A 
HETATM   29  C11 UNL     1      18.517   0.402  51.986  1.00  0.00    -0.006 A 
HETATM   30  C12 UNL     1      18.658   1.843  51.693  1.00  0.00     0.152 A 
ENDBRANCH   9  24
TORSDOF 6
ENDMDL
MODEL 2
REMARK VINA RESULT:      -7.6      2.491      4.319
REMARK  6 active torsions:
REMARK  status: ('A' for Active; 'I' for Inactive)
REMARK    1  A    between atoms: C1_2  and  C2_3 
REMARK    2  A    between atoms: C7_11  and  N3_12 
REMARK    3  A    between atoms: C14_20  and  N4_21 
REMARK    4  A    between atoms: N4_21  and  C15_22 
REMARK    5  A    between atoms: C15_22  and  C16_23 
REMARK    6  A    between atoms: C16_23  and  C17_24 
ROOT
HETATM    1  C2  UNL     1      19.201   4.090  50.326  1.00  0.00     0.237 C 
HETATM    2  O2  UNL     1      19.310   3.058  49.381  1.00  0.00    -0.345 OA
HETATM    3  C3  UNL     1      20.522   2.852  48.752  1.00  0.00     0.137 C 
HETATM    4  C4  UNL     1      21.413   1.902  48.761  1.00  0.00     0.043 C 
HETATM    5  C5  UNL     1      21.391   0.652  49.511  1.00  0.00     0.120 C 
HETATM    6  N1  UNL     1      20.316   1.206  49.860  1.00  0.00    -0.254 NA
HETATM    7  C6  UNL     1      19.332   0.729  50.759  1.00  0.00     0.229 C 
HETATM    8  N2  UNL     1      19.316   1.011  52.009  1.00  0.00    -0.253 NA
HETATM    9  C7  UNL     1      20.216   1.813  52.752  1.00  0.00     0.234 C 
HETATM   10  C13 UNL     1      20.557   3.132  52.224  1.00  0.00     0.049 C 
HETATM   11  C14 UNL     1      20.277   4.083  51.346  1.00  0.00     0.041 C 
ENDROOT
BRANCH  11  12
HETATM   12  N4  UNL     1      21.091   5.269  51.371  1.00  0.00    -0.391 N 
HETATM   13  H14 UNL     1      20.319   5.896  51.739  1.00  0.00     0.159 HD
BRANCH  12  14
HETATM   14  C15 UNL     1      22.463   5.546  51.029  1.00  0.00     0.120 C 
BRANCH  14  15
HETATM   15  C16 UNL     1      22.561   5.830  49.567  1.00  0.00     0.024 C 
BRANCH  15  16
HETATM   16  C17 UNL     1      23.725   5.110  48.921  1.00  0.00    -0.013 C 
HETATM   17  C18 UNL     1      24.260   4.154  49.992  1.00  0.00     0.005 C 
HETATM   18  C19 UNL     1      25.428   3.361  49.413  1.00  0.00     0.000 C 
HETATM   19  C20 UNL     1      26.563   4.333  49.255  1.00  0.00     0.000 C 
HETATM   20  C21 UNL     1      26.102   5.770  49.369  1.00  0.00     0.000 C 
HETATM   21  C22 UNL     1      24.853   6.047  48.570  1.00  0.00     0.005 C 
ENDBRANCH  15  16
ENDBRANCH  14  15
ENDBRANCH  12  14
ENDBRANCH  11  12
BRANCH   1  22
HETATM   22  C1  UNL     1      17.847   4.150  50.949  1.00  0.00     0.269 C 
HETATM   23  O1  UNL     1      17.180   4.227  51.935  1.00  0.00    -0.304 OA
ENDBRANCH   1  22
BRANCH   9  24
HETATM   24  N3  UNL     1      21.431   1.004  52.929  1.00  0.00    -0.359 N 
HETATM   25  C8  UNL     1      22.624   1.801  52.895  1.00  0.00     0.107 A 
HETATM   26  C9  UNL     1      23.812   1.230  53.035  1.00  0.00     0.026 A 
HETATM   27 BR1  UNL     1      25.399   2.285  52.992  1.00  0.00    -0.050 Br
HETATM   28  C10 UNL     1      23.956  -0.192  53.223  1.00  0.00     0.018 A 
HETATM   29  C11 UNL     1      22.849  -0.898  53.248  1.00  0.00    -0.006 A 
HETATM   30  C12 UNL     1      21.453  -0.435  53.108  1.00  0.00     0.152 A 
ENDBRANCH   9  24
TORSDOF 6
ENDMDL
MODEL 3
REMARK VINA RESULT:      -7.3      1.902      2.231
REMARK  6 active torsions:
REMARK  status: ('A' for Active; 'I' for Inactive)
REMARK    1  A    between atoms: C1_2  and  C2_3 
REMARK    2  A    between atoms: C7_11  and  N3_12 
REMARK    3  A    between atoms: C14_20  and  N4_21 
REMARK    4  A    between atoms: N4_21  and  C15_22 
REMARK    5  A    between atoms: C15_22  and  C16_23 
REMARK    6  A    between atoms: C16_23  and  C17_24 
ROOT
HETATM    1  C2  UNL     1      23.793   3.667  50.628  1.00  0.00     0.237 C 
HETATM    2  O2  UNL     1      23.204   3.765  49.357  1.00  0.00    -0.345 OA
HETATM    3  C3  UNL     1      23.027   2.616  48.612  1.00  0.00     0.137 C 
HETATM    4  C4  UNL     1      21.995   1.939  48.197  1.00  0.00     0.043 C 
HETATM    5  C5  UNL     1      20.582   2.222  48.419  1.00  0.00     0.120 C 
HETATM    6  N1  UNL     1      21.154   3.164  49.027  1.00  0.00    -0.254 NA
HETATM    7  C6  UNL     1      20.566   4.231  49.747  1.00  0.00     0.229 C 
HETATM    8  N2  UNL     1      20.343   4.199  51.009  1.00  0.00    -0.253 NA
HETATM    9  C7  UNL     1      20.608   3.160  51.933  1.00  0.00     0.234 C 
HETATM   10  C13 UNL     1      21.937   2.551  51.920  1.00  0.00     0.049 C 
HETATM   11  C14 UNL     1      23.187   2.624  51.489  1.00  0.00     0.041 C 
ENDROOT
BRANCH  11  12
HETATM   12  N4  UNL     1      24.091   1.584  51.903  1.00  0.00    -0.391 N 
HETATM   13  H14 UNL     1      24.210   1.180  50.929  1.00  0.00     0.159 HD
BRANCH  12  14
HETATM   14  C15 UNL     1      24.656   1.199  53.170  1.00  0.00     0.120 C 
BRANCH  14  15
HETATM   15  C16 UNL     1      25.861   2.033  53.450  1.00  0.00     0.024 C 
BRANCH  15  16
HETATM   16  C17 UNL     1      27.136   1.379  52.962  1.00  0.00    -0.013 C 
HETATM   17  C18 UNL     1      27.175   0.005  53.639  1.00  0.00     0.005 C 
HETATM   18  C19 UNL     1      28.425  -0.741  53.179  1.00  0.00     0.000 C 
HETATM   19  C20 UNL     1      29.594  -0.038  53.810  1.00  0.00     0.000 C 
HETATM   20  C21 UNL     1      29.212   1.316  54.366  1.00  0.00     0.000 C 
HETATM   21  C22 UNL     1      28.368   2.122  53.411  1.00  0.00     0.005 C 
ENDBRANCH  15  16
ENDBRANCH  14  15
ENDBRANCH  12  14
ENDBRANCH  11  12
BRANCH   1  22
HETATM   22  C1  UNL     1      23.867   4.985  51.323  1.00  0.00     0.269 C 
HETATM   23  O1  UNL     1      23.430   6.086  51.472  1.00  0.00    -0.304 OA
ENDBRANCH   1  22
BRANCH   9  24
HETATM   24  N3  UNL     1      19.577   2.138  51.703  1.00  0.00    -0.359 N 
HETATM   25  C8  UNL     1      18.262   2.707  51.604  1.00  0.00     0.107 A 
HETATM   26  C9  UNL     1      17.211   1.925  51.400  1.00  0.00     0.026 A 
HETATM   27 BR1  UNL     1      15.464   2.676  51.268  1.00  0.00    -0.050 Br
HETATM   28  C10 UNL     1      17.339   0.495  51.273  1.00  0.00     0.018 A 
HETATM   29  C11 UNL     1      18.552   0.001  51.370  1.00  0.00    -0.006 A 
HETATM   30  C12 UNL     1      19.825   0.714  51.595  1.00  0.00     0.152 A 
ENDBRANCH   9  24
TORSDOF 6
ENDMDL
MODEL 4
REMARK VINA RESULT:      -7.1      2.871      5.094
REMARK  6 active torsions:
REMARK  status: ('A' for Active; 'I' for Inactive)
REMARK    1  A    between atoms: C1_2  and  C2_3 
REMARK    2  A    between atoms: C7_11  and  N3_12 
REMARK    3  A    between atoms: C14_20  and  N4_21 
REMARK    4  A    between atoms: N4_21  and  C15_22 
REMARK    5  A    between atoms: C15_22  and  C16_23 
REMARK    6  A    between atoms: C16_23  and  C17_24 
ROOT
HETATM    1  C2  UNL     1      22.414   2.065  51.317  1.00  0.00     0.237 C 
HETATM    2  O2  UNL     1      21.533   3.075  51.736  1.00  0.00    -0.345 OA
HETATM    3  C3  UNL     1      22.050   4.211  52.326  1.00  0.00     0.137 C 
HETATM    4  C4  UNL     1      22.121   5.469  51.995  1.00  0.00     0.043 C 
HETATM    5  C5  UNL     1      21.625   6.111  50.784  1.00  0.00     0.120 C 
HETATM    6  N1  UNL     1      21.314   4.905  50.606  1.00  0.00    -0.254 NA
HETATM    7  C6  UNL     1      20.647   4.322  49.503  1.00  0.00     0.229 C 
HETATM    8  N2  UNL     1      21.254   3.807  48.498  1.00  0.00    -0.253 NA
HETATM    9  C7  UNL     1      22.645   3.702  48.256  1.00  0.00     0.234 C 
HETATM   10  C13 UNL     1      23.491   3.178  49.327  1.00  0.00     0.049 C 
HETATM   11  C14 UNL     1      23.545   2.561  50.497  1.00  0.00     0.041 C 
ENDROOT
BRANCH  11  12
HETATM   12  N4  UNL     1      24.848   2.316  51.057  1.00  0.00    -0.391 N 
HETATM   13  H14 UNL     1      25.365   2.474  50.145  1.00  0.00     0.159 HD
BRANCH  12  14
HETATM   14  C15 UNL     1      25.320   1.977  52.375  1.00  0.00     0.120 C 
BRANCH  14  15
HETATM   15  C16 UNL     1      25.610   0.515  52.437  1.00  0.00     0.024 C 
BRANCH  15  16
HETATM   16  C17 UNL     1      27.093   0.223  52.378  1.00  0.00    -0.013 C 
HETATM   17  C18 UNL     1      27.278  -1.109  53.113  1.00  0.00     0.005 C 
HETATM   18  C19 UNL     1      28.754  -1.496  53.079  1.00  0.00     0.000 C 
HETATM   19  C20 UNL     1      29.466  -0.529  53.982  1.00  0.00     0.000 C 
HETATM   20  C21 UNL     1      28.607   0.667  54.327  1.00  0.00     0.000 C 
HETATM   21  C22 UNL     1      27.908   1.250  53.124  1.00  0.00     0.005 C 
ENDBRANCH  15  16
ENDBRANCH  14  15
ENDBRANCH  12  14
ENDBRANCH  11  12
BRANCH   1  22
HETATM   22  C1  UNL     1      21.705   0.931  50.656  1.00  0.00     0.269 C 
HETATM   23  O1  UNL     1      20.845   0.556  49.918  1.00  0.00    -0.304 OA
ENDBRANCH   1  22
BRANCH   9  24
HETATM   24  N3  UNL     1      23.092   5.047  47.865  1.00  0.00    -0.359 N 
HETATM   25  C8  UNL     1      24.233   5.481  48.620  1.00  0.00     0.107 A 
HETATM   26  C9  UNL     1      24.766   6.675  48.397  1.00  0.00     0.026 A 
HETATM   27 BR1  UNL     1      26.281   7.255  49.396  1.00  0.00    -0.050 Br
HETATM   28  C10 UNL     1      24.230   7.574  47.406  1.00  0.00     0.018 A 
HETATM   29  C11 UNL     1      23.184   7.153  46.731  1.00  0.00    -0.006 A 
HETATM   30  C12 UNL     1      22.467   5.867  46.846  1.00  0.00     0.152 A 
ENDBRANCH   9  24
TORSDOF 6
ENDMDL
MODEL 5
REMARK VINA RESULT:      -7.1      3.089      4.730
REMARK  6 active torsions:
REMARK  status: ('A' for Active; 'I' for Inactive)
REMARK    1  A    between atoms: C1_2  and  C2_3 
REMARK    2  A    between atoms: C7_11  and  N3_12 
REMARK    3  A    between atoms: C14_20  and  N4_21 
REMARK    4  A    between atoms: N4_21  and  C15_22 
REMARK    5  A    between atoms: C15_22  and  C16_23 
REMARK    6  A    between atoms: C16_23  and  C17_24 
ROOT
HETATM    1  C2  UNL     1      22.898   5.662  49.635  1.00  0.00     0.237 C 
HETATM    2  O2  UNL     1      22.162   4.795  48.812  1.00  0.00    -0.345 OA
HETATM    3  C3  UNL     1      22.797   3.702  48.256  1.00  0.00     0.137 C 
HETATM    4  C4  UNL     1      22.704   2.411  48.401  1.00  0.00     0.043 C 
HETATM    5  C5  UNL     1      21.814   1.665  49.282  1.00  0.00     0.120 C 
HETATM    6  N1  UNL     1      21.511   2.862  49.528  1.00  0.00    -0.254 NA
HETATM    7  C6  UNL     1      20.544   3.355  50.436  1.00  0.00     0.229 C 
HETATM    8  N2  UNL     1      20.808   3.682  51.647  1.00  0.00    -0.253 NA
HETATM    9  C7  UNL     1      22.047   3.635  52.331  1.00  0.00     0.234 C 
HETATM   10  C13 UNL     1      23.217   4.215  51.675  1.00  0.00     0.049 C 
HETATM   11  C14 UNL     1      23.677   4.970  50.689  1.00  0.00     0.041 C 
ENDROOT
BRANCH  11  12
HETATM   12  N4  UNL     1      25.100   5.170  50.616  1.00  0.00    -0.391 N 
HETATM   13  H14 UNL     1      25.086   6.088  51.148  1.00  0.00     0.159 HD
BRANCH  12  14
HETATM   14  C15 UNL     1      26.185   4.419  50.039  1.00  0.00     0.120 C 
BRANCH  14  15
HETATM   15  C16 UNL     1      26.521   4.983  48.699  1.00  0.00     0.024 C 
BRANCH  15  16
HETATM   16  C17 UNL     1      27.149   6.356  48.798  1.00  0.00    -0.013 C 
HETATM   17  C18 UNL     1      26.345   7.244  47.843  1.00  0.00     0.005 C 
HETATM   18  C19 UNL     1      26.899   8.666  47.900  1.00  0.00     0.000 C 
HETATM   19  C20 UNL     1      28.247   8.621  47.238  1.00  0.00     0.000 C 
HETATM   20  C21 UNL     1      28.751   7.205  47.066  1.00  0.00     0.000 C 
HETATM   21  C22 UNL     1      28.576   6.369  48.309  1.00  0.00     0.005 C 
ENDBRANCH  15  16
ENDBRANCH  14  15
ENDBRANCH  12  14
ENDBRANCH  11  12
BRANCH   1  22
HETATM   22  C1  UNL     1      22.058   6.760  50.197  1.00  0.00     0.269 C 
HETATM   23  O1  UNL     1      21.514   7.248  51.140  1.00  0.00    -0.304 OA
ENDBRANCH   1  22
BRANCH   9  24
HETATM   24  N3  UNL     1      22.286   2.217  52.640  1.00  0.00    -0.359 N 
HETATM   25  C8  UNL     1      23.672   1.862  52.523  1.00  0.00     0.107 A 
HETATM   26  C9  UNL     1      24.065   0.619  52.764  1.00  0.00     0.026 A 
HETATM   27 BR1  UNL     1      25.903   0.143  52.611  1.00  0.00    -0.050 Br
HETATM   28  C10 UNL     1      23.133  -0.413  53.144  1.00  0.00     0.018 A 
HETATM   29  C11 UNL     1      21.871  -0.062  53.241  1.00  0.00    -0.006 A 
HETATM   30  C12 UNL     1      21.260   1.262  53.012  1.00  0.00     0.152 A 
ENDBRANCH   9  24
TORSDOF 6
ENDMDL
MODEL 6
REMARK VINA RESULT:      -6.9      8.283     10.023
REMARK  6 active torsions:
REMARK  status: ('A' for Active; 'I' for Inactive)
REMARK    1  A    between atoms: C1_2  and  C2_3 
REMARK    2  A    between atoms: C7_11  and  N3_12 
REMARK    3  A    between atoms: C14_20  and  N4_21 
REMARK    4  A    between atoms: N4_21  and  C15_22 
REMARK    5  A    between atoms: C15_22  and  C16_23 
REMARK    6  A    between atoms: C16_23  and  C17_24 
ROOT
HETATM    1  C2  UNL     1      31.175  10.569  47.389  1.00  0.00     0.237 C 
HETATM    2  O2  UNL     1      30.204  10.745  46.390  1.00  0.00    -0.345 OA
HETATM    3  C3  UNL     1      29.988   9.728  45.481  1.00  0.00     0.137 C 
HETATM    4  C4  UNL     1      29.002   8.917  45.226  1.00  0.00     0.043 C 
HETATM    5  C5  UNL     1      27.707   8.834  45.891  1.00  0.00     0.120 C 
HETATM    6  N1  UNL     1      28.282   9.764  46.515  1.00  0.00    -0.254 NA
HETATM    7  C6  UNL     1      27.789  10.535  47.595  1.00  0.00     0.229 C 
HETATM    8  N2  UNL     1      27.988  10.241  48.826  1.00  0.00    -0.253 NA
HETATM    9  C7  UNL     1      28.699   9.147  49.377  1.00  0.00     0.234 C 
HETATM   10  C13 UNL     1      30.035   8.864  48.855  1.00  0.00     0.049 C 
HETATM   11  C14 UNL     1      31.053   9.286  48.122  1.00  0.00     0.041 C 
ENDROOT
BRANCH  11  12
HETATM   12  N4  UNL     1      32.198   8.422  48.017  1.00  0.00    -0.391 N 
HETATM   13  H14 UNL     1      32.880   9.207  47.808  1.00  0.00     0.159 HD
BRANCH  12  14
HETATM   14  C15 UNL     1      32.390   7.000  48.145  1.00  0.00     0.120 C 
BRANCH  14  15
HETATM   15  C16 UNL     1      33.622   6.598  47.404  1.00  0.00     0.024 C 
BRANCH  15  16
HETATM   16  C17 UNL     1      33.455   5.272  46.694  1.00  0.00    -0.013 C 
HETATM   17  C18 UNL     1      32.224   4.618  47.332  1.00  0.00     0.005 C 
HETATM   18  C19 UNL     1      31.965   3.276  46.652  1.00  0.00     0.000 C 
HETATM   19  C20 UNL     1      33.076   2.361  47.085  1.00  0.00     0.000 C 
HETATM   20  C21 UNL     1      34.221   3.117  47.721  1.00  0.00     0.000 C 
HETATM   21  C22 UNL     1      34.618   4.343  46.938  1.00  0.00     0.005 C 
ENDBRANCH  15  16
ENDBRANCH  14  15
ENDBRANCH  12  14
ENDBRANCH  11  12
BRANCH   1  22
HETATM   22  C1  UNL     1      31.251  11.734  48.318  1.00  0.00     0.269 C 
HETATM   23  O1  UNL     1      30.778  12.348  49.225  1.00  0.00    -0.304 OA
ENDBRANCH   1  22
BRANCH   9  24
HETATM   24  N3  UNL     1      27.828   7.974  49.215  1.00  0.00    -0.359 N 
HETATM   25  C8  UNL     1      26.560   8.145  49.866  1.00  0.00     0.107 A 
HETATM   26  C9  UNL     1      25.652   7.180  49.823  1.00  0.00     0.026 A 
HETATM   27 BR1  UNL     1      23.968   7.404  50.685  1.00  0.00    -0.050 Br
HETATM   28  C10 UNL     1      25.896   5.937  49.135  1.00  0.00     0.018 A 
HETATM   29  C11 UNL     1      27.064   5.805  48.551  1.00  0.00    -0.006 A 
HETATM   30  C12 UNL     1      28.185   6.765  48.497  1.00  0.00     0.152 A 
ENDBRANCH   9  24
TORSDOF 6
ENDMDL
MODEL 7
REMARK VINA RESULT:      -6.9      3.867      6.572
REMARK  6 active torsions:
REMARK  status: ('A' for Active; 'I' for Inactive)
REMARK    1  A    between atoms: C1_2  and  C2_3 
REMARK    2  A    between atoms: C7_11  and  N3_12 
REMARK    3  A    between atoms: C14_20  and  N4_21 
REMARK    4  A    between atoms: N4_21  and  C15_22 
REMARK    5  A    between atoms: C15_22  and  C16_23 
REMARK    6  A    between atoms: C16_23  and  C17_24 
ROOT
HETATM    1  C2  UNL     1      22.486   4.155  50.604  1.00  0.00     0.237 C 
HETATM    2  O2  UNL     1      21.669   5.206  50.161  1.00  0.00    -0.345 OA
HETATM    3  C3  UNL     1      21.572   6.349  50.931  1.00  0.00     0.137 C 
HETATM    4  C4  UNL     1      21.939   7.590  50.786  1.00  0.00     0.043 C 
HETATM    5  C5  UNL     1      22.630   8.199  49.656  1.00  0.00     0.120 C 
HETATM    6  N1  UNL     1      22.521   6.997  49.300  1.00  0.00    -0.254 NA
HETATM    7  C6  UNL     1      22.961   6.392  48.099  1.00  0.00     0.229 C 
HETATM    8  N2  UNL     1      24.101   5.820  47.968  1.00  0.00    -0.253 NA
HETATM    9  C7  UNL     1      25.133   5.663  48.925  1.00  0.00     0.234 C 
HETATM   10  C13 UNL     1      24.773   5.156  50.247  1.00  0.00     0.049 C 
HETATM   11  C14 UNL     1      23.848   4.584  51.002  1.00  0.00     0.041 C 
ENDROOT
BRANCH  11  12
HETATM   12  N4  UNL     1      24.185   4.321  52.377  1.00  0.00    -0.391 N 
HETATM   13  H14 UNL     1      24.417   5.331  52.603  1.00  0.00     0.159 HD
BRANCH  12  14
HETATM   14  C15 UNL     1      24.209   3.131  53.188  1.00  0.00     0.120 C 
BRANCH  14  15
HETATM   15  C16 UNL     1      25.016   2.080  52.503  1.00  0.00     0.024 C 
BRANCH  15  16
HETATM   16  C17 UNL     1      24.245   0.791  52.325  1.00  0.00    -0.013 C 
HETATM   17  C18 UNL     1      22.809   1.111  52.753  1.00  0.00     0.005 C 
HETATM   18  C19 UNL     1      21.947  -0.137  52.579  1.00  0.00     0.000 C 
HETATM   19  C20 UNL     1      22.389  -1.107  53.638  1.00  0.00     0.000 C 
HETATM   20  C21 UNL     1      23.707  -0.706  54.263  1.00  0.00     0.000 C 
HETATM   21  C22 UNL     1      24.739  -0.302  53.240  1.00  0.00     0.005 C 
ENDBRANCH  15  16
ENDBRANCH  14  15
ENDBRANCH  12  14
ENDBRANCH  11  12
BRANCH   1  22
HETATM   22  C1  UNL     1      22.523   3.018  49.639  1.00  0.00     0.269 C 
HETATM   23  O1  UNL     1      23.034   2.497  48.695  1.00  0.00    -0.304 OA
ENDBRANCH   1  22
BRANCH   9  24
HETATM   24  N3  UNL     1      25.782   6.977  49.041  1.00  0.00    -0.359 N 
HETATM   25  C8  UNL     1      26.232   7.475  47.772  1.00  0.00     0.107 A 
HETATM   26  C9  UNL     1      26.844   8.649  47.695  1.00  0.00     0.026 A 
HETATM   27 BR1  UNL     1      27.443   9.313  46.013  1.00  0.00    -0.050 Br
HETATM   28  C10 UNL     1      27.081   9.462  48.862  1.00  0.00     0.018 A 
HETATM   29  C11 UNL     1      26.661   8.982  50.010  1.00  0.00    -0.006 A 
HETATM   30  C12 UNL     1      25.969   7.706  50.281  1.00  0.00     0.152 A 
ENDBRANCH   9  24
TORSDOF 6
ENDMDL
MODEL 8
REMARK VINA RESULT:      -6.7      7.623      9.537
REMARK  6 active torsions:
REMARK  status: ('A' for Active; 'I' for Inactive)
REMARK    1  A    between atoms: C1_2  and  C2_3 
REMARK    2  A    between atoms: C7_11  and  N3_12 
REMARK    3  A    between atoms: C14_20  and  N4_21 
REMARK    4  A    between atoms: N4_21  and  C15_22 
REMARK    5  A    between atoms: C15_22  and  C16_23 
REMARK    6  A    between atoms: C16_23  and  C17_24 
ROOT
HETATM    1  C2  UNL     1      28.489  11.834  47.170  1.00  0.00     0.237 C 
HETATM    2  O2  UNL     1      27.197  11.720  46.632  1.00  0.00    -0.345 OA
HETATM    3  C3  UNL     1      26.972  10.806  45.621  1.00  0.00     0.137 C 
HETATM    4  C4  UNL     1      26.287   9.704  45.513  1.00  0.00     0.043 C 
HETATM    5  C5  UNL     1      25.476   9.043  46.528  1.00  0.00     0.120 C 
HETATM    6  N1  UNL     1      25.921  10.050  47.138  1.00  0.00    -0.254 NA
HETATM    7  C6  UNL     1      25.687  10.439  48.479  1.00  0.00     0.229 C 
HETATM    8  N2  UNL     1      26.451  10.115  49.456  1.00  0.00    -0.253 NA
HETATM    9  C7  UNL     1      27.636   9.340  49.440  1.00  0.00     0.234 C 
HETATM   10  C13 UNL     1      28.658   9.667  48.448  1.00  0.00     0.049 C 
HETATM   11  C14 UNL     1      29.095  10.536  47.550  1.00  0.00     0.041 C 
ENDROOT
BRANCH  11  12
HETATM   12  N4  UNL     1      30.312  10.213  46.853  1.00  0.00    -0.391 N 
HETATM   13  H14 UNL     1      30.827  11.085  47.169  1.00  0.00     0.159 HD
BRANCH  12  14
HETATM   14  C15 UNL     1      30.722   9.113  46.019  1.00  0.00     0.120 C 
BRANCH  14  15
HETATM   15  C16 UNL     1      32.183   8.871  46.200  1.00  0.00     0.024 C 
BRANCH  15  16
HETATM   16  C17 UNL     1      32.460   7.656  47.059  1.00  0.00    -0.013 C 
HETATM   17  C18 UNL     1      31.191   6.801  46.979  1.00  0.00     0.005 C 
HETATM   18  C19 UNL     1      31.393   5.532  47.802  1.00  0.00     0.000 C 
HETATM   19  C20 UNL     1      31.403   5.959  49.243  1.00  0.00     0.000 C 
HETATM   20  C21 UNL     1      31.566   7.455  49.393  1.00  0.00     0.000 C 
HETATM   21  C22 UNL     1      32.654   8.015  48.511  1.00  0.00     0.005 C 
ENDBRANCH  15  16
ENDBRANCH  14  15
ENDBRANCH  12  14
ENDBRANCH  11  12
BRANCH   1  22
HETATM   22  C1  UNL     1      28.555  12.824  48.284  1.00  0.00     0.269 C 
HETATM   23  O1  UNL     1      28.019  13.360  49.206  1.00  0.00    -0.304 OA
ENDBRANCH   1  22
BRANCH   9  24
HETATM   24  N3  UNL     1      27.204   7.943  49.286  1.00  0.00    -0.359 N 
HETATM   25  C8  UNL     1      26.029   7.649  50.057  1.00  0.00     0.107 A 
HETATM   26  C9  UNL     1      25.505   6.432  50.037  1.00  0.00     0.026 A 
HETATM   27 BR1  UNL     1      23.945   6.038  51.058  1.00  0.00    -0.050 Br
HETATM   28  C10 UNL     1      26.083   5.367  49.256  1.00  0.00     0.018 A 
HETATM   29  C11 UNL     1      27.159   5.661  48.562  1.00  0.00    -0.006 A 
HETATM   30  C12 UNL     1      27.873   6.950  48.467  1.00  0.00     0.152 A 
ENDBRANCH   9  24
TORSDOF 6
ENDMDL
MODEL 9
REMARK VINA RESULT:      -6.5      9.431     11.729
REMARK  6 active torsions:
REMARK  status: ('A' for Active; 'I' for Inactive)
REMARK    1  A    between atoms: C1_2  and  C2_3 
REMARK    2  A    between atoms: C7_11  and  N3_12 
REMARK    3  A    between atoms: C14_20  and  N4_21 
REMARK    4  A    between atoms: N4_21  and  C15_22 
REMARK    5  A    between atoms: C15_22  and  C16_23 
REMARK    6  A    between atoms: C16_23  and  C17_24 
ROOT
HETATM    1  C2  UNL     1      28.836   9.052  49.407  1.00  0.00     0.237 C 
HETATM    2  O2  UNL     1      29.200  10.395  49.228  1.00  0.00    -0.345 OA
HETATM    3  C3  UNL     1      30.538  10.716  49.114  1.00  0.00     0.137 C 
HETATM    4  C4  UNL     1      31.296  11.179  48.161  1.00  0.00     0.043 C 
HETATM    5  C5  UNL     1      30.916  11.530  46.798  1.00  0.00     0.120 C 
HETATM    6  N1  UNL     1      29.830  11.133  47.296  1.00  0.00    -0.254 NA
HETATM    7  C6  UNL     1      28.558  11.051  46.681  1.00  0.00     0.229 C 
HETATM    8  N2  UNL     1      28.117   9.996  46.102  1.00  0.00    -0.253 NA
HETATM    9  C7  UNL     1      28.747   8.738  45.943  1.00  0.00     0.234 C 
HETATM   10  C13 UNL     1      29.350   8.118  47.122  1.00  0.00     0.049 C 
HETATM   11  C14 UNL     1      29.472   8.126  48.440  1.00  0.00     0.041 C 
ENDROOT
BRANCH  11  12
HETATM   12  N4  UNL     1      30.307   7.115  49.034  1.00  0.00    -0.391 N 
HETATM   13  H14 UNL     1      29.538   6.386  49.083  1.00  0.00     0.159 HD
BRANCH  12  14
HETATM   14  C15 UNL     1      31.691   7.071  49.432  1.00  0.00     0.120 C 
BRANCH  14  15
HETATM   15  C16 UNL     1      32.528   6.654  48.269  1.00  0.00     0.024 C 
BRANCH  15  16
HETATM   16  C17 UNL     1      32.838   5.174  48.290  1.00  0.00    -0.013 C 
HETATM   17  C18 UNL     1      34.267   5.048  47.750  1.00  0.00     0.005 C 
HETATM   18  C19 UNL     1      34.676   3.577  47.760  1.00  0.00     0.000 C 
HETATM   19  C20 UNL     1      33.866   2.905  46.687  1.00  0.00     0.000 C 
HETATM   20  C21 UNL     1      32.716   3.768  46.217  1.00  0.00     0.000 C 
HETATM   21  C22 UNL     1      31.949   4.390  47.357  1.00  0.00     0.005 C 
ENDBRANCH  15  16
ENDBRANCH  14  15
ENDBRANCH  12  14
ENDBRANCH  11  12
BRANCH   1  22
HETATM   22  C1  UNL     1      27.356   8.867  49.461  1.00  0.00     0.269 C 
HETATM   23  O1  UNL     1      26.338   8.617  48.891  1.00  0.00    -0.304 OA
ENDBRANCH   1  22
BRANCH   9  24
HETATM   24  N3  UNL     1      29.756   8.919  44.890  1.00  0.00    -0.359 N 
HETATM   25  C8  UNL     1      30.936   8.136  45.127  1.00  0.00     0.107 A 
HETATM   26  C9  UNL     1      31.950   8.183  44.274  1.00  0.00     0.026 A 
HETATM   27 BR1  UNL     1      33.518   7.146  44.585  1.00  0.00    -0.050 Br
HETATM   28  C10 UNL     1      31.914   9.009  43.093  1.00  0.00     0.018 A 
HETATM   29  C11 UNL     1      30.825   9.717  42.902  1.00  0.00    -0.006 A 
HETATM   30  C12 UNL     1      29.609   9.788  43.738  1.00  0.00     0.152 A 
ENDBRANCH   9  24
TORSDOF 6
ENDMDL
