MODEL 1
REMARK VINA RESULT:      -9.0      0.000      0.000
REMARK  5 active torsions:
REMARK  status: ('A' for Active; 'I' for Inactive)
REMARK    1  A    between atoms: N1_1  and  C1_2 
REMARK    2  A    between atoms: C1_2  and  N2_3 
REMARK    3  A    between atoms: C6_10  and  C7_11 
REMARK    4  A    between atoms: C8_12  and  N5_13 
REMARK    5  A    between atoms: N6_14  and  C9_15 
ROOT
HETATM    1  C7  UNL     1      24.279   3.720  50.050  1.00  0.00     0.036 C 
HETATM    2  C8  UNL     1      24.271   4.057  51.312  1.00  0.00     0.142 C 
ENDROOT
BRANCH   1   3
HETATM    3  C6  UNL     1      25.526   4.115  49.575  1.00  0.00     0.009 A 
HETATM    4  C4  UNL     1      25.493   5.315  48.968  1.00  0.00     0.068 A 
HETATM    5  C3  UNL     1      24.750   6.495  48.553  1.00  0.00     0.092 C 
HETATM    6  N3  UNL     1      26.686   5.487  48.621  1.00  0.00    -0.177 NA
HETATM    7  C2  UNL     1      25.774   7.625  48.254  1.00  0.00     0.281 C 
HETATM    8  N2  UNL     1      27.064   7.382  48.842  1.00  0.00     0.118 N 
HETATM    9  C20 UNL     1      28.136   6.942  48.002  1.00  0.00     0.296 C 
HETATM   10  C19 UNL     1      28.575   5.483  48.223  1.00  0.00     0.180 C 
HETATM   11  N4  UNL     1      27.583   4.678  48.845  1.00  0.00    -0.278 N 
HETATM   12  C5  UNL     1      26.823   3.799  49.458  1.00  0.00     0.126 A 
BRANCH   8  13
HETATM   13  C1  UNL     1      27.469   8.620  49.483  1.00  0.00     0.537 C 
BRANCH  13  14
HETATM   14  N1  UNL     1      26.860   8.592  50.820  1.00  0.00     0.106 N 
HETATM   15  H1  UNL     1      26.950   7.629  51.228  1.00  0.00     0.315 HD
HETATM   16  H2  UNL     1      25.868   8.854  50.722  1.00  0.00     0.315 HD
ENDBRANCH  13  14
ENDBRANCH   8  13
ENDBRANCH   1   3
BRANCH   2  17
HETATM   17  N5  UNL     1      23.141   3.796  52.101  1.00  0.00    -0.162 NA
HETATM   18  N6  UNL     1      22.891   2.771  52.768  1.00  0.00    -0.146 NA
BRANCH  18  19
HETATM   19  C9  UNL     1      23.743   1.637  52.853  1.00  0.00     0.138 C 
HETATM   20  C10 UNL     1      23.376   0.370  52.768  1.00  0.00     0.029 C 
HETATM   21  C11 UNL     1      24.339  -0.466  53.116  1.00  0.00     0.114 C 
HETATM   22  N7  UNL     1      25.510   0.351  53.207  1.00  0.00    -0.302 N 
HETATM   23  C12 UNL     1      25.190   1.654  53.050  1.00  0.00     0.167 A 
HETATM   24  C18 UNL     1      26.846   0.289  53.396  1.00  0.00     0.069 A 
HETATM   25  N8  UNL     1      26.310   2.387  53.142  1.00  0.00    -0.226 NA
HETATM   26  C13 UNL     1      27.357   1.573  53.355  1.00  0.00     0.086 A 
HETATM   27  C14 UNL     1      28.708   1.702  53.530  1.00  0.00     0.034 A 
HETATM   28  C15 UNL     1      29.538   0.598  53.738  1.00  0.00     0.002 A 
HETATM   29  C16 UNL     1      29.008  -0.675  53.775  1.00  0.00     0.002 A 
HETATM   30  C17 UNL     1      27.647  -0.839  53.603  1.00  0.00     0.032 A 
ENDBRANCH  18  19
ENDBRANCH   2  17
TORSDOF 5
ENDMDL
MODEL 2
REMARK VINA RESULT:      -9.0      2.883      6.624
REMARK  5 active torsions:
REMARK  status: ('A' for Active; 'I' for Inactive)
REMARK    1  A    between atoms: N1_1  and  C1_2 
REMARK    2  A    between atoms: C1_2  and  N2_3 
REMARK    3  A    between atoms: C6_10  and  C7_11 
REMARK    4  A    between atoms: C8_12  and  N5_13 
REMARK    5  A    between atoms: N6_14  and  C9_15 
ROOT
HETATM    1  C7  UNL     1      26.235   2.205  50.492  1.00  0.00     0.036 C 
HETATM    2  C8  UNL     1      25.603   3.339  50.634  1.00  0.00     0.142 C 
ENDROOT
BRANCH   1   3
HETATM    3  C6  UNL     1      26.956   2.039  51.671  1.00  0.00     0.009 A 
HETATM    4  C4  UNL     1      26.825   0.805  52.189  1.00  0.00     0.068 A 
HETATM    5  C3  UNL     1      26.281  -0.542  52.110  1.00  0.00     0.092 C 
HETATM    6  N3  UNL     1      27.536   0.857  53.221  1.00  0.00    -0.177 NA
HETATM    7  C2  UNL     1      27.114  -1.452  53.054  1.00  0.00     0.281 C 
HETATM    8  N2  UNL     1      28.388  -0.881  53.401  1.00  0.00     0.118 N 
HETATM    9  C20 UNL     1      28.560  -0.310  54.702  1.00  0.00     0.296 C 
HETATM   10  C19 UNL     1      28.693   1.224  54.723  1.00  0.00     0.180 C 
HETATM   11  N4  UNL     1      28.160   1.858  53.568  1.00  0.00    -0.278 N 
HETATM   12  C5  UNL     1      27.778   2.611  52.562  1.00  0.00     0.126 A 
BRANCH   8  13
HETATM   13  C1  UNL     1      29.374  -1.934  53.236  1.00  0.00     0.537 C 
BRANCH  13  14
HETATM   14  N1  UNL     1      28.608  -3.186  53.165  1.00  0.00     0.106 N 
HETATM   15  H1  UNL     1      29.255  -4.003  53.291  1.00  0.00     0.315 HD
HETATM   16  H2  UNL     1      28.148  -3.225  52.244  1.00  0.00     0.315 HD
ENDBRANCH  13  14
ENDBRANCH   8  13
ENDBRANCH   1   3
BRANCH   2  17
HETATM   17  N5  UNL     1      24.771   3.812  49.608  1.00  0.00    -0.162 NA
HETATM   18  N6  UNL     1      23.526   3.896  49.607  1.00  0.00    -0.146 NA
BRANCH  18  19
HETATM   19  C9  UNL     1      22.691   3.511  50.691  1.00  0.00     0.138 C 
HETATM   20  C10 UNL     1      21.803   4.271  51.307  1.00  0.00     0.029 C 
HETATM   21  C11 UNL     1      21.347   3.724  52.421  1.00  0.00     0.114 C 
HETATM   22  N7  UNL     1      21.824   2.376  52.382  1.00  0.00    -0.302 N 
HETATM   23  C12 UNL     1      22.655   2.200  51.332  1.00  0.00     0.167 A 
HETATM   24  C18 UNL     1      21.741   1.193  53.028  1.00  0.00     0.069 A 
HETATM   25  N8  UNL     1      23.081   0.927  51.329  1.00  0.00    -0.226 NA
HETATM   26  C13 UNL     1      22.533   0.273  52.367  1.00  0.00     0.086 A 
HETATM   27  C14 UNL     1      22.571  -0.992  52.887  1.00  0.00     0.034 A 
HETATM   28  C15 UNL     1      21.848  -1.347  54.028  1.00  0.00     0.002 A 
HETATM   29  C16 UNL     1      21.063  -0.413  54.673  1.00  0.00     0.002 A 
HETATM   30  C17 UNL     1      21.004   0.873  54.173  1.00  0.00     0.032 A 
ENDBRANCH  18  19
ENDBRANCH   2  17
TORSDOF 5
ENDMDL
MODEL 3
REMARK VINA RESULT:      -8.9      1.885      7.483
REMARK  5 active torsions:
REMARK  status: ('A' for Active; 'I' for Inactive)
REMARK    1  A    between atoms: N1_1  and  C1_2 
REMARK    2  A    between atoms: C1_2  and  N2_3 
REMARK    3  A    between atoms: C6_10  and  C7_11 
REMARK    4  A    between atoms: C8_12  and  N5_13 
REMARK    5  A    between atoms: N6_14  and  C9_15 
ROOT
HETATM    1  C7  UNL     1      26.024   2.157  50.724  1.00  0.00     0.036 C 
HETATM    2  C8  UNL     1      24.905   2.572  51.257  1.00  0.00     0.142 C 
ENDROOT
BRANCH   1   3
HETATM    3  C6  UNL     1      26.896   1.986  51.795  1.00  0.00     0.009 A 
HETATM    4  C4  UNL     1      26.795   0.768  52.357  1.00  0.00     0.068 A 
HETATM    5  C3  UNL     1      26.197  -0.557  52.387  1.00  0.00     0.092 C 
HETATM    6  N3  UNL     1      27.645   0.813  53.278  1.00  0.00    -0.177 NA
HETATM    7  C2  UNL     1      27.121  -1.480  53.228  1.00  0.00     0.281 C 
HETATM    8  N2  UNL     1      28.451  -0.954  53.380  1.00  0.00     0.118 N 
HETATM    9  C20 UNL     1      28.823  -0.364  54.630  1.00  0.00     0.296 C 
HETATM   10  C19 UNL     1      29.013   1.163  54.595  1.00  0.00     0.180 C 
HETATM   11  N4  UNL     1      28.346   1.795  53.510  1.00  0.00    -0.278 N 
HETATM   12  C5  UNL     1      27.854   2.543  52.549  1.00  0.00     0.126 A 
BRANCH   8  13
HETATM   13  C1  UNL     1      29.366  -2.047  53.105  1.00  0.00     0.537 C 
BRANCH  13  14
HETATM   14  N1  UNL     1      28.548  -3.267  53.148  1.00  0.00     0.106 N 
HETATM   15  H1  UNL     1      27.531  -3.010  53.170  1.00  0.00     0.315 HD
HETATM   16  H2  UNL     1      28.808  -3.792  53.996  1.00  0.00     0.315 HD
ENDBRANCH  13  14
ENDBRANCH   8  13
ENDBRANCH   1   3
BRANCH   2  17
HETATM   17  N5  UNL     1      23.798   2.845  50.440  1.00  0.00    -0.162 NA
HETATM   18  N6  UNL     1      23.401   3.955  50.031  1.00  0.00    -0.146 NA
BRANCH  18  19
HETATM   19  C9  UNL     1      24.026   5.196  50.332  1.00  0.00     0.138 C 
HETATM   20  C10 UNL     1      23.621   6.084  51.223  1.00  0.00     0.029 C 
HETATM   21  C11 UNL     1      24.258   7.238  51.120  1.00  0.00     0.114 C 
HETATM   22  N7  UNL     1      25.340   6.974  50.222  1.00  0.00    -0.302 N 
HETATM   23  C12 UNL     1      25.237   5.726  49.713  1.00  0.00     0.167 A 
HETATM   24  C18 UNL     1      26.448   7.531  49.689  1.00  0.00     0.069 A 
HETATM   25  N8  UNL     1      26.267   5.516  48.878  1.00  0.00    -0.226 NA
HETATM   26  C13 UNL     1      27.039   6.615  48.839  1.00  0.00     0.086 A 
HETATM   27  C14 UNL     1      28.184   7.014  48.205  1.00  0.00     0.034 A 
HETATM   28  C15 UNL     1      28.738   8.280  48.401  1.00  0.00     0.002 A 
HETATM   29  C16 UNL     1      28.133   9.180  49.254  1.00  0.00     0.002 A 
HETATM   30  C17 UNL     1      26.975   8.809  49.909  1.00  0.00     0.032 A 
ENDBRANCH  18  19
ENDBRANCH   2  17
TORSDOF 5
ENDMDL
MODEL 4
REMARK VINA RESULT:      -8.6      2.530      6.445
REMARK  5 active torsions:
REMARK  status: ('A' for Active; 'I' for Inactive)
REMARK    1  A    between atoms: N1_1  and  C1_2 
REMARK    2  A    between atoms: C1_2  and  N2_3 
REMARK    3  A    between atoms: C6_10  and  C7_11 
REMARK    4  A    between atoms: C8_12  and  N5_13 
REMARK    5  A    between atoms: N6_14  and  C9_15 
ROOT
HETATM    1  C7  UNL     1      22.617   1.019  52.991  1.00  0.00     0.036 C 
HETATM    2  C8  UNL     1      22.009   0.375  52.029  1.00  0.00     0.142 C 
ENDROOT
BRANCH   1   3
HETATM    3  C6  UNL     1      23.834   0.365  53.155  1.00  0.00     0.009 A 
HETATM    4  C4  UNL     1      24.837   0.962  52.488  1.00  0.00     0.068 A 
HETATM    5  C3  UNL     1      25.316   2.040  51.637  1.00  0.00     0.092 C 
HETATM    6  N3  UNL     1      25.825   0.239  52.760  1.00  0.00    -0.177 NA
HETATM    7  C2  UNL     1      26.863   2.102  51.765  1.00  0.00     0.281 C 
HETATM    8  N2  UNL     1      27.355   1.427  52.936  1.00  0.00     0.118 N 
HETATM    9  C20 UNL     1      27.968   0.142  52.788  1.00  0.00     0.296 C 
HETATM   10  C19 UNL     1      27.151  -1.035  53.351  1.00  0.00     0.180 C 
HETATM   11  N4  UNL     1      25.764  -0.753  53.482  1.00  0.00    -0.278 N 
HETATM   12  C5  UNL     1      24.477  -0.662  53.729  1.00  0.00     0.126 A 
BRANCH   8  13
HETATM   13  C1  UNL     1      28.317   2.319  53.557  1.00  0.00     0.537 C 
BRANCH  13  14
HETATM   14  N1  UNL     1      28.891   1.562  54.678  1.00  0.00     0.106 N 
HETATM   15  H1  UNL     1      29.740   2.060  55.042  1.00  0.00     0.315 HD
HETATM   16  H2  UNL     1      29.139   0.623  54.333  1.00  0.00     0.315 HD
ENDBRANCH  13  14
ENDBRANCH   8  13
ENDBRANCH   1   3
BRANCH   2  17
HETATM   17  N5  UNL     1      20.735   0.784  51.607  1.00  0.00    -0.162 NA
HETATM   18  N6  UNL     1      20.450   1.605  50.711  1.00  0.00    -0.146 NA
BRANCH  18  19
HETATM   19  C9  UNL     1      21.406   2.303  49.924  1.00  0.00     0.138 C 
HETATM   20  C10 UNL     1      21.784   2.000  48.695  1.00  0.00     0.029 C 
HETATM   21  C11 UNL     1      22.849   2.679  48.306  1.00  0.00     0.114 C 
HETATM   22  N7  UNL     1      23.022   3.685  49.308  1.00  0.00    -0.302 N 
HETATM   23  C12 UNL     1      22.152   3.492  50.324  1.00  0.00     0.167 A 
HETATM   24  C18 UNL     1      23.753   4.779  49.611  1.00  0.00     0.069 A 
HETATM   25  N8  UNL     1      22.344   4.453  51.242  1.00  0.00    -0.226 NA
HETATM   26  C13 UNL     1      23.329   5.269  50.833  1.00  0.00     0.086 A 
HETATM   27  C14 UNL     1      23.966   6.385  51.301  1.00  0.00     0.034 A 
HETATM   28  C15 UNL     1      24.994   7.007  50.589  1.00  0.00     0.002 A 
HETATM   29  C16 UNL     1      25.402   6.503  49.372  1.00  0.00     0.002 A 
HETATM   30  C17 UNL     1      24.779   5.376  48.871  1.00  0.00     0.032 A 
ENDBRANCH  18  19
ENDBRANCH   2  17
TORSDOF 5
ENDMDL
MODEL 5
REMARK VINA RESULT:      -8.5      1.435      1.999
REMARK  5 active torsions:
REMARK  status: ('A' for Active; 'I' for Inactive)
REMARK    1  A    between atoms: N1_1  and  C1_2 
REMARK    2  A    between atoms: C1_2  and  N2_3 
REMARK    3  A    between atoms: C6_10  and  C7_11 
REMARK    4  A    between atoms: C8_12  and  N5_13 
REMARK    5  A    between atoms: N6_14  and  C9_15 
ROOT
HETATM    1  C7  UNL     1      24.079   5.395  49.469  1.00  0.00     0.036 C 
HETATM    2  C8  UNL     1      24.029   5.592  50.760  1.00  0.00     0.142 C 
ENDROOT
BRANCH   1   3
HETATM    3  C6  UNL     1      25.435   5.327  49.164  1.00  0.00     0.009 A 
HETATM    4  C4  UNL     1      25.885   6.436  48.548  1.00  0.00     0.068 A 
HETATM    5  C3  UNL     1      25.641   7.771  48.027  1.00  0.00     0.092 C 
HETATM    6  N3  UNL     1      27.099   6.182  48.365  1.00  0.00    -0.177 NA
HETATM    7  C2  UNL     1      27.014   8.479  47.861  1.00  0.00     0.281 C 
HETATM    8  N2  UNL     1      28.063   7.851  48.620  1.00  0.00     0.118 N 
HETATM    9  C20 UNL     1      29.020   7.035  47.936  1.00  0.00     0.296 C 
HETATM   10  C19 UNL     1      28.911   5.528  48.226  1.00  0.00     0.180 C 
HETATM   11  N4  UNL     1      27.635   5.133  48.714  1.00  0.00    -0.278 N 
HETATM   12  C5  UNL     1      26.554   4.591  49.226  1.00  0.00     0.126 A 
BRANCH   8  13
HETATM   13  C1  UNL     1      28.779   8.916  49.299  1.00  0.00     0.537 C 
BRANCH  13  14
HETATM   14  N1  UNL     1      27.940   9.287  50.447  1.00  0.00     0.106 N 
HETATM   15  H1  UNL     1      26.957   8.958  50.286  1.00  0.00     0.315 HD
HETATM   16  H2  UNL     1      27.969  10.313  50.542  1.00  0.00     0.315 HD
ENDBRANCH  13  14
ENDBRANCH   8  13
ENDBRANCH   1   3
BRANCH   2  17
HETATM   17  N5  UNL     1      22.787   5.710  51.403  1.00  0.00    -0.162 NA
HETATM   18  N6  UNL     1      22.095   4.802  51.906  1.00  0.00    -0.146 NA
BRANCH  18  19
HETATM   19  C9  UNL     1      22.453   3.426  51.918  1.00  0.00     0.138 C 
HETATM   20  C10 UNL     1      21.801   2.439  51.328  1.00  0.00     0.029 C 
HETATM   21  C11 UNL     1      22.232   1.247  51.704  1.00  0.00     0.114 C 
HETATM   22  N7  UNL     1      23.436   1.510  52.430  1.00  0.00    -0.302 N 
HETATM   23  C12 UNL     1      23.612   2.840  52.584  1.00  0.00     0.167 A 
HETATM   24  C18 UNL     1      24.480   0.897  53.027  1.00  0.00     0.069 A 
HETATM   25  N8  UNL     1      24.749   3.047  53.268  1.00  0.00    -0.226 NA
HETATM   26  C13 UNL     1      25.314   1.864  53.558  1.00  0.00     0.086 A 
HETATM   27  C14 UNL     1      26.434   1.419  54.207  1.00  0.00     0.034 A 
HETATM   28  C15 UNL     1      26.730   0.061  54.331  1.00  0.00     0.002 A 
HETATM   29  C16 UNL     1      25.885  -0.888  53.793  1.00  0.00     0.002 A 
HETATM   30  C17 UNL     1      24.745  -0.473  53.132  1.00  0.00     0.032 A 
ENDBRANCH  18  19
ENDBRANCH   2  17
TORSDOF 5
ENDMDL
MODEL 6
REMARK VINA RESULT:      -8.4      4.088      8.387
REMARK  5 active torsions:
REMARK  status: ('A' for Active; 'I' for Inactive)
REMARK    1  A    between atoms: N1_1  and  C1_2 
REMARK    2  A    between atoms: C1_2  and  N2_3 
REMARK    3  A    between atoms: C6_10  and  C7_11 
REMARK    4  A    between atoms: C8_12  and  N5_13 
REMARK    5  A    between atoms: N6_14  and  C9_15 
ROOT
HETATM    1  C7  UNL     1      21.062  -0.074  54.166  1.00  0.00     0.036 C 
HETATM    2  C8  UNL     1      22.191  -0.606  53.779  1.00  0.00     0.142 C 
ENDROOT
BRANCH   1   3
HETATM    3  C6  UNL     1      20.352   0.168  52.994  1.00  0.00     0.009 A 
HETATM    4  C4  UNL     1      19.202  -0.528  52.931  1.00  0.00     0.068 A 
HETATM    5  C3  UNL     1      18.260  -1.458  53.535  1.00  0.00     0.092 C 
HETATM    6  N3  UNL     1      18.722  -0.177  51.827  1.00  0.00    -0.177 NA
HETATM    7  C2  UNL     1      16.900  -1.305  52.799  1.00  0.00     0.281 C 
HETATM    8  N2  UNL     1      16.795  -0.073  52.065  1.00  0.00     0.118 N 
HETATM    9  C20 UNL     1      16.936  -0.101  50.641  1.00  0.00     0.296 C 
HETATM   10  C19 UNL     1      18.227   0.543  50.105  1.00  0.00     0.180 C 
HETATM   11  N4  UNL     1      19.266   0.624  51.072  1.00  0.00    -0.278 N 
HETATM   12  C5  UNL     1      20.315   0.838  51.834  1.00  0.00     0.126 A 
BRANCH   8  13
HETATM   13  C1  UNL     1      15.494   0.489  52.380  1.00  0.00     0.537 C 
BRANCH  13  14
HETATM   14  N1  UNL     1      14.842  -0.492  53.259  1.00  0.00     0.106 N 
HETATM   15  H1  UNL     1      14.975  -0.211  54.261  1.00  0.00     0.315 HD
HETATM   16  H2  UNL     1      15.269  -1.412  53.079  1.00  0.00     0.315 HD
ENDBRANCH  13  14
ENDBRANCH   8  13
ENDBRANCH   1   3
BRANCH   2  17
HETATM   17  N5  UNL     1      23.154  -0.976  54.729  1.00  0.00    -0.162 NA
HETATM   18  N6  UNL     1      24.395  -0.873  54.644  1.00  0.00    -0.146 NA
BRANCH  18  19
HETATM   19  C9  UNL     1      25.085  -0.341  53.521  1.00  0.00     0.138 C 
HETATM   20  C10 UNL     1      26.063  -0.926  52.851  1.00  0.00     0.029 C 
HETATM   21  C11 UNL     1      26.667  -0.104  52.010  1.00  0.00     0.114 C 
HETATM   22  N7  UNL     1      25.833   1.057  51.977  1.00  0.00    -0.302 N 
HETATM   23  C12 UNL     1      24.844   0.954  52.892  1.00  0.00     0.167 A 
HETATM   24  C18 UNL     1      25.673   2.242  51.350  1.00  0.00     0.069 A 
HETATM   25  N8  UNL     1      24.085   2.059  52.832  1.00  0.00    -0.226 NA
HETATM   26  C13 UNL     1      24.569   2.880  51.886  1.00  0.00     0.086 A 
HETATM   27  C14 UNL     1      24.255   4.106  51.365  1.00  0.00     0.034 A 
HETATM   28  C15 UNL     1      25.004   4.692  50.343  1.00  0.00     0.002 A 
HETATM   29  C16 UNL     1      26.102   4.039  49.822  1.00  0.00     0.002 A 
HETATM   30  C17 UNL     1      26.447   2.800  50.327  1.00  0.00     0.032 A 
ENDBRANCH  18  19
ENDBRANCH   2  17
TORSDOF 5
ENDMDL
MODEL 7
REMARK VINA RESULT:      -8.3      2.667      3.856
REMARK  5 active torsions:
REMARK  status: ('A' for Active; 'I' for Inactive)
REMARK    1  A    between atoms: N1_1  and  C1_2 
REMARK    2  A    between atoms: C1_2  and  N2_3 
REMARK    3  A    between atoms: C6_10  and  C7_11 
REMARK    4  A    between atoms: C8_12  and  N5_13 
REMARK    5  A    between atoms: N6_14  and  C9_15 
ROOT
HETATM    1  C7  UNL     1      20.976   1.472  50.991  1.00  0.00     0.036 C 
HETATM    2  C8  UNL     1      22.099   0.888  51.316  1.00  0.00     0.142 C 
ENDROOT
BRANCH   1   3
HETATM    3  C6  UNL     1      21.327   2.449  50.065  1.00  0.00     0.009 A 
HETATM    4  C4  UNL     1      21.523   3.654  50.632  1.00  0.00     0.068 A 
HETATM    5  C3  UNL     1      21.573   4.492  51.819  1.00  0.00     0.092 C 
HETATM    6  N3  UNL     1      21.826   4.378  49.653  1.00  0.00    -0.177 NA
HETATM    7  C2  UNL     1      22.371   5.777  51.465  1.00  0.00     0.281 C 
HETATM    8  N2  UNL     1      23.175   5.629  50.282  1.00  0.00     0.118 N 
HETATM    9  C20 UNL     1      22.731   6.231  49.062  1.00  0.00     0.296 C 
HETATM   10  C19 UNL     1      22.267   5.238  47.982  1.00  0.00     0.180 C 
HETATM   11  N4  UNL     1      21.898   3.966  48.498  1.00  0.00    -0.278 N 
HETATM   12  C5  UNL     1      21.574   2.724  48.776  1.00  0.00     0.126 A 
BRANCH   8  13
HETATM   13  C1  UNL     1      24.486   6.166  50.601  1.00  0.00     0.537 C 
BRANCH  13  14
HETATM   14  N1  UNL     1      24.354   6.764  51.937  1.00  0.00     0.106 N 
HETATM   15  H1  UNL     1      25.254   6.650  52.465  1.00  0.00     0.315 HD
HETATM   16  H2  UNL     1      23.583   6.284  52.424  1.00  0.00     0.315 HD
ENDBRANCH  13  14
ENDBRANCH   8  13
ENDBRANCH   1   3
BRANCH   2  17
HETATM   17  N5  UNL     1      22.100  -0.162  52.246  1.00  0.00    -0.162 NA
HETATM   18  N6  UNL     1      22.973  -0.433  53.095  1.00  0.00    -0.146 NA
BRANCH  18  19
HETATM   19  C9  UNL     1      24.174   0.304  53.282  1.00  0.00     0.138 C 
HETATM   20  C10 UNL     1      24.275   1.610  53.457  1.00  0.00     0.029 C 
HETATM   21  C11 UNL     1      25.521   2.042  53.367  1.00  0.00     0.114 C 
HETATM   22  N7  UNL     1      26.317   0.853  53.367  1.00  0.00    -0.302 N 
HETATM   23  C12 UNL     1      25.528  -0.242  53.316  1.00  0.00     0.167 A 
HETATM   24  C18 UNL     1      27.596   0.422  53.401  1.00  0.00     0.069 A 
HETATM   25  N8  UNL     1      26.307  -1.335  53.317  1.00  0.00    -0.226 NA
HETATM   26  C13 UNL     1      27.596  -0.961  53.370  1.00  0.00     0.086 A 
HETATM   27  C14 UNL     1      28.818  -1.575  53.397  1.00  0.00     0.034 A 
HETATM   28  C15 UNL     1      30.011  -0.852  53.455  1.00  0.00     0.002 A 
HETATM   29  C16 UNL     1      29.989   0.527  53.486  1.00  0.00     0.002 A 
HETATM   30  C17 UNL     1      28.771   1.178  53.459  1.00  0.00     0.032 A 
ENDBRANCH  18  19
ENDBRANCH   2  17
TORSDOF 5
ENDMDL
MODEL 8
REMARK VINA RESULT:      -8.2      2.751      7.916
REMARK  5 active torsions:
REMARK  status: ('A' for Active; 'I' for Inactive)
REMARK    1  A    between atoms: N1_1  and  C1_2 
REMARK    2  A    between atoms: C1_2  and  N2_3 
REMARK    3  A    between atoms: C6_10  and  C7_11 
REMARK    4  A    between atoms: C8_12  and  N5_13 
REMARK    5  A    between atoms: N6_14  and  C9_15 
ROOT
HETATM    1  C7  UNL     1      26.180   0.935  51.389  1.00  0.00     0.036 C 
HETATM    2  C8  UNL     1      26.489   2.160  51.722  1.00  0.00     0.142 C 
ENDROOT
BRANCH   1   3
HETATM    3  C6  UNL     1      25.877   0.296  52.587  1.00  0.00     0.009 A 
HETATM    4  C4  UNL     1      24.602   0.491  52.970  1.00  0.00     0.068 A 
HETATM    5  C3  UNL     1      23.288   1.062  52.723  1.00  0.00     0.092 C 
HETATM    6  N3  UNL     1      24.531  -0.153  54.044  1.00  0.00    -0.177 NA
HETATM    7  C2  UNL     1      22.264   0.314  53.620  1.00  0.00     0.281 C 
HETATM    8  N2  UNL     1      22.757  -0.948  54.101  1.00  0.00     0.118 N 
HETATM    9  C20 UNL     1      23.193  -1.050  55.461  1.00  0.00     0.296 C 
HETATM   10  C19 UNL     1      24.712  -1.219  55.644  1.00  0.00     0.180 C 
HETATM   11  N4  UNL     1      25.472  -0.777  54.527  1.00  0.00    -0.278 N 
HETATM   12  C5  UNL     1      26.333  -0.480  53.581  1.00  0.00     0.126 A 
BRANCH   8  13
HETATM   13  C1  UNL     1      21.696  -1.917  53.892  1.00  0.00     0.537 C 
BRANCH  13  14
HETATM   14  N1  UNL     1      20.475  -1.283  54.408  1.00  0.00     0.106 N 
HETATM   15  H1  UNL     1      19.632  -1.754  53.997  1.00  0.00     0.315 HD
HETATM   16  H2  UNL     1      20.500  -0.287  54.145  1.00  0.00     0.315 HD
ENDBRANCH  13  14
ENDBRANCH   8  13
ENDBRANCH   1   3
BRANCH   2  17
HETATM   17  N5  UNL     1      26.851   3.086  50.733  1.00  0.00    -0.162 NA
HETATM   18  N6  UNL     1      26.138   3.964  50.205  1.00  0.00    -0.146 NA
BRANCH  18  19
HETATM   19  C9  UNL     1      24.772   4.193  50.525  1.00  0.00     0.138 C 
HETATM   20  C10 UNL     1      24.295   5.168  51.280  1.00  0.00     0.029 C 
HETATM   21  C11 UNL     1      23.022   4.994  51.593  1.00  0.00     0.114 C 
HETATM   22  N7  UNL     1      22.588   3.918  50.758  1.00  0.00    -0.302 N 
HETATM   23  C12 UNL     1      23.634   3.395  50.081  1.00  0.00     0.167 A 
HETATM   24  C18 UNL     1      21.490   3.222  50.393  1.00  0.00     0.069 A 
HETATM   25  N8  UNL     1      23.189   2.390  49.310  1.00  0.00    -0.226 NA
HETATM   26  C13 UNL     1      21.863   2.255  49.478  1.00  0.00     0.086 A 
HETATM   27  C14 UNL     1      20.868   1.449  48.996  1.00  0.00     0.034 A 
HETATM   28  C15 UNL     1      19.539   1.588  49.401  1.00  0.00     0.002 A 
HETATM   29  C16 UNL     1      19.187   2.559  50.315  1.00  0.00     0.002 A 
HETATM   30  C17 UNL     1      20.168   3.389  50.822  1.00  0.00     0.032 A 
ENDBRANCH  18  19
ENDBRANCH   2  17
TORSDOF 5
ENDMDL
MODEL 9
REMARK VINA RESULT:      -8.2      1.372      2.432
REMARK  5 active torsions:
REMARK  status: ('A' for Active; 'I' for Inactive)
REMARK    1  A    between atoms: N1_1  and  C1_2 
REMARK    2  A    between atoms: C1_2  and  N2_3 
REMARK    3  A    between atoms: C6_10  and  C7_11 
REMARK    4  A    between atoms: C8_12  and  N5_13 
REMARK    5  A    between atoms: N6_14  and  C9_15 
ROOT
HETATM    1  C7  UNL     1      24.754   3.869  49.406  1.00  0.00     0.036 C 
HETATM    2  C8  UNL     1      23.878   3.658  50.352  1.00  0.00     0.142 C 
ENDROOT
BRANCH   1   3
HETATM    3  C6  UNL     1      25.159   5.189  49.572  1.00  0.00     0.009 A 
HETATM    4  C4  UNL     1      26.437   5.390  49.202  1.00  0.00     0.068 A 
HETATM    5  C3  UNL     1      27.684   4.877  48.658  1.00  0.00     0.092 C 
HETATM    6  N3  UNL     1      26.603   6.614  49.421  1.00  0.00    -0.177 NA
HETATM    7  C2  UNL     1      28.533   6.087  48.181  1.00  0.00     0.281 C 
HETATM    8  N2  UNL     1      27.753   7.282  48.002  1.00  0.00     0.118 N 
HETATM    9  C20 UNL     1      27.834   8.317  48.988  1.00  0.00     0.296 C 
HETATM   10  C19 UNL     1      26.567   8.497  49.843  1.00  0.00     0.180 C 
HETATM   11  N4  UNL     1      25.727   7.351  49.866  1.00  0.00    -0.278 N 
HETATM   12  C5  UNL     1      24.803   6.422  49.959  1.00  0.00     0.126 A 
BRANCH   8  13
HETATM   13  C1  UNL     1      28.143   7.846  46.722  1.00  0.00     0.537 C 
BRANCH  13  14
HETATM   14  N1  UNL     1      28.924   9.049  47.041  1.00  0.00     0.106 N 
HETATM   15  H1  UNL     1      29.946   8.811  47.060  1.00  0.00     0.315 HD
HETATM   16  H2  UNL     1      28.614   9.393  47.962  1.00  0.00     0.315 HD
ENDBRANCH  13  14
ENDBRANCH   8  13
ENDBRANCH   1   3
BRANCH   2  17
HETATM   17  N5  UNL     1      23.262   2.403  50.471  1.00  0.00    -0.162 NA
HETATM   18  N6  UNL     1      23.543   1.483  51.266  1.00  0.00    -0.146 NA
BRANCH  18  19
HETATM   19  C9  UNL     1      24.581   1.543  52.235  1.00  0.00     0.138 C 
HETATM   20  C10 UNL     1      24.723   2.457  53.179  1.00  0.00     0.029 C 
HETATM   21  C11 UNL     1      25.900   2.394  53.779  1.00  0.00     0.114 C 
HETATM   22  N7  UNL     1      26.471   1.164  53.324  1.00  0.00    -0.302 N 
HETATM   23  C12 UNL     1      25.691   0.605  52.372  1.00  0.00     0.167 A 
HETATM   24  C18 UNL     1      27.528   0.343  53.505  1.00  0.00     0.069 A 
HETATM   25  N8  UNL     1      26.258  -0.544  51.971  1.00  0.00    -0.226 NA
HETATM   26  C13 UNL     1      27.399  -0.738  52.653  1.00  0.00     0.086 A 
HETATM   27  C14 UNL     1      28.390  -1.680  52.702  1.00  0.00     0.034 A 
HETATM   28  C15 UNL     1      29.481  -1.565  53.566  1.00  0.00     0.002 A 
HETATM   29  C16 UNL     1      29.591  -0.478  54.408  1.00  0.00     0.002 A 
HETATM   30  C17 UNL     1      28.607   0.491  54.383  1.00  0.00     0.032 A 
ENDBRANCH  18  19
ENDBRANCH   2  17
TORSDOF 5
ENDMDL
