MODEL 1
REMARK VINA RESULT:      -6.8      0.000      0.000
REMARK  7 active torsions:
REMARK  status: ('A' for Active; 'I' for Inactive)
REMARK    1  A    between atoms: C2_2  and  C3_3 
REMARK    2  A    between atoms: C3_3  and  N1_4 
REMARK    3  A    between atoms: C11_15  and  C12_16 
REMARK    4  A    between atoms: C12_16  and  C13_17 
REMARK    5  A    between atoms: C13_17  and  C14_18 
REMARK    6  A    between atoms: C14_18  and  O3_19 
REMARK    7  A    between atoms: C17_22  and  O4_23 
ROOT
HETATM    1  N1  UNL     1      23.552   4.262  48.994  1.00  0.00    -0.403 N 
HETATM    2  C4  UNL     1      22.900   4.743  47.880  1.00  0.00     0.127 C 
HETATM    3  C5  UNL     1      21.725   5.631  48.179  1.00  0.00     0.132 C 
HETATM    4  C6  UNL     1      20.469   4.837  48.467  1.00  0.00     0.277 C 
HETATM    5  O1  UNL     1      19.435   5.191  49.059  1.00  0.00    -0.264 OA
HETATM    6  O2  UNL     1      20.355   3.543  48.053  1.00  0.00    -0.227 OA
HETATM    7  N2  UNL     1      19.423   2.620  48.111  1.00  0.00    -0.192 NA
HETATM    8  C7  UNL     1      18.557   2.570  49.199  1.00  0.00     0.159 C 
HETATM    9  C8  UNL     1      19.235   2.173  50.450  1.00  0.00    -0.009 C 
HETATM   10  C9  UNL     1      19.609   0.877  50.309  1.00  0.00     0.011 C 
HETATM   11  C10 UNL     1      20.162   0.052  51.407  1.00  0.00     0.004 C 
HETATM   12  C11 UNL     1      20.371   0.433  52.667  1.00  0.00    -0.075 C 
HETATM   13  C15 UNL     1      20.732   1.753  53.236  1.00  0.00     0.083 C 
HETATM   14  C16 UNL     1      20.610   2.878  52.314  1.00  0.00     0.027 C 
HETATM   15  C17 UNL     1      19.468   2.996  51.656  1.00  0.00     0.087 C 
HETATM   16  S1  UNL     1      21.945   4.019  52.056  1.00  0.00    -0.058 SA
HETATM   17  S2  UNL     1      23.596   2.946  51.278  1.00  0.00    -0.073 SA
HETATM   18  C18 UNL     1      23.499   2.940  49.449  1.00  0.00     0.204 C 
HETATM   19  H12 UNL     1      19.804   1.683  47.871  1.00  0.00     0.154 HD
ENDROOT
BRANCH  12  20
HETATM   20  C12 UNL     1      20.269  -0.554  53.797  1.00  0.00     0.036 C 
BRANCH  20  21
HETATM   21  C13 UNL     1      21.359  -0.368  54.804  1.00  0.00     0.030 C 
BRANCH  21  22
HETATM   22  C14 UNL     1      22.535  -1.306  54.618  1.00  0.00     0.164 C 
BRANCH  22  23
HETATM   23  O3  UNL     1      23.007  -1.756  55.844  1.00  0.00    -0.401 OA
HETATM   24  H23 UNL     1      23.016  -1.056  56.547  1.00  0.00     0.209 HD
ENDBRANCH  22  23
ENDBRANCH  21  22
ENDBRANCH  20  21
ENDBRANCH  12  20
BRANCH  15  25
HETATM   25  O4  UNL     1      18.332   3.811  51.874  1.00  0.00    -0.359 OA
HETATM   26  H26 UNL     1      18.434   4.714  52.316  1.00  0.00     0.217 HD
ENDBRANCH  15  25
BRANCH   1  27
HETATM   27  C3  UNL     1      24.398   5.150  49.735  1.00  0.00     0.117 C 
BRANCH  27  28
HETATM   28  C2  UNL     1      25.504   5.747  48.895  1.00  0.00     0.015 C 
HETATM   29  C1  UNL     1      26.789   4.918  48.978  1.00  0.00     0.006 C 
ENDBRANCH  27  28
ENDBRANCH   1  27
TORSDOF 7
ENDMDL
MODEL 2
REMARK VINA RESULT:      -6.7      3.408      5.817
REMARK  7 active torsions:
REMARK  status: ('A' for Active; 'I' for Inactive)
REMARK    1  A    between atoms: C2_2  and  C3_3 
REMARK    2  A    between atoms: C3_3  and  N1_4 
REMARK    3  A    between atoms: C11_15  and  C12_16 
REMARK    4  A    between atoms: C12_16  and  C13_17 
REMARK    5  A    between atoms: C13_17  and  C14_18 
REMARK    6  A    between atoms: C14_18  and  O3_19 
REMARK    7  A    between atoms: C17_22  and  O4_23 
ROOT
HETATM    1  N1  UNL     1      19.097   2.498  51.280  1.00  0.00    -0.403 N 
HETATM    2  C4  UNL     1      18.615   3.731  50.899  1.00  0.00     0.127 C 
HETATM    3  C5  UNL     1      19.225   4.277  49.639  1.00  0.00     0.132 C 
HETATM    4  C6  UNL     1      20.547   4.966  49.896  1.00  0.00     0.277 C 
HETATM    5  O1  UNL     1      21.464   5.228  49.099  1.00  0.00    -0.264 OA
HETATM    6  O2  UNL     1      20.869   5.407  51.146  1.00  0.00    -0.227 OA
HETATM    7  N2  UNL     1      21.883   6.048  51.680  1.00  0.00    -0.192 NA
HETATM    8  C7  UNL     1      23.169   5.853  51.188  1.00  0.00     0.159 C 
HETATM    9  C8  UNL     1      23.688   4.498  51.466  1.00  0.00    -0.009 C 
HETATM   10  C9  UNL     1      23.867   4.405  52.807  1.00  0.00     0.011 C 
HETATM   11  C10 UNL     1      24.540   3.268  53.474  1.00  0.00     0.004 C 
HETATM   12  C11 UNL     1      25.062   2.191  52.888  1.00  0.00    -0.075 C 
HETATM   13  C15 UNL     1      24.668   1.467  51.656  1.00  0.00     0.083 C 
HETATM   14  C16 UNL     1      23.708   2.168  50.808  1.00  0.00     0.027 C 
HETATM   15  C17 UNL     1      23.985   3.423  50.495  1.00  0.00     0.087 C 
HETATM   16  S1  UNL     1      22.215   1.386  50.251  1.00  0.00    -0.058 SA
HETATM   17  S2  UNL     1      21.060   0.870  51.949  1.00  0.00    -0.073 SA
HETATM   18  C18 UNL     1      19.949   2.266  52.364  1.00  0.00     0.204 C 
HETATM   19  H12 UNL     1      21.851   6.005  52.719  1.00  0.00     0.154 HD
ENDROOT
BRANCH  12  20
HETATM   20  C12 UNL     1      26.247   1.486  53.488  1.00  0.00     0.036 C 
BRANCH  20  21
HETATM   21  C13 UNL     1      27.540   2.115  53.077  1.00  0.00     0.030 C 
BRANCH  21  22
HETATM   22  C14 UNL     1      28.759   1.506  53.743  1.00  0.00     0.164 C 
BRANCH  22  23
HETATM   23  O3  UNL     1      29.440   2.458  54.492  1.00  0.00    -0.401 OA
HETATM   24  H23 UNL     1      28.920   3.289  54.643  1.00  0.00     0.209 HD
ENDBRANCH  22  23
ENDBRANCH  21  22
ENDBRANCH  20  21
ENDBRANCH  12  20
BRANCH  15  25
HETATM   25  O4  UNL     1      24.545   4.005  49.333  1.00  0.00    -0.359 OA
HETATM   26  H26 UNL     1      24.109   3.858  48.433  1.00  0.00     0.217 HD
ENDBRANCH  15  25
BRANCH   1  27
HETATM   27  C3  UNL     1      18.667   1.338  50.557  1.00  0.00     0.117 C 
BRANCH  27  28
HETATM   28  C2  UNL     1      17.312   0.836  51.000  1.00  0.00     0.015 C 
HETATM   29  C1  UNL     1      17.408  -0.533  51.679  1.00  0.00     0.006 C 
ENDBRANCH  27  28
ENDBRANCH   1  27
TORSDOF 7
ENDMDL
MODEL 3
REMARK VINA RESULT:      -6.7      3.177      7.253
REMARK  7 active torsions:
REMARK  status: ('A' for Active; 'I' for Inactive)
REMARK    1  A    between atoms: C2_2  and  C3_3 
REMARK    2  A    between atoms: C3_3  and  N1_4 
REMARK    3  A    between atoms: C11_15  and  C12_16 
REMARK    4  A    between atoms: C12_16  and  C13_17 
REMARK    5  A    between atoms: C13_17  and  C14_18 
REMARK    6  A    between atoms: C14_18  and  O3_19 
REMARK    7  A    between atoms: C17_22  and  O4_23 
ROOT
HETATM    1  N1  UNL     1      22.723   2.964  52.182  1.00  0.00    -0.403 N 
HETATM    2  C4  UNL     1      21.434   3.373  52.444  1.00  0.00     0.127 C 
HETATM    3  C5  UNL     1      20.602   3.636  51.221  1.00  0.00     0.132 C 
HETATM    4  C6  UNL     1      20.837   5.021  50.658  1.00  0.00     0.277 C 
HETATM    5  O1  UNL     1      20.599   5.456  49.518  1.00  0.00    -0.264 OA
HETATM    6  O2  UNL     1      21.375   6.005  51.435  1.00  0.00    -0.227 OA
HETATM    7  N2  UNL     1      21.666   7.274  51.268  1.00  0.00    -0.192 NA
HETATM    8  C7  UNL     1      22.082   7.737  50.024  1.00  0.00     0.159 C 
HETATM    9  C8  UNL     1      23.415   7.228  49.641  1.00  0.00    -0.009 C 
HETATM   10  C9  UNL     1      24.316   7.792  50.482  1.00  0.00     0.011 C 
HETATM   11  C10 UNL     1      25.783   7.677  50.320  1.00  0.00     0.004 C 
HETATM   12  C11 UNL     1      26.433   7.027  49.354  1.00  0.00    -0.075 C 
HETATM   13  C15 UNL     1      26.073   5.812  48.587  1.00  0.00     0.083 C 
HETATM   14  C16 UNL     1      24.685   5.379  48.730  1.00  0.00     0.027 C 
HETATM   15  C17 UNL     1      23.748   6.294  48.544  1.00  0.00     0.087 C 
HETATM   16  S1  UNL     1      24.272   3.710  49.171  1.00  0.00    -0.058 SA
HETATM   17  S2  UNL     1      25.094   3.303  51.079  1.00  0.00    -0.073 SA
HETATM   18  C18 UNL     1      23.869   3.745  52.366  1.00  0.00     0.204 C 
HETATM   19  H12 UNL     1      22.271   7.626  52.038  1.00  0.00     0.154 HD
ENDROOT
BRANCH  12  20
HETATM   20  C12 UNL     1      27.780   7.499  48.881  1.00  0.00     0.036 C 
BRANCH  20  21
HETATM   21  C13 UNL     1      28.400   6.544  47.912  1.00  0.00     0.030 C 
BRANCH  21  22
HETATM   22  C14 UNL     1      29.868   6.267  48.176  1.00  0.00     0.164 C 
BRANCH  22  23
HETATM   23  O3  UNL     1      30.032   5.561  49.361  1.00  0.00    -0.401 OA
HETATM   24  H23 UNL     1      30.807   4.943  49.348  1.00  0.00     0.209 HD
ENDBRANCH  22  23
ENDBRANCH  21  22
ENDBRANCH  20  21
ENDBRANCH  12  20
BRANCH  15  25
HETATM   25  O4  UNL     1      22.925   6.590  47.432  1.00  0.00    -0.359 OA
HETATM   26  H26 UNL     1      23.097   7.421  46.882  1.00  0.00     0.217 HD
ENDBRANCH  15  25
BRANCH   1  27
HETATM   27  C3  UNL     1      22.942   1.622  51.731  1.00  0.00     0.117 C 
BRANCH  27  28
HETATM   28  C2  UNL     1      22.887   0.608  52.850  1.00  0.00     0.015 C 
HETATM   29  C1  UNL     1      24.270   0.026  53.156  1.00  0.00     0.006 C 
ENDBRANCH  27  28
ENDBRANCH   1  27
TORSDOF 7
ENDMDL
MODEL 4
REMARK VINA RESULT:      -6.5      3.167      6.971
REMARK  7 active torsions:
REMARK  status: ('A' for Active; 'I' for Inactive)
REMARK    1  A    between atoms: C2_2  and  C3_3 
REMARK    2  A    between atoms: C3_3  and  N1_4 
REMARK    3  A    between atoms: C11_15  and  C12_16 
REMARK    4  A    between atoms: C12_16  and  C13_17 
REMARK    5  A    between atoms: C13_17  and  C14_18 
REMARK    6  A    between atoms: C14_18  and  O3_19 
REMARK    7  A    between atoms: C17_22  and  O4_23 
ROOT
HETATM    1  N1  UNL     1      20.288   2.891  48.788  1.00  0.00    -0.403 N 
HETATM    2  C4  UNL     1      19.686   2.371  49.914  1.00  0.00     0.127 C 
HETATM    3  C5  UNL     1      19.597   3.326  51.070  1.00  0.00     0.132 C 
HETATM    4  C6  UNL     1      20.878   3.366  51.876  1.00  0.00     0.277 C 
HETATM    5  O1  UNL     1      21.284   4.240  52.661  1.00  0.00    -0.264 OA
HETATM    6  O2  UNL     1      21.775   2.342  51.806  1.00  0.00    -0.227 OA
HETATM    7  N2  UNL     1      22.922   2.063  52.379  1.00  0.00    -0.192 NA
HETATM    8  C7  UNL     1      23.798   3.087  52.723  1.00  0.00     0.159 C 
HETATM    9  C8  UNL     1      24.382   3.759  51.544  1.00  0.00    -0.009 C 
HETATM   10  C9  UNL     1      25.198   2.864  50.936  1.00  0.00     0.011 C 
HETATM   11  C10 UNL     1      26.108   3.201  49.818  1.00  0.00     0.004 C 
HETATM   12  C11 UNL     1      26.270   4.396  49.249  1.00  0.00    -0.075 C 
HETATM   13  C15 UNL     1      25.317   5.513  49.048  1.00  0.00     0.083 C 
HETATM   14  C16 UNL     1      24.067   5.401  49.793  1.00  0.00     0.027 C 
HETATM   15  C17 UNL     1      24.158   5.148  51.088  1.00  0.00     0.087 C 
HETATM   16  S1  UNL     1      22.490   5.560  48.993  1.00  0.00    -0.058 SA
HETATM   17  S2  UNL     1      22.320   4.023  47.547  1.00  0.00    -0.073 SA
HETATM   18  C18 UNL     1      21.563   2.548  48.327  1.00  0.00     0.204 C 
HETATM   19  H12 UNL     1      23.406   1.281  51.893  1.00  0.00     0.154 HD
ENDROOT
BRANCH  12  20
HETATM   20  C12 UNL     1      27.594   4.795  48.660  1.00  0.00     0.036 C 
BRANCH  20  21
HETATM   21  C13 UNL     1      27.623   6.238  48.270  1.00  0.00     0.030 C 
BRANCH  21  22
HETATM   22  C14 UNL     1      29.020   6.802  48.101  1.00  0.00     0.164 C 
BRANCH  22  23
HETATM   23  O3  UNL     1      29.399   7.529  49.222  1.00  0.00    -0.401 OA
HETATM   24  H23 UNL     1      30.063   7.062  49.791  1.00  0.00     0.209 HD
ENDBRANCH  22  23
ENDBRANCH  21  22
ENDBRANCH  20  21
ENDBRANCH  12  20
BRANCH  15  25
HETATM   25  O4  UNL     1      24.076   5.989  52.223  1.00  0.00    -0.359 OA
HETATM   26  H26 UNL     1      24.672   6.802  52.294  1.00  0.00     0.217 HD
ENDBRANCH  15  25
BRANCH   1  27
HETATM   27  C3  UNL     1      19.553   3.818  47.980  1.00  0.00     0.117 C 
BRANCH  27  28
HETATM   28  C2  UNL     1      18.211   3.282  47.539  1.00  0.00     0.015 C 
HETATM   29  C1  UNL     1      17.065   4.207  47.956  1.00  0.00     0.006 C 
ENDBRANCH  27  28
ENDBRANCH   1  27
TORSDOF 7
ENDMDL
MODEL 5
REMARK VINA RESULT:      -6.5      3.391      6.799
REMARK  7 active torsions:
REMARK  status: ('A' for Active; 'I' for Inactive)
REMARK    1  A    between atoms: C2_2  and  C3_3 
REMARK    2  A    between atoms: C3_3  and  N1_4 
REMARK    3  A    between atoms: C11_15  and  C12_16 
REMARK    4  A    between atoms: C12_16  and  C13_17 
REMARK    5  A    between atoms: C13_17  and  C14_18 
REMARK    6  A    between atoms: C14_18  and  O3_19 
REMARK    7  A    between atoms: C17_22  and  O4_23 
ROOT
HETATM    1  N1  UNL     1      24.290   1.392  52.771  1.00  0.00    -0.403 N 
HETATM    2  C4  UNL     1      23.080   0.883  53.189  1.00  0.00     0.127 C 
HETATM    3  C5  UNL     1      22.142   0.512  52.076  1.00  0.00     0.132 C 
HETATM    4  C6  UNL     1      21.367   1.706  51.561  1.00  0.00     0.277 C 
HETATM    5  O1  UNL     1      20.779   1.852  50.476  1.00  0.00    -0.264 OA
HETATM    6  O2  UNL     1      21.231   2.828  52.325  1.00  0.00    -0.227 OA
HETATM    7  N2  UNL     1      20.619   3.981  52.192  1.00  0.00    -0.192 NA
HETATM    8  C7  UNL     1      20.495   4.566  50.936  1.00  0.00     0.159 C 
HETATM    9  C8  UNL     1      21.789   5.022  50.388  1.00  0.00    -0.009 C 
HETATM   10  C9  UNL     1      22.206   6.058  51.157  1.00  0.00     0.011 C 
HETATM   11  C10 UNL     1      23.374   6.909  50.834  1.00  0.00     0.004 C 
HETATM   12  C11 UNL     1      24.174   6.801  49.774  1.00  0.00    -0.075 C 
HETATM   13  C15 UNL     1      24.595   5.617  48.990  1.00  0.00     0.083 C 
HETATM   14  C16 UNL     1      23.837   4.398  49.257  1.00  0.00     0.027 C 
HETATM   15  C17 UNL     1      22.518   4.488  49.217  1.00  0.00     0.087 C 
HETATM   16  S1  UNL     1      24.645   2.868  49.655  1.00  0.00    -0.058 SA
HETATM   17  S2  UNL     1      25.746   3.142  51.442  1.00  0.00    -0.073 SA
HETATM   18  C18 UNL     1      24.678   2.732  52.873  1.00  0.00     0.204 C 
HETATM   19  H12 UNL     1      20.938   4.662  52.910  1.00  0.00     0.154 HD
ENDROOT
BRANCH  12  20
HETATM   20  C12 UNL     1      24.839   8.015  49.185  1.00  0.00     0.036 C 
BRANCH  20  21
HETATM   21  C13 UNL     1      25.483   8.866  50.232  1.00  0.00     0.030 C 
BRANCH  21  22
HETATM   22  C14 UNL     1      26.989   8.975  50.096  1.00  0.00     0.164 C 
BRANCH  22  23
HETATM   23  O3  UNL     1      27.543   9.596  51.208  1.00  0.00    -0.401 OA
HETATM   24  H23 UNL     1      26.931   9.631  51.987  1.00  0.00     0.209 HD
ENDBRANCH  22  23
ENDBRANCH  21  22
ENDBRANCH  20  21
ENDBRANCH  12  20
BRANCH  15  25
HETATM   25  O4  UNL     1      21.577   4.152  48.215  1.00  0.00    -0.359 OA
HETATM   26  H26 UNL     1      21.542   4.684  47.355  1.00  0.00     0.217 HD
ENDBRANCH  15  25
BRANCH   1  27
HETATM   27  C3  UNL     1      25.267   0.492  52.233  1.00  0.00     0.117 C 
BRANCH  27  28
HETATM   28  C2  UNL     1      25.999  -0.290  53.300  1.00  0.00     0.015 C 
HETATM   29  C1  UNL     1      26.774  -1.470  52.708  1.00  0.00     0.006 C 
ENDBRANCH  27  28
ENDBRANCH   1  27
TORSDOF 7
ENDMDL
MODEL 6
REMARK VINA RESULT:      -6.5      3.579      7.247
REMARK  7 active torsions:
REMARK  status: ('A' for Active; 'I' for Inactive)
REMARK    1  A    between atoms: C2_2  and  C3_3 
REMARK    2  A    between atoms: C3_3  and  N1_4 
REMARK    3  A    between atoms: C11_15  and  C12_16 
REMARK    4  A    between atoms: C12_16  and  C13_17 
REMARK    5  A    between atoms: C13_17  and  C14_18 
REMARK    6  A    between atoms: C14_18  and  O3_19 
REMARK    7  A    between atoms: C17_22  and  O4_23 
ROOT
HETATM    1  N1  UNL     1      20.673   4.453  48.025  1.00  0.00    -0.403 N 
HETATM    2  C4  UNL     1      20.114   3.655  48.998  1.00  0.00     0.127 C 
HETATM    3  C5  UNL     1      20.035   4.290  50.357  1.00  0.00     0.132 C 
HETATM    4  C6  UNL     1      21.336   4.165  51.121  1.00  0.00     0.277 C 
HETATM    5  O1  UNL     1      21.744   4.828  52.090  1.00  0.00    -0.264 OA
HETATM    6  O2  UNL     1      22.253   3.215  50.780  1.00  0.00    -0.227 OA
HETATM    7  N2  UNL     1      23.422   2.835  51.242  1.00  0.00    -0.192 NA
HETATM    8  C7  UNL     1      24.284   3.766  51.811  1.00  0.00     0.159 C 
HETATM    9  C8  UNL     1      24.821   4.726  50.824  1.00  0.00    -0.009 C 
HETATM   10  C9  UNL     1      25.640   4.032  49.995  1.00  0.00     0.011 C 
HETATM   11  C10 UNL     1      26.511   4.661  48.977  1.00  0.00     0.004 C 
HETATM   12  C11 UNL     1      26.631   5.964  48.721  1.00  0.00    -0.075 C 
HETATM   13  C15 UNL     1      25.650   7.069  48.823  1.00  0.00     0.083 C 
HETATM   14  C16 UNL     1      24.422   6.741  49.543  1.00  0.00     0.027 C 
HETATM   15  C17 UNL     1      24.554   6.178  50.732  1.00  0.00     0.087 C 
HETATM   16  S1  UNL     1      22.821   7.049  48.840  1.00  0.00    -0.058 SA
HETATM   17  S2  UNL     1      22.646   5.914  47.062  1.00  0.00    -0.073 SA
HETATM   18  C18 UNL     1      21.943   4.271  47.466  1.00  0.00     0.204 C 
HETATM   19  H12 UNL     1      23.910   2.212  50.566  1.00  0.00     0.154 HD
ENDROOT
BRANCH  12  20
HETATM   20  C12 UNL     1      27.930   6.533  48.222  1.00  0.00     0.036 C 
BRANCH  20  21
HETATM   21  C13 UNL     1      29.030   5.520  48.236  1.00  0.00     0.030 C 
BRANCH  21  22
HETATM   22  C14 UNL     1      30.389   6.093  48.590  1.00  0.00     0.164 C 
BRANCH  22  23
HETATM   23  O3  UNL     1      30.845   5.575  49.796  1.00  0.00    -0.401 OA
HETATM   24  H23 UNL     1      31.765   5.208  49.746  1.00  0.00     0.209 HD
ENDBRANCH  22  23
ENDBRANCH  21  22
ENDBRANCH  20  21
ENDBRANCH  12  20
BRANCH  15  25
HETATM   25  O4  UNL     1      24.484   6.708  52.042  1.00  0.00    -0.359 OA
HETATM   26  H26 UNL     1      24.037   6.178  52.778  1.00  0.00     0.217 HD
ENDBRANCH  15  25
BRANCH   1  27
HETATM   27  C3  UNL     1      19.897   5.531  47.488  1.00  0.00     0.117 C 
BRANCH  27  28
HETATM   28  C2  UNL     1      18.549   5.086  46.968  1.00  0.00     0.015 C 
HETATM   29  C1  UNL     1      17.451   6.101  47.294  1.00  0.00     0.006 C 
ENDBRANCH  27  28
ENDBRANCH   1  27
TORSDOF 7
ENDMDL
MODEL 7
REMARK VINA RESULT:      -6.1      3.075      7.226
REMARK  7 active torsions:
REMARK  status: ('A' for Active; 'I' for Inactive)
REMARK    1  A    between atoms: C2_2  and  C3_3 
REMARK    2  A    between atoms: C3_3  and  N1_4 
REMARK    3  A    between atoms: C11_15  and  C12_16 
REMARK    4  A    between atoms: C12_16  and  C13_17 
REMARK    5  A    between atoms: C13_17  and  C14_18 
REMARK    6  A    between atoms: C14_18  and  O3_19 
REMARK    7  A    between atoms: C17_22  and  O4_23 
ROOT
HETATM    1  N1  UNL     1      20.547   1.259  49.996  1.00  0.00    -0.403 N 
HETATM    2  C4  UNL     1      20.961   0.238  50.823  1.00  0.00     0.127 C 
HETATM    3  C5  UNL     1      21.155   0.637  52.258  1.00  0.00     0.132 C 
HETATM    4  C6  UNL     1      22.511   1.267  52.497  1.00  0.00     0.277 C 
HETATM    5  O1  UNL     1      22.884   1.994  53.432  1.00  0.00    -0.264 OA
HETATM    6  O2  UNL     1      23.536   1.059  51.623  1.00  0.00    -0.227 OA
HETATM    7  N2  UNL     1      24.797   1.420  51.557  1.00  0.00    -0.192 NA
HETATM    8  C7  UNL     1      25.198   2.651  52.064  1.00  0.00     0.159 C 
HETATM    9  C8  UNL     1      24.678   3.789  51.278  1.00  0.00    -0.009 C 
HETATM   10  C9  UNL     1      25.290   3.754  50.069  1.00  0.00     0.011 C 
HETATM   11  C10 UNL     1      25.176   4.825  49.053  1.00  0.00     0.004 C 
HETATM   12  C11 UNL     1      24.482   5.958  49.158  1.00  0.00    -0.075 C 
HETATM   13  C15 UNL     1      23.226   6.264  49.883  1.00  0.00     0.083 C 
HETATM   14  C16 UNL     1      22.793   5.241  50.830  1.00  0.00     0.027 C 
HETATM   15  C17 UNL     1      23.690   4.807  51.699  1.00  0.00     0.087 C 
HETATM   16  S1  UNL     1      21.146   4.578  50.795  1.00  0.00    -0.058 SA
HETATM   17  S2  UNL     1      20.843   3.647  48.918  1.00  0.00    -0.073 SA
HETATM   18  C18 UNL     1      21.344   1.889  49.035  1.00  0.00     0.204 C 
HETATM   19  H12 UNL     1      25.192   1.239  50.612  1.00  0.00     0.154 HD
ENDROOT
BRANCH  12  20
HETATM   20  C12 UNL     1      24.937   7.208  48.458  1.00  0.00     0.036 C 
BRANCH  20  21
HETATM   21  C13 UNL     1      26.427   7.296  48.380  1.00  0.00     0.030 C 
BRANCH  21  22
HETATM   22  C14 UNL     1      27.029   8.352  49.286  1.00  0.00     0.164 C 
BRANCH  22  23
HETATM   23  O3  UNL     1      26.678   8.125  50.611  1.00  0.00    -0.401 OA
HETATM   24  H23 UNL     1      26.653   7.164  50.854  1.00  0.00     0.209 HD
ENDBRANCH  22  23
ENDBRANCH  21  22
ENDBRANCH  20  21
ENDBRANCH  12  20
BRANCH  15  25
HETATM   25  O4  UNL     1      23.924   5.129  53.057  1.00  0.00    -0.359 OA
HETATM   26  H26 UNL     1      23.590   6.006  53.433  1.00  0.00     0.217 HD
ENDBRANCH  15  25
BRANCH   1  27
HETATM   27  C3  UNL     1      19.184   1.696  50.071  1.00  0.00     0.117 C 
BRANCH  27  28
HETATM   28  C2  UNL     1      18.198   0.551  50.090  1.00  0.00     0.015 C 
HETATM   29  C1  UNL     1      17.381   0.527  51.384  1.00  0.00     0.006 C 
ENDBRANCH  27  28
ENDBRANCH   1  27
TORSDOF 7
ENDMDL
MODEL 8
REMARK VINA RESULT:      -6.1      2.928      7.337
REMARK  7 active torsions:
REMARK  status: ('A' for Active; 'I' for Inactive)
REMARK    1  A    between atoms: C2_2  and  C3_3 
REMARK    2  A    between atoms: C3_3  and  N1_4 
REMARK    3  A    between atoms: C11_15  and  C12_16 
REMARK    4  A    between atoms: C12_16  and  C13_17 
REMARK    5  A    between atoms: C13_17  and  C14_18 
REMARK    6  A    between atoms: C14_18  and  O3_19 
REMARK    7  A    between atoms: C17_22  and  O4_23 
ROOT
HETATM    1  N1  UNL     1      21.151   0.134  52.123  1.00  0.00    -0.403 N 
HETATM    2  C4  UNL     1      22.200  -0.491  52.761  1.00  0.00     0.127 C 
HETATM    3  C5  UNL     1      22.888   0.348  53.800  1.00  0.00     0.132 C 
HETATM    4  C6  UNL     1      23.920   1.275  53.193  1.00  0.00     0.277 C 
HETATM    5  O1  UNL     1      24.423   2.307  53.668  1.00  0.00    -0.264 OA
HETATM    6  O2  UNL     1      24.438   1.023  51.958  1.00  0.00    -0.227 OA
HETATM    7  N2  UNL     1      25.339   1.588  51.188  1.00  0.00    -0.192 NA
HETATM    8  C7  UNL     1      25.508   2.969  51.210  1.00  0.00     0.159 C 
HETATM    9  C8  UNL     1      24.352   3.695  50.643  1.00  0.00    -0.009 C 
HETATM   10  C9  UNL     1      24.319   3.422  49.316  1.00  0.00     0.011 C 
HETATM   11  C10 UNL     1      23.418   4.097  48.355  1.00  0.00     0.004 C 
HETATM   12  C11 UNL     1      22.526   5.049  48.628  1.00  0.00    -0.075 C 
HETATM   13  C15 UNL     1      21.715   5.303  49.842  1.00  0.00     0.083 C 
HETATM   14  C16 UNL     1      22.117   4.544  51.023  1.00  0.00     0.027 C 
HETATM   15  C17 UNL     1      23.398   4.576  51.352  1.00  0.00     0.087 C 
HETATM   16  S1  UNL     1      20.947   3.591  51.958  1.00  0.00    -0.058 SA
HETATM   17  S2  UNL     1      20.138   2.101  50.689  1.00  0.00    -0.073 SA
HETATM   18  C18 UNL     1      21.172   0.593  50.802  1.00  0.00     0.204 C 
HETATM   19  H12 UNL     1      25.293   1.216  50.218  1.00  0.00     0.154 HD
ENDROOT
BRANCH  12  20
HETATM   20  C12 UNL     1      22.182   6.097  47.606  1.00  0.00     0.036 C 
BRANCH  20  21
HETATM   21  C13 UNL     1      21.301   5.559  46.524  1.00  0.00     0.030 C 
BRANCH  21  22
HETATM   22  C14 UNL     1      22.018   5.315  45.211  1.00  0.00     0.164 C 
BRANCH  22  23
HETATM   23  O3  UNL     1      21.917   3.983  44.832  1.00  0.00    -0.401 OA
HETATM   24  H23 UNL     1      21.317   3.450  45.415  1.00  0.00     0.209 HD
ENDBRANCH  22  23
ENDBRANCH  21  22
ENDBRANCH  20  21
ENDBRANCH  12  20
BRANCH  15  25
HETATM   25  O4  UNL     1      24.108   5.327  52.317  1.00  0.00    -0.359 OA
HETATM   26  H26 UNL     1      24.403   6.271  52.106  1.00  0.00     0.217 HD
ENDBRANCH  15  25
BRANCH   1  27
HETATM   27  C3  UNL     1      19.914   0.295  52.828  1.00  0.00     0.117 C 
BRANCH  27  28
HETATM   28  C2  UNL     1      19.423  -0.988  53.458  1.00  0.00     0.015 C 
HETATM   29  C1  UNL     1      17.968  -1.282  53.085  1.00  0.00     0.006 C 
ENDBRANCH  27  28
ENDBRANCH   1  27
TORSDOF 7
ENDMDL
MODEL 9
REMARK VINA RESULT:      -6.1      2.939      4.409
REMARK  7 active torsions:
REMARK  status: ('A' for Active; 'I' for Inactive)
REMARK    1  A    between atoms: C2_2  and  C3_3 
REMARK    2  A    between atoms: C3_3  and  N1_4 
REMARK    3  A    between atoms: C11_15  and  C12_16 
REMARK    4  A    between atoms: C12_16  and  C13_17 
REMARK    5  A    between atoms: C13_17  and  C14_18 
REMARK    6  A    between atoms: C14_18  and  O3_19 
REMARK    7  A    between atoms: C17_22  and  O4_23 
ROOT
HETATM    1  N1  UNL     1      21.548   5.083  47.388  1.00  0.00    -0.403 N 
HETATM    2  C4  UNL     1      22.258   6.203  47.761  1.00  0.00     0.127 C 
HETATM    3  C5  UNL     1      23.649   5.924  48.255  1.00  0.00     0.132 C 
HETATM    4  C6  UNL     1      23.667   5.529  49.716  1.00  0.00     0.277 C 
HETATM    5  O1  UNL     1      24.545   4.925  50.355  1.00  0.00    -0.264 OA
HETATM    6  O2  UNL     1      22.621   5.842  50.533  1.00  0.00    -0.227 OA
HETATM    7  N2  UNL     1      22.348   5.680  51.807  1.00  0.00    -0.192 NA
HETATM    8  C7  UNL     1      22.816   4.558  52.483  1.00  0.00     0.159 C 
HETATM    9  C8  UNL     1      22.168   3.308  52.033  1.00  0.00    -0.009 C 
HETATM   10  C9  UNL     1      20.870   3.368  52.420  1.00  0.00     0.011 C 
HETATM   11  C10 UNL     1      19.924   2.234  52.315  1.00  0.00     0.004 C 
HETATM   12  C11 UNL     1      20.184   1.015  51.844  1.00  0.00    -0.075 C 
HETATM   13  C15 UNL     1      21.125   0.559  50.794  1.00  0.00     0.083 C 
HETATM   14  C16 UNL     1      22.101   1.557  50.363  1.00  0.00     0.027 C 
HETATM   15  C17 UNL     1      22.786   2.176  51.310  1.00  0.00     0.087 C 
HETATM   16  S1  UNL     1      22.333   1.950  48.648  1.00  0.00    -0.058 SA
HETATM   17  S2  UNL     1      20.510   2.711  47.887  1.00  0.00    -0.073 SA
HETATM   18  C18 UNL     1      20.482   4.530  48.105  1.00  0.00     0.204 C 
HETATM   19  H12 UNL     1      21.344   5.864  52.003  1.00  0.00     0.154 HD
ENDROOT
BRANCH  12  20
HETATM   20  C12 UNL     1      19.454  -0.188  52.374  1.00  0.00     0.036 C 
BRANCH  20  21
HETATM   21  C13 UNL     1      17.992  -0.138  52.065  1.00  0.00     0.030 C 
BRANCH  21  22
HETATM   22  C14 UNL     1      17.170  -1.171  52.810  1.00  0.00     0.164 C 
BRANCH  22  23
HETATM   23  O3  UNL     1      16.076  -0.580  53.429  1.00  0.00    -0.401 OA
HETATM   24  H23 UNL     1      15.812   0.287  53.024  1.00  0.00     0.209 HD
ENDBRANCH  22  23
ENDBRANCH  21  22
ENDBRANCH  20  21
ENDBRANCH  12  20
BRANCH  15  25
HETATM   25  O4  UNL     1      24.092   1.975  51.816  1.00  0.00    -0.359 OA
HETATM   26  H26 UNL     1      24.431   2.543  52.581  1.00  0.00     0.217 HD
ENDBRANCH  15  25
BRANCH   1  27
HETATM   27  C3  UNL     1      21.872   4.444  46.147  1.00  0.00     0.117 C 
BRANCH  27  28
HETATM   28  C2  UNL     1      21.327   5.180  44.945  1.00  0.00     0.015 C 
HETATM   29  C1  UNL     1      20.734   4.218  43.912  1.00  0.00     0.006 C 
ENDBRANCH  27  28
ENDBRANCH   1  27
TORSDOF 7
ENDMDL
