MODEL 1
REMARK VINA RESULT:      -6.8      0.000      0.000
REMARK  6 active torsions:
REMARK  status: ('A' for Active; 'I' for Inactive)
REMARK    1  A    between atoms: C2_2  and  N1_3 
REMARK    2  A    between atoms: C2_2  and  C3_4 
REMARK    3  A    between atoms: C3_4  and  C4_5 
REMARK    4  A    between atoms: C4_5  and  N2_6 
REMARK    5  A    between atoms: C10_15  and  N6_16 
REMARK    6  A    between atoms: N6_16  and  C11_17 
ROOT
HETATM    1  N2  UNL     1      23.968   2.912  52.280  1.00  0.00     0.105 N 
HETATM    2  C5  UNL     1      24.381   2.820  50.922  1.00  0.00     0.300 C 
HETATM    3  C6  UNL     1      25.659   2.158  50.665  1.00  0.00     0.003 C 
HETATM    4  C7  UNL     1      26.491   1.703  51.602  1.00  0.00     0.028 C 
HETATM    5  C8  UNL     1      26.105   1.875  53.007  1.00  0.00     0.178 C 
HETATM    6  N3  UNL     1      27.050   2.575  53.849  1.00  0.00    -0.278 N 
HETATM    7  N4  UNL     1      27.782   1.569  54.536  1.00  0.00    -0.172 NA
HETATM    8  C9  UNL     1      27.105   0.466  54.454  1.00  0.00     0.231 C 
HETATM    9  N5  UNL     1      25.879   0.605  53.726  1.00  0.00    -0.317 N 
HETATM   10  C10 UNL     1      24.575   0.613  53.043  1.00  0.00     0.222 C 
HETATM   11  C14 UNL     1      24.660   2.119  53.222  1.00  0.00     0.319 C 
HETATM   12  H15 UNL     1      27.211   3.604  53.972  1.00  0.00     0.185 HD
ENDROOT
BRANCH   1  13
HETATM   13  C4  UNL     1      23.842   4.275  52.753  1.00  0.00     0.275 C 
BRANCH  13  14
HETATM   14  C3  UNL     1      22.726   5.009  52.031  1.00  0.00     0.065 C 
BRANCH  14  15
HETATM   15  C2  UNL     1      23.406   6.123  51.234  1.00  0.00     0.215 C 
HETATM   16  C1  UNL     1      22.330   7.076  50.798  1.00  0.00     0.042 C 
BRANCH  15  17
HETATM   17  N1  UNL     1      24.373   6.789  52.094  1.00  0.00     0.082 N 
HETATM   18  H5  UNL     1      24.836   6.133  52.763  1.00  0.00     0.313 HD
HETATM   19  H6  UNL     1      25.171   7.079  51.448  1.00  0.00     0.313 HD
ENDBRANCH  15  17
ENDBRANCH  14  15
ENDBRANCH  13  14
ENDBRANCH   1  13
BRANCH  10  20
HETATM   20  N6  UNL     1      23.488   0.086  53.773  1.00  0.00    -0.396 N 
HETATM   21  H18 UNL     1      23.112   0.619  54.554  1.00  0.00     0.155 HD
BRANCH  20  22
HETATM   22  C11 UNL     1      22.595  -0.790  53.141  1.00  0.00     0.070 C 
HETATM   23  C12 UNL     1      21.795  -0.008  52.117  1.00  0.00     0.031 C 
HETATM   24  C13 UNL     1      21.707  -1.621  53.994  1.00  0.00     0.031 C 
ENDBRANCH  20  22
ENDBRANCH  10  20
TORSDOF 6
ENDMDL
MODEL 2
REMARK VINA RESULT:      -6.6      2.168      5.139
REMARK  6 active torsions:
REMARK  status: ('A' for Active; 'I' for Inactive)
REMARK    1  A    between atoms: C2_2  and  N1_3 
REMARK    2  A    between atoms: C2_2  and  C3_4 
REMARK    3  A    between atoms: C3_4  and  C4_5 
REMARK    4  A    between atoms: C4_5  and  N2_6 
REMARK    5  A    between atoms: C10_15  and  N6_16 
REMARK    6  A    between atoms: N6_16  and  C11_17 
ROOT
HETATM    1  N2  UNL     1      25.497   1.059  52.921  1.00  0.00     0.105 N 
HETATM    2  C5  UNL     1      25.507   2.233  53.725  1.00  0.00     0.300 C 
HETATM    3  C6  UNL     1      24.501   3.249  53.419  1.00  0.00     0.003 C 
HETATM    4  C7  UNL     1      23.631   3.191  52.410  1.00  0.00     0.028 C 
HETATM    5  C8  UNL     1      23.677   2.019  51.529  1.00  0.00     0.178 C 
HETATM    6  N3  UNL     1      23.850   2.287  50.118  1.00  0.00    -0.278 N 
HETATM    7  N4  UNL     1      22.551   2.230  49.546  1.00  0.00    -0.172 NA
HETATM    8  C9  UNL     1      21.781   1.607  50.383  1.00  0.00     0.231 C 
HETATM    9  N5  UNL     1      22.459   1.186  51.574  1.00  0.00    -0.317 N 
HETATM   10  C10 UNL     1      23.035   0.659  52.821  1.00  0.00     0.222 C 
HETATM   11  C14 UNL     1      24.363   0.841  52.108  1.00  0.00     0.319 C 
HETATM   12  H15 UNL     1      24.723   2.488  49.571  1.00  0.00     0.185 HD
ENDROOT
BRANCH   1  13
HETATM   13  C4  UNL     1      26.716   0.873  52.160  1.00  0.00     0.275 C 
BRANCH  13  14
HETATM   14  C3  UNL     1      27.945   1.117  53.018  1.00  0.00     0.065 C 
BRANCH  14  15
HETATM   15  C2  UNL     1      28.318  -0.243  53.609  1.00  0.00     0.215 C 
HETATM   16  C1  UNL     1      29.810  -0.378  53.502  1.00  0.00     0.042 C 
BRANCH  15  17
HETATM   17  N1  UNL     1      27.891  -0.281  54.999  1.00  0.00     0.082 N 
HETATM   18  H5  UNL     1      26.948  -0.715  55.119  1.00  0.00     0.313 HD
HETATM   19  H6  UNL     1      28.542  -0.978  55.475  1.00  0.00     0.313 HD
ENDBRANCH  15  17
ENDBRANCH  14  15
ENDBRANCH  13  14
ENDBRANCH   1  13
BRANCH  10  20
HETATM   20  N6  UNL     1      22.796  -0.707  53.087  1.00  0.00    -0.396 N 
HETATM   21  H18 UNL     1      23.372  -1.408  52.626  1.00  0.00     0.155 HD
BRANCH  20  22
HETATM   22  C11 UNL     1      22.240  -1.082  54.317  1.00  0.00     0.070 C 
HETATM   23  C12 UNL     1      21.186  -0.061  54.700  1.00  0.00     0.031 C 
HETATM   24  C13 UNL     1      23.162  -1.351  55.450  1.00  0.00     0.031 C 
ENDBRANCH  20  22
ENDBRANCH  10  20
TORSDOF 6
ENDMDL
MODEL 3
REMARK VINA RESULT:      -6.4      1.799      2.295
REMARK  6 active torsions:
REMARK  status: ('A' for Active; 'I' for Inactive)
REMARK    1  A    between atoms: C2_2  and  N1_3 
REMARK    2  A    between atoms: C2_2  and  C3_4 
REMARK    3  A    between atoms: C3_4  and  C4_5 
REMARK    4  A    between atoms: C4_5  and  N2_6 
REMARK    5  A    between atoms: C10_15  and  N6_16 
REMARK    6  A    between atoms: N6_16  and  C11_17 
ROOT
HETATM    1  N2  UNL     1      22.515   3.801  51.536  1.00  0.00     0.105 N 
HETATM    2  C5  UNL     1      22.053   3.720  50.193  1.00  0.00     0.300 C 
HETATM    3  C6  UNL     1      22.998   3.207  49.201  1.00  0.00     0.003 C 
HETATM    4  C7  UNL     1      24.267   2.881  49.445  1.00  0.00     0.028 C 
HETATM    5  C8  UNL     1      24.769   3.045  50.814  1.00  0.00     0.178 C 
HETATM    6  N3  UNL     1      25.943   3.876  50.969  1.00  0.00    -0.278 N 
HETATM    7  N4  UNL     1      27.047   2.985  51.045  1.00  0.00    -0.172 NA
HETATM    8  C9  UNL     1      26.581   1.808  51.326  1.00  0.00     0.231 C 
HETATM    9  N5  UNL     1      25.155   1.779  51.467  1.00  0.00    -0.317 N 
HETATM   10  C10 UNL     1      23.710   1.613  51.685  1.00  0.00     0.222 C 
HETATM   11  C14 UNL     1      23.714   3.123  51.850  1.00  0.00     0.319 C 
HETATM   12  H15 UNL     1      26.028   4.921  51.022  1.00  0.00     0.185 HD
ENDROOT
BRANCH   1  13
HETATM   13  C4  UNL     1      22.541   5.153  52.055  1.00  0.00     0.275 C 
BRANCH  13  14
HETATM   14  C3  UNL     1      22.468   6.176  50.936  1.00  0.00     0.065 C 
BRANCH  14  15
HETATM   15  C2  UNL     1      23.860   6.802  50.851  1.00  0.00     0.215 C 
HETATM   16  C1  UNL     1      23.693   8.178  50.273  1.00  0.00     0.042 C 
BRANCH  15  17
HETATM   17  N1  UNL     1      24.425   6.866  52.191  1.00  0.00     0.082 N 
HETATM   18  H5  UNL     1      23.728   7.172  52.907  1.00  0.00     0.313 HD
HETATM   19  H6  UNL     1      24.624   5.854  52.462  1.00  0.00     0.313 HD
ENDBRANCH  15  17
ENDBRANCH  14  15
ENDBRANCH  13  14
ENDBRANCH   1  13
BRANCH  10  20
HETATM   20  N6  UNL     1      23.331   0.982  52.890  1.00  0.00    -0.396 N 
HETATM   21  H18 UNL     1      23.357   1.515  53.756  1.00  0.00     0.155 HD
BRANCH  20  22
HETATM   22  C11 UNL     1      22.423  -0.085  52.852  1.00  0.00     0.070 C 
HETATM   23  C12 UNL     1      21.450   0.151  51.714  1.00  0.00     0.031 C 
HETATM   24  C13 UNL     1      21.708  -0.441  54.104  1.00  0.00     0.031 C 
ENDBRANCH  20  22
ENDBRANCH  10  20
TORSDOF 6
ENDMDL
MODEL 4
REMARK VINA RESULT:      -6.1      1.765      5.426
REMARK  6 active torsions:
REMARK  status: ('A' for Active; 'I' for Inactive)
REMARK    1  A    between atoms: C2_2  and  N1_3 
REMARK    2  A    between atoms: C2_2  and  C3_4 
REMARK    3  A    between atoms: C3_4  and  C4_5 
REMARK    4  A    between atoms: C4_5  and  N2_6 
REMARK    5  A    between atoms: C10_15  and  N6_16 
REMARK    6  A    between atoms: N6_16  and  C11_17 
ROOT
HETATM    1  N2  UNL     1      22.340   1.582  52.170  1.00  0.00     0.105 N 
HETATM    2  C5  UNL     1      22.371   1.021  50.862  1.00  0.00     0.300 C 
HETATM    3  C6  UNL     1      22.610   1.946  49.755  1.00  0.00     0.003 C 
HETATM    4  C7  UNL     1      22.730   3.268  49.869  1.00  0.00     0.028 C 
HETATM    5  C8  UNL     1      22.613   3.856  51.208  1.00  0.00     0.178 C 
HETATM    6  N3  UNL     1      21.607   4.883  51.370  1.00  0.00    -0.278 N 
HETATM    7  N4  UNL     1      22.293   6.123  51.267  1.00  0.00    -0.172 NA
HETATM    8  C9  UNL     1      23.556   5.889  51.448  1.00  0.00     0.231 C 
HETATM    9  N5  UNL     1      23.849   4.507  51.687  1.00  0.00    -0.317 N 
HETATM   10  C10 UNL     1      24.288   3.135  51.989  1.00  0.00     0.222 C 
HETATM   11  C14 UNL     1      22.824   2.900  52.320  1.00  0.00     0.319 C 
HETATM   12  H15 UNL     1      20.574   4.797  51.533  1.00  0.00     0.185 HD
ENDROOT
BRANCH   1  13
HETATM   13  C4  UNL     1      21.062   1.427  52.832  1.00  0.00     0.275 C 
BRANCH  13  14
HETATM   14  C3  UNL     1      20.470   0.053  52.576  1.00  0.00     0.065 C 
BRANCH  14  15
HETATM   15  C2  UNL     1      20.547  -0.691  53.909  1.00  0.00     0.215 C 
HETATM   16  C1  UNL     1      21.792  -1.531  53.877  1.00  0.00     0.042 C 
BRANCH  15  17
HETATM   17  N1  UNL     1      20.607   0.286  54.986  1.00  0.00     0.082 N 
HETATM   18  H5  UNL     1      21.327   0.049  55.705  1.00  0.00     0.313 HD
HETATM   19  H6  UNL     1      20.995   1.174  54.538  1.00  0.00     0.313 HD
ENDBRANCH  15  17
ENDBRANCH  14  15
ENDBRANCH  13  14
ENDBRANCH   1  13
BRANCH  10  20
HETATM   20  N6  UNL     1      25.089   2.977  53.140  1.00  0.00    -0.396 N 
HETATM   21  H18 UNL     1      24.679   3.150  54.055  1.00  0.00     0.155 HD
BRANCH  20  22
HETATM   22  C11 UNL     1      26.169   2.084  53.109  1.00  0.00     0.070 C 
HETATM   23  C12 UNL     1      26.239   1.459  51.729  1.00  0.00     0.031 C 
HETATM   24  C13 UNL     1      26.252   1.049  54.171  1.00  0.00     0.031 C 
ENDBRANCH  20  22
ENDBRANCH  10  20
TORSDOF 6
ENDMDL
MODEL 5
REMARK VINA RESULT:      -6.0      7.872     10.647
REMARK  6 active torsions:
REMARK  status: ('A' for Active; 'I' for Inactive)
REMARK    1  A    between atoms: C2_2  and  N1_3 
REMARK    2  A    between atoms: C2_2  and  C3_4 
REMARK    3  A    between atoms: C3_4  and  C4_5 
REMARK    4  A    between atoms: C4_5  and  N2_6 
REMARK    5  A    between atoms: C10_15  and  N6_16 
REMARK    6  A    between atoms: N6_16  and  C11_17 
ROOT
HETATM    1  N2  UNL     1      30.680   7.569  48.184  1.00  0.00     0.105 N 
HETATM    2  C5  UNL     1      30.409   7.538  46.788  1.00  0.00     0.300 C 
HETATM    3  C6  UNL     1      29.038   7.835  46.377  1.00  0.00     0.003 C 
HETATM    4  C7  UNL     1      28.018   8.060  47.205  1.00  0.00     0.028 C 
HETATM    5  C8  UNL     1      28.279   8.008  48.648  1.00  0.00     0.178 C 
HETATM    6  N3  UNL     1      27.465   7.088  49.413  1.00  0.00    -0.278 N 
HETATM    7  N4  UNL     1      26.424   7.869  49.984  1.00  0.00    -0.172 NA
HETATM    8  C9  UNL     1      26.793   9.111  49.932  1.00  0.00     0.231 C 
HETATM    9  N5  UNL     1      28.084   9.297  49.340  1.00  0.00    -0.317 N 
HETATM   10  C10 UNL     1      29.411   9.630  48.797  1.00  0.00     0.222 C 
HETATM   11  C14 UNL     1      29.705   8.157  49.020  1.00  0.00     0.319 C 
HETATM   12  H15 UNL     1      27.568   6.054  49.555  1.00  0.00     0.185 HD
ENDROOT
BRANCH   1  13
HETATM   13  C4  UNL     1      31.107   6.291  48.716  1.00  0.00     0.275 C 
BRANCH  13  14
HETATM   14  C3  UNL     1      30.815   5.163  47.743  1.00  0.00     0.065 C 
BRANCH  14  15
HETATM   15  C2  UNL     1      32.083   4.310  47.699  1.00  0.00     0.215 C 
HETATM   16  C1  UNL     1      32.594   4.348  46.287  1.00  0.00     0.042 C 
BRANCH  15  17
HETATM   17  N1  UNL     1      33.058   4.877  48.620  1.00  0.00     0.082 N 
HETATM   18  H5  UNL     1      33.296   4.228  49.404  1.00  0.00     0.313 HD
HETATM   19  H6  UNL     1      33.968   4.932  48.066  1.00  0.00     0.313 HD
ENDBRANCH  15  17
ENDBRANCH  14  15
ENDBRANCH  13  14
ENDBRANCH   1  13
BRANCH  10  20
HETATM   20  N6  UNL     1      30.235  10.431  49.616  1.00  0.00    -0.396 N 
HETATM   21  H18 UNL     1      30.640  10.026  50.457  1.00  0.00     0.155 HD
BRANCH  20  22
HETATM   22  C11 UNL     1      30.942  11.498  49.046  1.00  0.00     0.070 C 
HETATM   23  C12 UNL     1      30.061  12.732  49.074  1.00  0.00     0.031 C 
HETATM   24  C13 UNL     1      31.546  11.301  47.704  1.00  0.00     0.031 C 
ENDBRANCH  20  22
ENDBRANCH  10  20
TORSDOF 6
ENDMDL
MODEL 6
REMARK VINA RESULT:      -5.9      2.357      6.546
REMARK  6 active torsions:
REMARK  status: ('A' for Active; 'I' for Inactive)
REMARK    1  A    between atoms: C2_2  and  N1_3 
REMARK    2  A    between atoms: C2_2  and  C3_4 
REMARK    3  A    between atoms: C3_4  and  C4_5 
REMARK    4  A    between atoms: C4_5  and  N2_6 
REMARK    5  A    between atoms: C10_15  and  N6_16 
REMARK    6  A    between atoms: N6_16  and  C11_17 
ROOT
HETATM    1  N2  UNL     1      24.441   3.586  51.259  1.00  0.00     0.105 N 
HETATM    2  C5  UNL     1      23.766   2.671  50.405  1.00  0.00     0.300 C 
HETATM    3  C6  UNL     1      22.657   3.204  49.615  1.00  0.00     0.003 C 
HETATM    4  C7  UNL     1      22.190   4.451  49.687  1.00  0.00     0.028 C 
HETATM    5  C8  UNL     1      22.832   5.372  50.631  1.00  0.00     0.178 C 
HETATM    6  N3  UNL     1      21.964   5.999  51.603  1.00  0.00    -0.278 N 
HETATM    7  N4  UNL     1      21.666   7.289  51.088  1.00  0.00    -0.172 NA
HETATM    8  C9  UNL     1      22.549   7.561  50.178  1.00  0.00     0.231 C 
HETATM    9  N5  UNL     1      23.510   6.515  49.987  1.00  0.00    -0.317 N 
HETATM   10  C10 UNL     1      24.585   5.546  49.719  1.00  0.00     0.222 C 
HETATM   11  C14 UNL     1      24.188   4.962  51.063  1.00  0.00     0.319 C 
HETATM   12  H15 UNL     1      21.596   5.632  52.516  1.00  0.00     0.185 HD
ENDROOT
BRANCH   1  13
HETATM   13  C4  UNL     1      24.344   3.242  52.663  1.00  0.00     0.275 C 
BRANCH  13  14
HETATM   14  C3  UNL     1      24.277   1.738  52.859  1.00  0.00     0.065 C 
BRANCH  14  15
HETATM   15  C2  UNL     1      25.646   1.327  53.401  1.00  0.00     0.215 C 
HETATM   16  C1  UNL     1      26.429   0.767  52.248  1.00  0.00     0.042 C 
BRANCH  15  17
HETATM   17  N1  UNL     1      26.302   2.503  53.952  1.00  0.00     0.082 N 
HETATM   18  H5  UNL     1      26.436   2.442  54.987  1.00  0.00     0.313 HD
HETATM   19  H6  UNL     1      27.300   2.470  53.576  1.00  0.00     0.313 HD
ENDBRANCH  15  17
ENDBRANCH  14  15
ENDBRANCH  13  14
ENDBRANCH   1  13
BRANCH  10  20
HETATM   20  N6  UNL     1      25.902   6.052  49.766  1.00  0.00    -0.396 N 
HETATM   21  H18 UNL     1      26.328   6.239  50.670  1.00  0.00     0.155 HD
BRANCH  20  22
HETATM   22  C11 UNL     1      26.787   5.763  48.718  1.00  0.00     0.070 C 
HETATM   23  C12 UNL     1      27.332   4.362  48.920  1.00  0.00     0.031 C 
HETATM   24  C13 UNL     1      27.881   6.728  48.439  1.00  0.00     0.031 C 
ENDBRANCH  20  22
ENDBRANCH  10  20
TORSDOF 6
ENDMDL
MODEL 7
REMARK VINA RESULT:      -5.9      9.358     11.371
REMARK  6 active torsions:
REMARK  status: ('A' for Active; 'I' for Inactive)
REMARK    1  A    between atoms: C2_2  and  N1_3 
REMARK    2  A    between atoms: C2_2  and  C3_4 
REMARK    3  A    between atoms: C3_4  and  C4_5 
REMARK    4  A    between atoms: C4_5  and  N2_6 
REMARK    5  A    between atoms: C10_15  and  N6_16 
REMARK    6  A    between atoms: N6_16  and  C11_17 
ROOT
HETATM    1  N2  UNL     1      32.156   7.023  47.692  1.00  0.00     0.105 N 
HETATM    2  C5  UNL     1      33.056   8.000  48.200  1.00  0.00     0.300 C 
HETATM    3  C6  UNL     1      34.446   7.585  48.380  1.00  0.00     0.003 C 
HETATM    4  C7  UNL     1      34.914   6.354  48.174  1.00  0.00     0.028 C 
HETATM    5  C8  UNL     1      33.968   5.324  47.730  1.00  0.00     0.178 C 
HETATM    6  N3  UNL     1      33.887   4.135  48.550  1.00  0.00    -0.278 N 
HETATM    7  N4  UNL     1      34.704   3.163  47.912  1.00  0.00    -0.172 NA
HETATM    8  C9  UNL     1      34.896   3.554  46.690  1.00  0.00     0.231 C 
HETATM    9  N5  UNL     1      34.248   4.794  46.381  1.00  0.00    -0.317 N 
HETATM   10  C10 UNL     1      33.601   6.030  45.914  1.00  0.00     0.222 C 
HETATM   11  C14 UNL     1      32.718   5.852  47.137  1.00  0.00     0.319 C 
HETATM   12  H15 UNL     1      33.356   3.962  49.438  1.00  0.00     0.185 HD
ENDROOT
BRANCH   1  13
HETATM   13  C4  UNL     1      31.087   6.692  48.611  1.00  0.00     0.275 C 
BRANCH  13  14
HETATM   14  C3  UNL     1      30.196   5.598  48.051  1.00  0.00     0.065 C 
BRANCH  14  15
HETATM   15  C2  UNL     1      28.772   6.152  48.102  1.00  0.00     0.215 C 
HETATM   16  C1  UNL     1      27.876   5.031  48.550  1.00  0.00     0.042 C 
BRANCH  15  17
HETATM   17  N1  UNL     1      28.735   7.256  49.049  1.00  0.00     0.082 N 
HETATM   18  H5  UNL     1      27.815   7.753  49.052  1.00  0.00     0.313 HD
HETATM   19  H6  UNL     1      28.768   6.801  50.013  1.00  0.00     0.313 HD
ENDBRANCH  15  17
ENDBRANCH  14  15
ENDBRANCH  13  14
ENDBRANCH   1  13
BRANCH  10  20
HETATM   20  N6  UNL     1      32.839   5.924  44.730  1.00  0.00    -0.396 N 
HETATM   21  H18 UNL     1      31.832   5.792  44.801  1.00  0.00     0.155 HD
BRANCH  20  22
HETATM   22  C11 UNL     1      33.296   6.543  43.559  1.00  0.00     0.070 C 
HETATM   23  C12 UNL     1      33.792   5.470  42.609  1.00  0.00     0.031 C 
HETATM   24  C13 UNL     1      34.285   7.643  43.688  1.00  0.00     0.031 C 
ENDBRANCH  20  22
ENDBRANCH  10  20
TORSDOF 6
ENDMDL
MODEL 8
REMARK VINA RESULT:      -5.9      2.093      5.319
REMARK  6 active torsions:
REMARK  status: ('A' for Active; 'I' for Inactive)
REMARK    1  A    between atoms: C2_2  and  N1_3 
REMARK    2  A    between atoms: C2_2  and  C3_4 
REMARK    3  A    between atoms: C3_4  and  C4_5 
REMARK    4  A    between atoms: C4_5  and  N2_6 
REMARK    5  A    between atoms: C10_15  and  N6_16 
REMARK    6  A    between atoms: N6_16  and  C11_17 
ROOT
HETATM    1  N2  UNL     1      25.320   1.286  51.496  1.00  0.00     0.105 N 
HETATM    2  C5  UNL     1      24.606   0.286  52.213  1.00  0.00     0.300 C 
HETATM    3  C6  UNL     1      23.430   0.726  52.963  1.00  0.00     0.003 C 
HETATM    4  C7  UNL     1      23.023   1.990  53.083  1.00  0.00     0.028 C 
HETATM    5  C8  UNL     1      23.809   3.032  52.414  1.00  0.00     0.178 C 
HETATM    6  N3  UNL     1      24.297   4.104  53.254  1.00  0.00    -0.278 N 
HETATM    7  N4  UNL     1      23.382   5.178  53.089  1.00  0.00    -0.172 NA
HETATM    8  C9  UNL     1      22.704   4.953  52.007  1.00  0.00     0.231 C 
HETATM    9  N5  UNL     1      23.079   3.739  51.343  1.00  0.00    -0.317 N 
HETATM   10  C10 UNL     1      23.391   2.549  50.536  1.00  0.00     0.222 C 
HETATM   11  C14 UNL     1      24.687   2.537  51.328  1.00  0.00     0.319 C 
HETATM   12  H15 UNL     1      25.141   4.143  53.877  1.00  0.00     0.185 HD
ENDROOT
BRANCH   1  13
HETATM   13  C4  UNL     1      26.683   1.458  51.953  1.00  0.00     0.275 C 
BRANCH  13  14
HETATM   14  C3  UNL     1      27.228   0.178  52.559  1.00  0.00     0.065 C 
BRANCH  14  15
HETATM   15  C2  UNL     1      28.340   0.609  53.516  1.00  0.00     0.215 C 
HETATM   16  C1  UNL     1      28.262   2.104  53.640  1.00  0.00     0.042 C 
BRANCH  15  17
HETATM   17  N1  UNL     1      28.121  -0.031  54.805  1.00  0.00     0.082 N 
HETATM   18  H5  UNL     1      27.135   0.062  55.138  1.00  0.00     0.313 HD
HETATM   19  H6  UNL     1      28.217  -1.077  54.619  1.00  0.00     0.313 HD
ENDBRANCH  15  17
ENDBRANCH  14  15
ENDBRANCH  13  14
ENDBRANCH   1  13
BRANCH  10  20
HETATM   20  N6  UNL     1      23.647   2.777  49.167  1.00  0.00    -0.396 N 
HETATM   21  H18 UNL     1      24.611   2.863  48.852  1.00  0.00     0.155 HD
BRANCH  20  22
HETATM   22  C11 UNL     1      22.727   2.327  48.211  1.00  0.00     0.070 C 
HETATM   23  C12 UNL     1      22.128   3.533  47.513  1.00  0.00     0.031 C 
HETATM   24  C13 UNL     1      21.669   1.380  48.647  1.00  0.00     0.031 C 
ENDBRANCH  20  22
ENDBRANCH  10  20
TORSDOF 6
ENDMDL
MODEL 9
REMARK VINA RESULT:      -5.9      2.276      5.378
REMARK  6 active torsions:
REMARK  status: ('A' for Active; 'I' for Inactive)
REMARK    1  A    between atoms: C2_2  and  N1_3 
REMARK    2  A    between atoms: C2_2  and  C3_4 
REMARK    3  A    between atoms: C3_4  and  C4_5 
REMARK    4  A    between atoms: C4_5  and  N2_6 
REMARK    5  A    between atoms: C10_15  and  N6_16 
REMARK    6  A    between atoms: N6_16  and  C11_17 
ROOT
HETATM    1  N2  UNL     1      24.623   2.379  51.539  1.00  0.00     0.105 N 
HETATM    2  C5  UNL     1      23.857   2.829  52.651  1.00  0.00     0.300 C 
HETATM    3  C6  UNL     1      23.385   4.212  52.608  1.00  0.00     0.003 C 
HETATM    4  C7  UNL     1      23.673   5.095  51.651  1.00  0.00     0.028 C 
HETATM    5  C8  UNL     1      24.534   4.655  50.547  1.00  0.00     0.178 C 
HETATM    6  N3  UNL     1      25.728   5.439  50.316  1.00  0.00    -0.278 N 
HETATM    7  N4  UNL     1      25.413   6.328  49.254  1.00  0.00    -0.172 NA
HETATM    8  C9  UNL     1      24.359   5.867  48.655  1.00  0.00     0.231 C 
HETATM    9  N5  UNL     1      23.865   4.651  49.231  1.00  0.00    -0.317 N 
HETATM   10  C10 UNL     1      23.277   3.382  49.690  1.00  0.00     0.222 C 
HETATM   11  C14 UNL     1      24.616   3.186  50.380  1.00  0.00     0.319 C 
HETATM   12  H15 UNL     1      26.661   5.405  50.796  1.00  0.00     0.185 HD
ENDROOT
BRANCH   1  13
HETATM   13  C4  UNL     1      25.975   1.996  51.889  1.00  0.00     0.275 C 
BRANCH  13  14
HETATM   14  C3  UNL     1      25.988   0.772  52.787  1.00  0.00     0.065 C 
BRANCH  14  15
HETATM   15  C2  UNL     1      26.944   1.105  53.932  1.00  0.00     0.215 C 
HETATM   16  C1  UNL     1      28.153   0.229  53.768  1.00  0.00     0.042 C 
BRANCH  15  17
HETATM   17  N1  UNL     1      27.306   2.512  53.845  1.00  0.00     0.082 N 
HETATM   18  H5  UNL     1      26.472   3.143  53.852  1.00  0.00     0.313 HD
HETATM   19  H6  UNL     1      27.789   2.736  54.769  1.00  0.00     0.313 HD
ENDBRANCH  15  17
ENDBRANCH  14  15
ENDBRANCH  13  14
ENDBRANCH   1  13
BRANCH  10  20
HETATM   20  N6  UNL     1      23.079   2.396  48.700  1.00  0.00    -0.396 N 
HETATM   21  H18 UNL     1      23.889   1.980  48.247  1.00  0.00     0.155 HD
BRANCH  20  22
HETATM   22  C11 UNL     1      21.924   1.602  48.741  1.00  0.00     0.070 C 
HETATM   23  C12 UNL     1      20.767   2.406  48.180  1.00  0.00     0.031 C 
HETATM   24  C13 UNL     1      21.558   0.965  50.032  1.00  0.00     0.031 C 
ENDBRANCH  20  22
ENDBRANCH  10  20
TORSDOF 6
ENDMDL
