MODEL 1
REMARK VINA RESULT:      -8.7      0.000      0.000
REMARK  8 active torsions:
REMARK  status: ('A' for Active; 'I' for Inactive)
REMARK    1  A    between atoms: C5_5  and  N1_6 
REMARK    2  A    between atoms: N1_6  and  C6_7 
REMARK    3  A    between atoms: C14_18  and  N4_19 
REMARK    4  A    between atoms: N4_19  and  C15_20 
REMARK    5  A    between atoms: C15_20  and  N5_21 
REMARK    6  A    between atoms: C15_20  and  C16_22 
REMARK    7  A    between atoms: C16_22  and  C17_23 
REMARK    8  A    between atoms: C17_23  and  N6_24 
ROOT
HETATM    1  C1  UNL     1      23.619  -1.266  55.417  1.00  0.00     0.026 C 
HETATM    2  C2  UNL     1      22.712  -0.887  54.536  1.00  0.00    -0.016 A 
HETATM    3  C3  UNL     1      21.273  -1.109  54.520  1.00  0.00     0.030 A 
HETATM    4  C4  UNL     1      20.723  -0.553  53.434  1.00  0.00     0.042 A 
HETATM    5  C5  UNL     1      19.386  -0.517  53.014  1.00  0.00     0.142 A 
HETATM    6  N2  UNL     1      19.178   0.129  51.868  1.00  0.00    -0.224 NA
HETATM    7  C12 UNL     1      20.152   0.706  51.159  1.00  0.00     0.236 A 
HETATM    8  N3  UNL     1      21.433   0.671  51.564  1.00  0.00    -0.239 NA
HETATM    9  C13 UNL     1      21.723   0.034  52.715  1.00  0.00     0.099 A 
HETATM   10  C14 UNL     1      22.895  -0.127  53.304  1.00  0.00     0.069 A 
ENDROOT
BRANCH  10  11
HETATM   11  N4  UNL     1      24.151   0.374  52.799  1.00  0.00    -0.367 N 
HETATM   12  H10 UNL     1      24.808  -0.268  52.267  1.00  0.00     0.161 HD
BRANCH  11  13
HETATM   13  C15 UNL     1      24.356   1.754  53.104  1.00  0.00     0.176 C 
BRANCH  13  14
HETATM   14  N5  UNL     1      24.076   2.607  51.969  1.00  0.00    -0.411 N 
HETATM   15  H12 UNL     1      24.898   3.008  51.508  1.00  0.00     0.151 HD
HETATM   16  H13 UNL     1      23.278   3.230  52.149  1.00  0.00     0.151 HD
ENDBRANCH  13  14
BRANCH  13  17
HETATM   17  C16 UNL     1      25.652   2.070  53.770  1.00  0.00     0.066 C 
BRANCH  17  18
HETATM   18  C17 UNL     1      26.882   1.809  52.982  1.00  0.00     0.129 C 
BRANCH  18  19
HETATM   19  N6  UNL     1      27.711   0.736  53.409  1.00  0.00    -0.348 N 
HETATM   20  C18 UNL     1      28.757   0.631  54.420  1.00  0.00     0.152 C 
HETATM   21  C19 UNL     1      29.947   0.050  53.642  1.00  0.00     0.188 C 
HETATM   22  O1  UNL     1      29.751  -1.300  53.402  1.00  0.00    -0.380 OA
HETATM   23  C20 UNL     1      28.436  -1.673  53.273  1.00  0.00     0.270 C 
HETATM   24  C21 UNL     1      27.566  -0.553  52.776  1.00  0.00     0.243 C 
HETATM   25  O2  UNL     1      26.744  -0.778  51.827  1.00  0.00    -0.271 OA
ENDBRANCH  18  19
ENDBRANCH  17  18
ENDBRANCH  13  17
ENDBRANCH  11  13
ENDBRANCH  10  11
BRANCH   5  26
HETATM   26  N1  UNL     1      18.403  -1.150  53.814  1.00  0.00    -0.340 N 
HETATM   27  H4  UNL     1      18.305  -0.826  54.810  1.00  0.00     0.167 HD
BRANCH  26  28
HETATM   28  C6  UNL     1      17.518  -2.183  53.435  1.00  0.00     0.035 A 
HETATM   29  C7  UNL     1      17.631  -3.517  53.755  1.00  0.00     0.029 A 
HETATM   30  C8  UNL     1      16.767  -4.513  53.384  1.00  0.00     0.004 A 
HETATM   31  C9  UNL     1      15.684  -4.177  52.626  1.00  0.00     0.019 A 
HETATM   32  C10 UNL     1      15.498  -2.862  52.263  1.00  0.00     0.013 A 
HETATM   33 BR1  UNL     1      13.995  -2.378  51.210  1.00  0.00    -0.051 Br
HETATM   34  C11 UNL     1      16.402  -1.914  52.670  1.00  0.00     0.048 A 
ENDBRANCH  26  28
ENDBRANCH   5  26
TORSDOF 8
ENDMDL
MODEL 2
REMARK VINA RESULT:      -8.4      1.152      2.069
REMARK  8 active torsions:
REMARK  status: ('A' for Active; 'I' for Inactive)
REMARK    1  A    between atoms: C5_5  and  N1_6 
REMARK    2  A    between atoms: N1_6  and  C6_7 
REMARK    3  A    between atoms: C14_18  and  N4_19 
REMARK    4  A    between atoms: N4_19  and  C15_20 
REMARK    5  A    between atoms: C15_20  and  N5_21 
REMARK    6  A    between atoms: C15_20  and  C16_22 
REMARK    7  A    between atoms: C16_22  and  C17_23 
REMARK    8  A    between atoms: C17_23  and  N6_24 
ROOT
HETATM    1  C1  UNL     1      21.594   3.076  51.060  1.00  0.00     0.026 C 
HETATM    2  C2  UNL     1      21.578   2.002  51.827  1.00  0.00    -0.016 A 
HETATM    3  C3  UNL     1      20.452   1.268  52.386  1.00  0.00     0.030 A 
HETATM    4  C4  UNL     1      20.882   0.230  53.115  1.00  0.00     0.042 A 
HETATM    5  C5  UNL     1      20.159  -0.737  53.827  1.00  0.00     0.142 A 
HETATM    6  N2  UNL     1      20.906  -1.643  54.454  1.00  0.00    -0.224 NA
HETATM    7  C12 UNL     1      22.242  -1.650  54.419  1.00  0.00     0.236 A 
HETATM    8  N3  UNL     1      22.933  -0.722  53.736  1.00  0.00    -0.239 NA
HETATM    9  C13 UNL     1      22.245   0.230  53.075  1.00  0.00     0.099 A 
HETATM   10  C14 UNL     1      22.704   1.231  52.346  1.00  0.00     0.069 A 
ENDROOT
BRANCH  10  11
HETATM   11  N4  UNL     1      24.100   1.510  52.105  1.00  0.00    -0.367 N 
HETATM   12  H10 UNL     1      24.654   0.918  51.421  1.00  0.00     0.161 HD
BRANCH  11  13
HETATM   13  C15 UNL     1      24.580   2.616  52.871  1.00  0.00     0.176 C 
BRANCH  13  14
HETATM   14  N5  UNL     1      24.961   3.731  52.031  1.00  0.00    -0.411 N 
HETATM   15  H12 UNL     1      25.749   3.557  51.400  1.00  0.00     0.151 HD
HETATM   16  H13 UNL     1      24.954   4.619  52.550  1.00  0.00     0.151 HD
ENDBRANCH  13  14
BRANCH  13  17
HETATM   17  C16 UNL     1      25.606   2.278  53.898  1.00  0.00     0.066 C 
BRANCH  17  18
HETATM   18  C17 UNL     1      26.966   1.963  53.396  1.00  0.00     0.129 C 
BRANCH  18  19
HETATM   19  N6  UNL     1      27.469   0.660  53.661  1.00  0.00    -0.348 N 
HETATM   20  C18 UNL     1      28.238   0.098  54.767  1.00  0.00     0.152 C 
HETATM   21  C19 UNL     1      29.437  -0.562  54.069  1.00  0.00     0.188 C 
HETATM   22  O1  UNL     1      29.047  -1.744  53.462  1.00  0.00    -0.380 OA
HETATM   23  C20 UNL     1      27.744  -1.764  53.030  1.00  0.00     0.270 C 
HETATM   24  C21 UNL     1      27.225  -0.392  52.704  1.00  0.00     0.243 C 
HETATM   25  O2  UNL     1      26.596  -0.209  51.609  1.00  0.00    -0.271 OA
ENDBRANCH  18  19
ENDBRANCH  17  18
ENDBRANCH  13  17
ENDBRANCH  11  13
ENDBRANCH  10  11
BRANCH   5  26
HETATM   26  N1  UNL     1      18.744  -0.671  53.821  1.00  0.00    -0.340 N 
HETATM   27  H4  UNL     1      18.299   0.241  54.100  1.00  0.00     0.167 HD
BRANCH  26  28
HETATM   28  C6  UNL     1      17.834  -1.696  53.480  1.00  0.00     0.035 A 
HETATM   29  C7  UNL     1      17.901  -3.014  53.873  1.00  0.00     0.029 A 
HETATM   30  C8  UNL     1      17.014  -4.003  53.538  1.00  0.00     0.004 A 
HETATM   31  C9  UNL     1      15.956  -3.676  52.742  1.00  0.00     0.019 A 
HETATM   32  C10 UNL     1      15.817  -2.378  52.306  1.00  0.00     0.013 A 
HETATM   33 BR1  UNL     1      14.349  -1.906  51.198  1.00  0.00    -0.051 Br
HETATM   34  C11 UNL     1      16.742  -1.436  52.680  1.00  0.00     0.048 A 
ENDBRANCH  26  28
ENDBRANCH   5  26
TORSDOF 8
ENDMDL
MODEL 3
REMARK VINA RESULT:      -8.1      6.715      9.502
REMARK  8 active torsions:
REMARK  status: ('A' for Active; 'I' for Inactive)
REMARK    1  A    between atoms: C5_5  and  N1_6 
REMARK    2  A    between atoms: N1_6  and  C6_7 
REMARK    3  A    between atoms: C14_18  and  N4_19 
REMARK    4  A    between atoms: N4_19  and  C15_20 
REMARK    5  A    between atoms: C15_20  and  N5_21 
REMARK    6  A    between atoms: C15_20  and  C16_22 
REMARK    7  A    between atoms: C16_22  and  C17_23 
REMARK    8  A    between atoms: C17_23  and  N6_24 
ROOT
HETATM    1  C1  UNL     1      27.529   5.026  48.641  1.00  0.00     0.026 C 
HETATM    2  C2  UNL     1      26.522   4.602  49.382  1.00  0.00    -0.016 A 
HETATM    3  C3  UNL     1      26.330   3.327  50.058  1.00  0.00     0.030 A 
HETATM    4  C4  UNL     1      25.158   3.310  50.705  1.00  0.00     0.042 A 
HETATM    5  C5  UNL     1      24.567   2.303  51.479  1.00  0.00     0.142 A 
HETATM    6  N2  UNL     1      23.376   2.615  51.988  1.00  0.00    -0.224 NA
HETATM    7  C12 UNL     1      22.776   3.792  51.790  1.00  0.00     0.236 A 
HETATM    8  N3  UNL     1      23.344   4.757  51.047  1.00  0.00    -0.239 NA
HETATM    9  C13 UNL     1      24.551   4.514  50.498  1.00  0.00     0.099 A 
HETATM   10  C14 UNL     1      25.292   5.301  49.740  1.00  0.00     0.069 A 
ENDROOT
BRANCH  10  11
HETATM   11  N4  UNL     1      24.934   6.640  49.336  1.00  0.00    -0.367 N 
HETATM   12  H10 UNL     1      24.450   6.807  48.406  1.00  0.00     0.161 HD
BRANCH  11  13
HETATM   13  C15 UNL     1      25.302   7.625  50.302  1.00  0.00     0.176 C 
BRANCH  13  14
HETATM   14  N5  UNL     1      24.221   7.916  51.219  1.00  0.00    -0.411 N 
HETATM   15  H12 UNL     1      23.751   7.097  51.617  1.00  0.00     0.151 HD
HETATM   16  H13 UNL     1      23.631   8.686  50.878  1.00  0.00     0.151 HD
ENDBRANCH  13  14
BRANCH  13  17
HETATM   17  C16 UNL     1      25.946   8.849  49.746  1.00  0.00     0.066 C 
BRANCH  17  18
HETATM   18  C17 UNL     1      27.248   9.240  50.341  1.00  0.00     0.129 C 
BRANCH  18  19
HETATM   19  N6  UNL     1      28.339   9.424  49.448  1.00  0.00    -0.348 N 
HETATM   20  C18 UNL     1      29.337   8.513  48.897  1.00  0.00     0.152 C 
HETATM   21  C19 UNL     1      30.670   9.197  49.236  1.00  0.00     0.188 C 
HETATM   22  O1  UNL     1      30.883  10.277  48.394  1.00  0.00    -0.380 OA
HETATM   23  C20 UNL     1      29.739  10.897  47.958  1.00  0.00     0.270 C 
HETATM   24  C21 UNL     1      28.597  10.744  48.922  1.00  0.00     0.243 C 
HETATM   25  O2  UNL     1      27.907  11.769  49.239  1.00  0.00    -0.271 OA
ENDBRANCH  18  19
ENDBRANCH  17  18
ENDBRANCH  13  17
ENDBRANCH  11  13
ENDBRANCH  10  11
BRANCH   5  26
HETATM   26  N1  UNL     1      25.259   1.079  51.650  1.00  0.00    -0.340 N 
HETATM   27  H4  UNL     1      25.132   0.342  50.910  1.00  0.00     0.167 HD
BRANCH  26  28
HETATM   28  C6  UNL     1      26.118   0.714  52.710  1.00  0.00     0.035 A 
HETATM   29  C7  UNL     1      26.098   1.217  53.991  1.00  0.00     0.029 A 
HETATM   30  C8  UNL     1      26.935   0.857  55.014  1.00  0.00     0.004 A 
HETATM   31  C9  UNL     1      27.888  -0.085  54.764  1.00  0.00     0.019 A 
HETATM   32  C10 UNL     1      27.976  -0.639  53.507  1.00  0.00     0.013 A 
HETATM   33 BR1  UNL     1      29.296  -1.953  53.143  1.00  0.00    -0.051 Br
HETATM   34  C11 UNL     1      27.104  -0.233  52.527  1.00  0.00     0.048 A 
ENDBRANCH  26  28
ENDBRANCH   5  26
TORSDOF 8
ENDMDL
MODEL 4
REMARK VINA RESULT:      -8.0      7.426     10.084
REMARK  8 active torsions:
REMARK  status: ('A' for Active; 'I' for Inactive)
REMARK    1  A    between atoms: C5_5  and  N1_6 
REMARK    2  A    between atoms: N1_6  and  C6_7 
REMARK    3  A    between atoms: C14_18  and  N4_19 
REMARK    4  A    between atoms: N4_19  and  C15_20 
REMARK    5  A    between atoms: C15_20  and  N5_21 
REMARK    6  A    between atoms: C15_20  and  C16_22 
REMARK    7  A    between atoms: C16_22  and  C17_23 
REMARK    8  A    between atoms: C17_23  and  N6_24 
ROOT
HETATM    1  C1  UNL     1      29.093   5.957  47.802  1.00  0.00     0.026 C 
HETATM    2  C2  UNL     1      27.948   5.920  48.457  1.00  0.00    -0.016 A 
HETATM    3  C3  UNL     1      27.188   4.781  48.950  1.00  0.00     0.030 A 
HETATM    4  C4  UNL     1      26.071   5.190  49.565  1.00  0.00     0.042 A 
HETATM    5  C5  UNL     1      25.056   4.449  50.184  1.00  0.00     0.142 A 
HETATM    6  N2  UNL     1      24.071   5.178  50.706  1.00  0.00    -0.224 NA
HETATM    7  C12 UNL     1      24.036   6.513  50.657  1.00  0.00     0.236 A 
HETATM    8  N3  UNL     1      25.011   7.222  50.063  1.00  0.00    -0.239 NA
HETATM    9  C13 UNL     1      26.042   6.553  49.511  1.00  0.00     0.099 A 
HETATM   10  C14 UNL     1      27.101   7.030  48.882  1.00  0.00     0.069 A 
ENDROOT
BRANCH  10  11
HETATM   11  N4  UNL     1      27.369   8.431  48.655  1.00  0.00    -0.367 N 
HETATM   12  H10 UNL     1      26.930   8.933  47.830  1.00  0.00     0.161 HD
BRANCH  11  13
HETATM   13  C15 UNL     1      28.246   8.990  49.635  1.00  0.00     0.176 C 
BRANCH  13  14
HETATM   14  N5  UNL     1      27.546   9.340  50.851  1.00  0.00    -0.411 N 
HETATM   15  H12 UNL     1      27.414   8.574  51.519  1.00  0.00     0.151 HD
HETATM   16  H13 UNL     1      26.741   9.954  50.664  1.00  0.00     0.151 HD
ENDBRANCH  13  14
BRANCH  13  17
HETATM   17  C16 UNL     1      29.140  10.074  49.139  1.00  0.00     0.066 C 
BRANCH  17  18
HETATM   18  C17 UNL     1      30.576   9.963  49.499  1.00  0.00     0.129 C 
BRANCH  18  19
HETATM   19  N6  UNL     1      31.442   9.376  48.537  1.00  0.00    -0.348 N 
HETATM   20  C18 UNL     1      31.948   9.831  47.246  1.00  0.00     0.152 C 
HETATM   21  C19 UNL     1      31.586   8.681  46.295  1.00  0.00     0.188 C 
HETATM   22  O1  UNL     1      32.442   7.610  46.490  1.00  0.00    -0.380 OA
HETATM   23  C20 UNL     1      32.921   7.485  47.771  1.00  0.00     0.270 C 
HETATM   24  C21 UNL     1      31.984   8.063  48.794  1.00  0.00     0.243 C 
HETATM   25  O2  UNL     1      31.706   7.384  49.837  1.00  0.00    -0.271 OA
ENDBRANCH  18  19
ENDBRANCH  17  18
ENDBRANCH  13  17
ENDBRANCH  11  13
ENDBRANCH  10  11
BRANCH   5  26
HETATM   26  N1  UNL     1      25.156   3.036  50.201  1.00  0.00    -0.340 N 
HETATM   27  H4  UNL     1      25.059   2.532  49.283  1.00  0.00     0.167 HD
BRANCH  26  28
HETATM   28  C6  UNL     1      25.376   2.201  51.318  1.00  0.00     0.035 A 
HETATM   29  C7  UNL     1      24.422   1.486  52.007  1.00  0.00     0.029 A 
HETATM   30  C8  UNL     1      24.644   0.677  53.090  1.00  0.00     0.004 A 
HETATM   31  C9  UNL     1      25.921   0.551  53.548  1.00  0.00     0.019 A 
HETATM   32  C10 UNL     1      26.935   1.233  52.914  1.00  0.00     0.013 A 
HETATM   33 BR1  UNL     1      28.720   1.068  53.539  1.00  0.00    -0.051 Br
HETATM   34  C11 UNL     1      26.643   2.027  51.833  1.00  0.00     0.048 A 
ENDBRANCH  26  28
ENDBRANCH   5  26
TORSDOF 8
ENDMDL
MODEL 5
REMARK VINA RESULT:      -7.8      7.505     10.211
REMARK  8 active torsions:
REMARK  status: ('A' for Active; 'I' for Inactive)
REMARK    1  A    between atoms: C5_5  and  N1_6 
REMARK    2  A    between atoms: N1_6  and  C6_7 
REMARK    3  A    between atoms: C14_18  and  N4_19 
REMARK    4  A    between atoms: N4_19  and  C15_20 
REMARK    5  A    between atoms: C15_20  and  N5_21 
REMARK    6  A    between atoms: C15_20  and  C16_22 
REMARK    7  A    between atoms: C16_22  and  C17_23 
REMARK    8  A    between atoms: C17_23  and  N6_24 
ROOT
HETATM    1  C1  UNL     1      29.929   5.630  47.853  1.00  0.00     0.026 C 
HETATM    2  C2  UNL     1      28.687   5.834  48.251  1.00  0.00    -0.016 A 
HETATM    3  C3  UNL     1      27.655   4.877  48.623  1.00  0.00     0.030 A 
HETATM    4  C4  UNL     1      26.527   5.511  48.966  1.00  0.00     0.042 A 
HETATM    5  C5  UNL     1      25.293   4.997  49.389  1.00  0.00     0.142 A 
HETATM    6  N2  UNL     1      24.368   5.917  49.655  1.00  0.00    -0.224 NA
HETATM    7  C12 UNL     1      24.578   7.231  49.538  1.00  0.00     0.236 A 
HETATM    8  N3  UNL     1      25.762   7.721  49.133  1.00  0.00    -0.239 NA
HETATM    9  C13 UNL     1      26.750   6.851  48.844  1.00  0.00     0.099 A 
HETATM   10  C14 UNL     1      27.981   7.097  48.433  1.00  0.00     0.069 A 
ENDROOT
BRANCH  10  11
HETATM   11  N4  UNL     1      28.530   8.412  48.204  1.00  0.00    -0.367 N 
HETATM   12  H10 UNL     1      28.395   8.894  47.268  1.00  0.00     0.161 HD
BRANCH  11  13
HETATM   13  C15 UNL     1      29.228   8.924  49.341  1.00  0.00     0.176 C 
BRANCH  13  14
HETATM   14  N5  UNL     1      28.327   9.493  50.319  1.00  0.00    -0.411 N 
HETATM   15  H12 UNL     1      28.641   9.433  51.292  1.00  0.00     0.151 HD
HETATM   16  H13 UNL     1      27.347   9.254  50.118  1.00  0.00     0.151 HD
ENDBRANCH  13  14
BRANCH  13  17
HETATM   17  C16 UNL     1      30.388   9.806  49.027  1.00  0.00     0.066 C 
BRANCH  17  18
HETATM   18  C17 UNL     1      31.113   9.522  47.764  1.00  0.00     0.129 C 
BRANCH  18  19
HETATM   19  N6  UNL     1      32.078   8.479  47.790  1.00  0.00    -0.348 N 
HETATM   20  C18 UNL     1      32.784   7.805  48.875  1.00  0.00     0.152 C 
HETATM   21  C19 UNL     1      34.261   7.939  48.478  1.00  0.00     0.188 C 
HETATM   22  O1  UNL     1      34.563   7.057  47.452  1.00  0.00    -0.380 OA
HETATM   23  C20 UNL     1      33.516   6.780  46.609  1.00  0.00     0.270 C 
HETATM   24  C21 UNL     1      32.518   7.901  46.542  1.00  0.00     0.243 C 
HETATM   25  O2  UNL     1      32.101   8.296  45.403  1.00  0.00    -0.271 OA
ENDBRANCH  18  19
ENDBRANCH  17  18
ENDBRANCH  13  17
ENDBRANCH  11  13
ENDBRANCH  10  11
BRANCH   5  26
HETATM   26  N1  UNL     1      25.139   3.593  49.492  1.00  0.00    -0.340 N 
HETATM   27  H4  UNL     1      24.819   3.076  48.634  1.00  0.00     0.167 HD
BRANCH  26  28
HETATM   28  C6  UNL     1      25.365   2.782  50.626  1.00  0.00     0.035 A 
HETATM   29  C7  UNL     1      26.578   2.535  51.228  1.00  0.00     0.029 A 
HETATM   30  C8  UNL     1      26.788   1.747  52.328  1.00  0.00     0.004 A 
HETATM   31  C9  UNL     1      25.711   1.138  52.899  1.00  0.00     0.019 A 
HETATM   32  C10 UNL     1      24.460   1.333  52.358  1.00  0.00     0.013 A 
HETATM   33 BR1  UNL     1      22.949   0.493  53.141  1.00  0.00    -0.051 Br
HETATM   34  C11 UNL     1      24.320   2.137  51.254  1.00  0.00     0.048 A 
ENDBRANCH  26  28
ENDBRANCH   5  26
TORSDOF 8
ENDMDL
MODEL 6
REMARK VINA RESULT:      -7.8      7.510     10.538
REMARK  8 active torsions:
REMARK  status: ('A' for Active; 'I' for Inactive)
REMARK    1  A    between atoms: C5_5  and  N1_6 
REMARK    2  A    between atoms: N1_6  and  C6_7 
REMARK    3  A    between atoms: C14_18  and  N4_19 
REMARK    4  A    between atoms: N4_19  and  C15_20 
REMARK    5  A    between atoms: C15_20  and  N5_21 
REMARK    6  A    between atoms: C15_20  and  C16_22 
REMARK    7  A    between atoms: C16_22  and  C17_23 
REMARK    8  A    between atoms: C17_23  and  N6_24 
ROOT
HETATM    1  C1  UNL     1      28.273   5.191  48.219  1.00  0.00     0.026 C 
HETATM    2  C2  UNL     1      27.212   4.975  48.974  1.00  0.00    -0.016 A 
HETATM    3  C3  UNL     1      26.784   3.764  49.661  1.00  0.00     0.030 A 
HETATM    4  C4  UNL     1      25.639   3.978  50.322  1.00  0.00     0.042 A 
HETATM    5  C5  UNL     1      24.874   3.109  51.110  1.00  0.00     0.142 A 
HETATM    6  N2  UNL     1      23.774   3.650  51.631  1.00  0.00    -0.224 NA
HETATM    7  C12 UNL     1      23.411   4.920  51.432  1.00  0.00     0.236 A 
HETATM    8  N3  UNL     1      24.147   5.752  50.676  1.00  0.00    -0.239 NA
HETATM    9  C13 UNL     1      25.276   5.277  50.114  1.00  0.00     0.099 A 
HETATM   10  C14 UNL     1      26.147   5.902  49.342  1.00  0.00     0.069 A 
ENDROOT
BRANCH  10  11
HETATM   11  N4  UNL     1      26.051   7.283  48.934  1.00  0.00    -0.367 N 
HETATM   12  H10 UNL     1      25.488   7.549  48.074  1.00  0.00     0.161 HD
BRANCH  11  13
HETATM   13  C15 UNL     1      26.772   8.164  49.796  1.00  0.00     0.176 C 
BRANCH  13  14
HETATM   14  N5  UNL     1      25.896   9.089  50.482  1.00  0.00    -0.411 N 
HETATM   15  H12 UNL     1      25.162   8.658  51.052  1.00  0.00     0.151 HD
HETATM   16  H13 UNL     1      25.630   9.879  49.879  1.00  0.00     0.151 HD
ENDBRANCH  13  14
BRANCH  13  17
HETATM   17  C16 UNL     1      27.957   8.825  49.178  1.00  0.00     0.066 C 
BRANCH  17  18
HETATM   18  C17 UNL     1      27.720   9.548  47.904  1.00  0.00     0.129 C 
BRANCH  18  19
HETATM   19  N6  UNL     1      27.781  10.968  47.944  1.00  0.00    -0.348 N 
HETATM   20  C18 UNL     1      28.885  11.918  47.864  1.00  0.00     0.152 C 
HETATM   21  C19 UNL     1      28.696  12.791  49.113  1.00  0.00     0.188 C 
HETATM   22  O1  UNL     1      27.645  13.674  48.927  1.00  0.00    -0.380 OA
HETATM   23  C20 UNL     1      26.652  13.216  48.098  1.00  0.00     0.270 C 
HETATM   24  C21 UNL     1      26.555  11.716  48.091  1.00  0.00     0.243 C 
HETATM   25  O2  UNL     1      25.410  11.166  48.213  1.00  0.00    -0.271 OA
ENDBRANCH  18  19
ENDBRANCH  17  18
ENDBRANCH  13  17
ENDBRANCH  11  13
ENDBRANCH  10  11
BRANCH   5  26
HETATM   26  N1  UNL     1      25.316   1.774  51.280  1.00  0.00    -0.340 N 
HETATM   27  H4  UNL     1      24.817   1.024  50.737  1.00  0.00     0.167 HD
BRANCH  26  28
HETATM   28  C6  UNL     1      26.367   1.312  52.103  1.00  0.00     0.035 A 
HETATM   29  C7  UNL     1      27.160   2.079  52.927  1.00  0.00     0.029 A 
HETATM   30  C8  UNL     1      28.178   1.623  53.722  1.00  0.00     0.004 A 
HETATM   31  C9  UNL     1      28.451   0.287  53.715  1.00  0.00     0.019 A 
HETATM   32  C10 UNL     1      27.703  -0.550  52.917  1.00  0.00     0.013 A 
HETATM   33 BR1  UNL     1      28.071  -2.412  52.896  1.00  0.00    -0.051 Br
HETATM   34  C11 UNL     1      26.697  -0.026  52.144  1.00  0.00     0.048 A 
ENDBRANCH  26  28
ENDBRANCH   5  26
TORSDOF 8
ENDMDL
MODEL 7
REMARK VINA RESULT:      -7.6      7.271      9.622
REMARK  8 active torsions:
REMARK  status: ('A' for Active; 'I' for Inactive)
REMARK    1  A    between atoms: C5_5  and  N1_6 
REMARK    2  A    between atoms: N1_6  and  C6_7 
REMARK    3  A    between atoms: C14_18  and  N4_19 
REMARK    4  A    between atoms: N4_19  and  C15_20 
REMARK    5  A    between atoms: C15_20  and  N5_21 
REMARK    6  A    between atoms: C15_20  and  C16_22 
REMARK    7  A    between atoms: C16_22  and  C17_23 
REMARK    8  A    between atoms: C17_23  and  N6_24 
ROOT
HETATM    1  C1  UNL     1      28.284   5.149  48.339  1.00  0.00     0.026 C 
HETATM    2  C2  UNL     1      27.160   5.197  49.029  1.00  0.00    -0.016 A 
HETATM    3  C3  UNL     1      26.264   4.123  49.434  1.00  0.00     0.030 A 
HETATM    4  C4  UNL     1      25.227   4.610  50.127  1.00  0.00     0.042 A 
HETATM    5  C5  UNL     1      24.135   3.950  50.706  1.00  0.00     0.142 A 
HETATM    6  N2  UNL     1      23.271   4.745  51.334  1.00  0.00    -0.224 NA
HETATM    7  C12 UNL     1      23.416   6.071  51.419  1.00  0.00     0.236 A 
HETATM    8  N3  UNL     1      24.464   6.702  50.863  1.00  0.00    -0.239 NA
HETATM    9  C13 UNL     1      25.382   5.963  50.210  1.00  0.00     0.099 A 
HETATM   10  C14 UNL     1      26.481   6.359  49.593  1.00  0.00     0.069 A 
ENDROOT
BRANCH  10  11
HETATM   11  N4  UNL     1      26.931   7.727  49.498  1.00  0.00    -0.367 N 
HETATM   12  H10 UNL     1      27.797   8.044  50.023  1.00  0.00     0.161 HD
BRANCH  11  13
HETATM   13  C15 UNL     1      26.097   8.524  48.655  1.00  0.00     0.176 C 
BRANCH  13  14
HETATM   14  N5  UNL     1      26.298   8.225  47.254  1.00  0.00    -0.411 N 
HETATM   15  H12 UNL     1      26.411   7.233  47.029  1.00  0.00     0.151 HD
HETATM   16  H13 UNL     1      26.946   8.892  46.812  1.00  0.00     0.151 HD
ENDBRANCH  13  14
BRANCH  13  17
HETATM   17  C16 UNL     1      26.109   9.985  48.952  1.00  0.00     0.066 C 
BRANCH  17  18
HETATM   18  C17 UNL     1      26.841  10.849  47.993  1.00  0.00     0.129 C 
BRANCH  18  19
HETATM   19  N6  UNL     1      28.243  10.984  48.182  1.00  0.00    -0.348 N 
HETATM   20  C18 UNL     1      29.377  10.127  47.854  1.00  0.00     0.152 C 
HETATM   21  C19 UNL     1      30.121   9.992  49.191  1.00  0.00     0.188 C 
HETATM   22  O1  UNL     1      30.814  11.158  49.475  1.00  0.00    -0.380 OA
HETATM   23  C20 UNL     1      30.240  12.301  48.976  1.00  0.00     0.270 C 
HETATM   24  C21 UNL     1      28.750  12.176  48.820  1.00  0.00     0.243 C 
HETATM   25  O2  UNL     1      27.999  13.113  49.249  1.00  0.00    -0.271 OA
ENDBRANCH  18  19
ENDBRANCH  17  18
ENDBRANCH  13  17
ENDBRANCH  11  13
ENDBRANCH  10  11
BRANCH   5  26
HETATM   26  N1  UNL     1      24.044   2.543  50.578  1.00  0.00    -0.340 N 
HETATM   27  H4  UNL     1      23.790   2.156  49.633  1.00  0.00     0.167 HD
BRANCH  26  28
HETATM   28  C6  UNL     1      24.255   1.570  51.580  1.00  0.00     0.035 A 
HETATM   29  C7  UNL     1      25.462   1.014  51.940  1.00  0.00     0.029 A 
HETATM   30  C8  UNL     1      25.658   0.071  52.914  1.00  0.00     0.004 A 
HETATM   31  C9  UNL     1      24.572  -0.375  53.607  1.00  0.00     0.019 A 
HETATM   32  C10 UNL     1      23.327   0.132  53.308  1.00  0.00     0.013 A 
HETATM   33 BR1  UNL     1      21.805  -0.478  54.264  1.00  0.00    -0.051 Br
HETATM   34  C11 UNL     1      23.201   1.076  52.320  1.00  0.00     0.048 A 
ENDBRANCH  26  28
ENDBRANCH   5  26
TORSDOF 8
ENDMDL
MODEL 8
REMARK VINA RESULT:      -7.5      6.574     11.414
REMARK  8 active torsions:
REMARK  status: ('A' for Active; 'I' for Inactive)
REMARK    1  A    between atoms: C5_5  and  N1_6 
REMARK    2  A    between atoms: N1_6  and  C6_7 
REMARK    3  A    between atoms: C14_18  and  N4_19 
REMARK    4  A    between atoms: N4_19  and  C15_20 
REMARK    5  A    between atoms: C15_20  and  N5_21 
REMARK    6  A    between atoms: C15_20  and  C16_22 
REMARK    7  A    between atoms: C16_22  and  C17_23 
REMARK    8  A    between atoms: C17_23  and  N6_24 
ROOT
HETATM    1  C1  UNL     1      26.289   2.729  49.954  1.00  0.00     0.026 C 
HETATM    2  C2  UNL     1      26.404   4.015  49.678  1.00  0.00    -0.016 A 
HETATM    3  C3  UNL     1      27.377   4.711  48.849  1.00  0.00     0.030 A 
HETATM    4  C4  UNL     1      27.132   6.027  48.840  1.00  0.00     0.042 A 
HETATM    5  C5  UNL     1      27.804   7.068  48.184  1.00  0.00     0.142 A 
HETATM    6  N2  UNL     1      27.291   8.280  48.390  1.00  0.00    -0.224 NA
HETATM    7  C12 UNL     1      26.221   8.508  49.156  1.00  0.00     0.236 A 
HETATM    8  N3  UNL     1      25.578   7.508  49.784  1.00  0.00    -0.239 NA
HETATM    9  C13 UNL     1      26.038   6.252  49.624  1.00  0.00     0.099 A 
HETATM   10  C14 UNL     1      25.575   5.126  50.135  1.00  0.00     0.069 A 
ENDROOT
BRANCH  10  11
HETATM   11  N4  UNL     1      24.429   5.021  51.007  1.00  0.00    -0.367 N 
HETATM   12  H10 UNL     1      24.560   4.976  52.059  1.00  0.00     0.161 HD
BRANCH  11  13
HETATM   13  C15 UNL     1      23.193   4.990  50.291  1.00  0.00     0.176 C 
BRANCH  13  14
HETATM   14  N5  UNL     1      22.444   6.217  50.451  1.00  0.00    -0.411 N 
HETATM   15  H12 UNL     1      21.496   6.108  50.824  1.00  0.00     0.151 HD
HETATM   16  H13 UNL     1      22.571   6.848  49.648  1.00  0.00     0.151 HD
ENDBRANCH  13  14
BRANCH  13  17
HETATM   17  C16 UNL     1      22.369   3.767  50.504  1.00  0.00     0.066 C 
BRANCH  17  18
HETATM   18  C17 UNL     1      22.223   3.303  51.906  1.00  0.00     0.129 C 
BRANCH  18  19
HETATM   19  N6  UNL     1      22.745   2.019  52.222  1.00  0.00    -0.348 N 
HETATM   20  C18 UNL     1      22.241   0.665  52.022  1.00  0.00     0.152 C 
HETATM   21  C19 UNL     1      22.314   0.045  53.425  1.00  0.00     0.188 C 
HETATM   22  O1  UNL     1      23.626  -0.264  53.745  1.00  0.00    -0.380 OA
HETATM   23  C20 UNL     1      24.565   0.554  53.168  1.00  0.00     0.270 C 
HETATM   24  C21 UNL     1      24.029   1.928  52.876  1.00  0.00     0.243 C 
HETATM   25  O2  UNL     1      24.717   2.949  53.211  1.00  0.00    -0.271 OA
ENDBRANCH  18  19
ENDBRANCH  17  18
ENDBRANCH  13  17
ENDBRANCH  11  13
ENDBRANCH  10  11
BRANCH   5  26
HETATM   26  N1  UNL     1      28.932   6.756  47.387  1.00  0.00    -0.340 N 
HETATM   27  H4  UNL     1      28.792   6.706  46.346  1.00  0.00     0.167 HD
BRANCH  26  28
HETATM   28  C6  UNL     1      30.251   6.498  47.823  1.00  0.00     0.035 A 
HETATM   29  C7  UNL     1      31.061   7.354  48.534  1.00  0.00     0.029 A 
HETATM   30  C8  UNL     1      32.339   7.096  48.952  1.00  0.00     0.004 A 
HETATM   31  C9  UNL     1      32.884   5.883  48.649  1.00  0.00     0.019 A 
HETATM   32  C10 UNL     1      32.138   4.968  47.939  1.00  0.00     0.013 A 
HETATM   33 BR1  UNL     1      32.881   3.275  47.509  1.00  0.00    -0.051 Br
HETATM   34  C11 UNL     1      30.862   5.292  47.551  1.00  0.00     0.048 A 
ENDBRANCH  26  28
ENDBRANCH   5  26
TORSDOF 8
ENDMDL
MODEL 9
REMARK VINA RESULT:      -7.5      8.246     10.933
REMARK  8 active torsions:
REMARK  status: ('A' for Active; 'I' for Inactive)
REMARK    1  A    between atoms: C5_5  and  N1_6 
REMARK    2  A    between atoms: N1_6  and  C6_7 
REMARK    3  A    between atoms: C14_18  and  N4_19 
REMARK    4  A    between atoms: N4_19  and  C15_20 
REMARK    5  A    between atoms: C15_20  and  N5_21 
REMARK    6  A    between atoms: C15_20  and  C16_22 
REMARK    7  A    between atoms: C16_22  and  C17_23 
REMARK    8  A    between atoms: C17_23  and  N6_24 
ROOT
HETATM    1  C1  UNL     1      29.943   5.571  47.855  1.00  0.00     0.026 C 
HETATM    2  C2  UNL     1      28.700   5.732  48.269  1.00  0.00    -0.016 A 
HETATM    3  C3  UNL     1      27.702   4.740  48.643  1.00  0.00     0.030 A 
HETATM    4  C4  UNL     1      26.559   5.336  49.006  1.00  0.00     0.042 A 
HETATM    5  C5  UNL     1      25.347   4.781  49.437  1.00  0.00     0.142 A 
HETATM    6  N2  UNL     1      24.396   5.669  49.723  1.00  0.00    -0.224 NA
HETATM    7  C12 UNL     1      24.565   6.991  49.616  1.00  0.00     0.236 A 
HETATM    8  N3  UNL     1      25.729   7.520  49.202  1.00  0.00    -0.239 NA
HETATM    9  C13 UNL     1      26.739   6.684  48.894  1.00  0.00     0.099 A 
HETATM   10  C14 UNL     1      27.957   6.972  48.472  1.00  0.00     0.069 A 
ENDROOT
BRANCH  10  11
HETATM   11  N4  UNL     1      28.463   8.305  48.250  1.00  0.00    -0.367 N 
HETATM   12  H10 UNL     1      28.282   8.800  47.328  1.00  0.00     0.161 HD
BRANCH  11  13
HETATM   13  C15 UNL     1      29.188   8.814  49.371  1.00  0.00     0.176 C 
BRANCH  13  14
HETATM   14  N5  UNL     1      28.336   9.558  50.273  1.00  0.00    -0.411 N 
HETATM   15  H12 UNL     1      28.795  10.321  50.780  1.00  0.00     0.151 HD
HETATM   16  H13 UNL     1      27.712   8.938  50.806  1.00  0.00     0.151 HD
ENDBRANCH  13  14
BRANCH  13  17
HETATM   17  C16 UNL     1      30.454   9.526  49.036  1.00  0.00     0.066 C 
BRANCH  17  18
HETATM   18  C17 UNL     1      30.387  11.007  48.988  1.00  0.00     0.129 C 
BRANCH  18  19
HETATM   19  N6  UNL     1      29.711  11.590  47.882  1.00  0.00    -0.348 N 
HETATM   20  C18 UNL     1      29.975  11.596  46.447  1.00  0.00     0.152 C 
HETATM   21  C19 UNL     1      29.962  13.089  46.088  1.00  0.00     0.188 C 
HETATM   22  O1  UNL     1      28.661  13.565  46.063  1.00  0.00    -0.380 OA
HETATM   23  C20 UNL     1      27.802  12.928  46.925  1.00  0.00     0.270 C 
HETATM   24  C21 UNL     1      28.508  12.352  48.120  1.00  0.00     0.243 C 
HETATM   25  O2  UNL     1      28.027  12.554  49.284  1.00  0.00    -0.271 OA
ENDBRANCH  18  19
ENDBRANCH  17  18
ENDBRANCH  13  17
ENDBRANCH  11  13
ENDBRANCH  10  11
BRANCH   5  26
HETATM   26  N1  UNL     1      25.236   3.372  49.528  1.00  0.00    -0.340 N 
HETATM   27  H4  UNL     1      25.329   2.819  48.638  1.00  0.00     0.167 HD
BRANCH  26  28
HETATM   28  C6  UNL     1      25.013   2.598  50.689  1.00  0.00     0.035 A 
HETATM   29  C7  UNL     1      25.976   2.043  51.501  1.00  0.00     0.029 A 
HETATM   30  C8  UNL     1      25.752   1.293  52.625  1.00  0.00     0.004 A 
HETATM   31  C9  UNL     1      24.461   1.060  52.996  1.00  0.00     0.019 A 
HETATM   32  C10 UNL     1      23.437   1.581  52.237  1.00  0.00     0.013 A 
HETATM   33 BR1  UNL     1      21.634   1.268  52.740  1.00  0.00    -0.051 Br
HETATM   34  C11 UNL     1      23.733   2.325  51.122  1.00  0.00     0.048 A 
ENDBRANCH  26  28
ENDBRANCH   5  26
TORSDOF 8
ENDMDL
