MODEL 1
REMARK VINA RESULT:      -8.9      0.000      0.000
REMARK  6 active torsions:
REMARK  status: ('A' for Active; 'I' for Inactive)
REMARK    1  A    between atoms: C2_2  and  C3_3 
REMARK    2  A    between atoms: C3_3  and  C4_4 
REMARK    3  A    between atoms: C7_7  and  C10_10 
REMARK    4  A    between atoms: C10_10  and  C11_11 
REMARK    5  A    between atoms: C11_11  and  N1_12 
REMARK    6  A    between atoms: C21_26  and  N5_27 
ROOT
HETATM    1  C4  UNL     1      25.162   3.732  50.043  1.00  0.00     0.000 C 
HETATM    2  C5  UNL     1      26.438   2.928  50.334  1.00  0.00     0.057 C 
HETATM    3  C6  UNL     1      26.477   2.492  51.788  1.00  0.00     0.017 A 
HETATM    4  C7  UNL     1      25.230   1.846  51.639  1.00  0.00     0.043 A 
HETATM    5  C8  UNL     1      24.035   1.186  51.872  1.00  0.00     0.011 A 
HETATM    6  C9  UNL     1      23.294   0.676  52.976  1.00  0.00    -0.009 A 
HETATM    7  C10 UNL     1      24.502   1.287  53.141  1.00  0.00     0.041 A 
HETATM    8  C11 UNL     1      25.678   1.941  52.830  1.00  0.00     0.174 A 
HETATM    9  C12 UNL     1      22.182   0.574  51.998  1.00  0.00     0.070 C 
HETATM   10  C13 UNL     1      20.919   0.283  52.756  1.00  0.00     0.002 C 
HETATM   11  C14 UNL     1      19.608   0.281  52.841  1.00  0.00     0.112 C 
HETATM   12  N2  UNL     1      18.544   0.676  51.979  1.00  0.00    -0.273 NA
HETATM   13  C15 UNL     1      18.607   1.010  50.699  1.00  0.00     0.117 C 
HETATM   14  C16 UNL     1      19.718   1.108  49.696  1.00  0.00     0.041 C 
HETATM   15  C17 UNL     1      20.932   1.464  50.154  1.00  0.00     0.068 C 
HETATM   16  C18 UNL     1      21.700   1.441  48.911  1.00  0.00     0.099 C 
HETATM   17  N3  UNL     1      22.329   1.428  47.906  1.00  0.00    -0.192 NA
HETATM   18  C19 UNL     1      21.897   1.877  51.210  1.00  0.00     0.170 C 
HETATM   19  C20 UNL     1      20.934   2.698  52.130  1.00  0.00     0.444 C 
HETATM   20  O1  UNL     1      20.146   3.206  52.860  1.00  0.00    -0.427 OA
HETATM   21  N4  UNL     1      22.732   2.789  50.693  1.00  0.00    -0.410 NA
HETATM   22  C21 UNL     1      23.682   3.493  50.271  1.00  0.00     0.176 C 
ENDROOT
BRANCH  22  23
HETATM   23  N5  UNL     1      22.835   4.559  49.754  1.00  0.00    -0.369 N 
HETATM   24  C22 UNL     1      22.188   5.625  50.510  1.00  0.00     0.148 C 
HETATM   25  H18 UNL     1      22.617   4.622  48.692  1.00  0.00     0.161 HD
ENDBRANCH  22  23
BRANCH   1  26
HETATM   26  C3  UNL     1      25.568   4.833  49.490  1.00  0.00     0.011 C 
BRANCH  26  27
HETATM   27  C2  UNL     1      26.142   5.981  48.917  1.00  0.00    -0.010 C 
HETATM   28  C1  UNL     1      27.155   6.691  48.356  1.00  0.00     0.011 C 
ENDBRANCH  26  27
ENDBRANCH   1  26
BRANCH   8  29
HETATM   29  N1  UNL     1      26.588   2.300  53.867  1.00  0.00     0.089 N 
HETATM   30  H10 UNL     1      26.481   1.694  54.714  1.00  0.00     0.313 HD
HETATM   31  H11 UNL     1      26.474   1.693  54.703  1.00  0.00     0.313 HD
ENDBRANCH   8  29
TORSDOF 6
ENDMDL
MODEL 2
REMARK VINA RESULT:      -8.2      2.268      4.595
REMARK  6 active torsions:
REMARK  status: ('A' for Active; 'I' for Inactive)
REMARK    1  A    between atoms: C2_2  and  C3_3 
REMARK    2  A    between atoms: C3_3  and  C4_4 
REMARK    3  A    between atoms: C7_7  and  C10_10 
REMARK    4  A    between atoms: C10_10  and  C11_11 
REMARK    5  A    between atoms: C11_11  and  N1_12 
REMARK    6  A    between atoms: C21_26  and  N5_27 
ROOT
HETATM    1  C4  UNL     1      23.073   5.468  50.120  1.00  0.00     0.000 C 
HETATM    2  C5  UNL     1      23.654   5.742  48.726  1.00  0.00     0.057 C 
HETATM    3  C6  UNL     1      25.172   5.762  48.772  1.00  0.00     0.017 A 
HETATM    4  C7  UNL     1      25.183   4.461  49.320  1.00  0.00     0.043 A 
HETATM    5  C8  UNL     1      25.564   3.266  49.908  1.00  0.00     0.011 A 
HETATM    6  C9  UNL     1      26.741   2.661  50.434  1.00  0.00    -0.009 A 
HETATM    7  C10 UNL     1      26.754   3.915  49.898  1.00  0.00     0.041 A 
HETATM    8  C11 UNL     1      26.301   5.076  49.304  1.00  0.00     0.174 A 
HETATM    9  C12 UNL     1      25.800   1.666  51.008  1.00  0.00     0.070 C 
HETATM   10  C13 UNL     1      26.559   0.818  51.988  1.00  0.00     0.002 C 
HETATM   11  C14 UNL     1      26.587   0.006  53.020  1.00  0.00     0.112 C 
HETATM   12  N2  UNL     1      25.602  -0.563  53.878  1.00  0.00    -0.273 NA
HETATM   13  C15 UNL     1      24.285  -0.557  53.732  1.00  0.00     0.117 C 
HETATM   14  C16 UNL     1      23.349  -0.001  52.700  1.00  0.00     0.041 C 
HETATM   15  C17 UNL     1      23.720   1.132  52.077  1.00  0.00     0.068 C 
HETATM   16  C18 UNL     1      22.581   1.327  51.184  1.00  0.00     0.099 C 
HETATM   17  N3  UNL     1      21.657   1.494  50.459  1.00  0.00    -0.192 NA
HETATM   18  C19 UNL     1      24.631   2.280  51.818  1.00  0.00     0.170 C 
HETATM   19  C20 UNL     1      25.204   2.483  53.259  1.00  0.00     0.444 C 
HETATM   20  O1  UNL     1      25.705   2.523  54.336  1.00  0.00    -0.427 OA
HETATM   21  N4  UNL     1      23.887   3.373  51.592  1.00  0.00    -0.410 NA
HETATM   22  C21 UNL     1      23.304   4.404  51.176  1.00  0.00     0.176 C 
ENDROOT
BRANCH  22  23
HETATM   23  N5  UNL     1      22.443   4.546  52.342  1.00  0.00    -0.369 N 
HETATM   24  C22 UNL     1      21.061   4.101  52.486  1.00  0.00     0.148 C 
HETATM   25  H18 UNL     1      22.810   5.034  53.241  1.00  0.00     0.161 HD
ENDBRANCH  22  23
BRANCH   1  26
HETATM   26  C3  UNL     1      22.217   6.421  50.330  1.00  0.00     0.011 C 
BRANCH  26  27
HETATM   27  C2  UNL     1      21.332   7.508  50.431  1.00  0.00    -0.010 C 
HETATM   28  C1  UNL     1      20.498   8.455  49.929  1.00  0.00     0.011 C 
ENDBRANCH  26  27
ENDBRANCH   1  26
BRANCH   8  29
HETATM   29  N1  UNL     1      27.208   6.147  49.051  1.00  0.00     0.089 N 
HETATM   30  H10 UNL     1      26.729   6.979  48.635  1.00  0.00     0.313 HD
HETATM   31  H11 UNL     1      26.723   6.969  48.638  1.00  0.00     0.313 HD
ENDBRANCH   8  29
TORSDOF 6
ENDMDL
MODEL 3
REMARK VINA RESULT:      -8.0      2.509      6.059
REMARK  6 active torsions:
REMARK  status: ('A' for Active; 'I' for Inactive)
REMARK    1  A    between atoms: C2_2  and  C3_3 
REMARK    2  A    between atoms: C3_3  and  C4_4 
REMARK    3  A    between atoms: C7_7  and  C10_10 
REMARK    4  A    between atoms: C10_10  and  C11_11 
REMARK    5  A    between atoms: C11_11  and  N1_12 
REMARK    6  A    between atoms: C21_26  and  N5_27 
ROOT
HETATM    1  C4  UNL     1      19.973  -0.235  53.236  1.00  0.00     0.000 C 
HETATM    2  C5  UNL     1      20.813  -0.135  54.517  1.00  0.00     0.057 C 
HETATM    3  C6  UNL     1      22.291  -0.284  54.202  1.00  0.00     0.017 A 
HETATM    4  C7  UNL     1      22.218   0.796  53.296  1.00  0.00     0.043 A 
HETATM    5  C8  UNL     1      22.497   1.734  52.316  1.00  0.00     0.011 A 
HETATM    6  C9  UNL     1      23.559   2.067  51.426  1.00  0.00    -0.009 A 
HETATM    7  C10 UNL     1      23.654   1.026  52.303  1.00  0.00     0.041 A 
HETATM    8  C11 UNL     1      23.306   0.127  53.291  1.00  0.00     0.174 A 
HETATM    9  C12 UNL     1      22.542   2.920  50.761  1.00  0.00     0.070 C 
HETATM   10  C13 UNL     1      23.108   3.385  49.450  1.00  0.00     0.002 C 
HETATM   11  C14 UNL     1      22.946   3.856  48.235  1.00  0.00     0.112 C 
HETATM   12  N2  UNL     1      21.822   4.224  47.441  1.00  0.00    -0.273 NA
HETATM   13  C15 UNL     1      20.560   4.362  47.820  1.00  0.00     0.117 C 
HETATM   14  C16 UNL     1      19.837   4.206  49.124  1.00  0.00     0.041 C 
HETATM   15  C17 UNL     1      20.302   3.279  49.981  1.00  0.00     0.068 C 
HETATM   16  C18 UNL     1      19.358   3.440  51.084  1.00  0.00     0.099 C 
HETATM   17  N3  UNL     1      18.593   3.563  51.982  1.00  0.00    -0.192 NA
HETATM   18  C19 UNL     1      21.224   2.188  50.402  1.00  0.00     0.170 C 
HETATM   19  C20 UNL     1      21.498   1.530  49.009  1.00  0.00     0.444 C 
HETATM   20  O1  UNL     1      21.775   1.140  47.922  1.00  0.00    -0.427 OA
HETATM   21  N4  UNL     1      20.519   1.270  51.078  1.00  0.00    -0.410 NA
HETATM   22  C21 UNL     1      20.011   0.453  51.885  1.00  0.00     0.176 C 
ENDROOT
BRANCH  22  23
HETATM   23  N5  UNL     1      18.933   0.044  50.994  1.00  0.00    -0.369 N 
HETATM   24  C22 UNL     1      17.524   0.412  51.076  1.00  0.00     0.148 C 
HETATM   25  H18 UNL     1      19.135  -0.614  50.153  1.00  0.00     0.161 HD
ENDBRANCH  22  23
BRANCH   1  26
HETATM   26  C3  UNL     1      19.075  -1.139  53.482  1.00  0.00     0.011 C 
BRANCH  26  27
HETATM   27  C2  UNL     1      18.210  -2.200  53.801  1.00  0.00    -0.010 C 
HETATM   28  C1  UNL     1      17.429  -3.271  53.505  1.00  0.00     0.011 C 
ENDBRANCH  26  27
ENDBRANCH   1  26
BRANCH   8  29
HETATM   29  N1  UNL     1      24.224  -0.889  53.685  1.00  0.00     0.089 N 
HETATM   30  H10 UNL     1      24.055  -1.791  53.179  1.00  0.00     0.313 HD
HETATM   31  H11 UNL     1      24.049  -1.780  53.178  1.00  0.00     0.313 HD
ENDBRANCH   8  29
TORSDOF 6
ENDMDL
MODEL 4
REMARK VINA RESULT:      -7.5      2.167      5.893
REMARK  6 active torsions:
REMARK  status: ('A' for Active; 'I' for Inactive)
REMARK    1  A    between atoms: C2_2  and  C3_3 
REMARK    2  A    between atoms: C3_3  and  C4_4 
REMARK    3  A    between atoms: C7_7  and  C10_10 
REMARK    4  A    between atoms: C10_10  and  C11_11 
REMARK    5  A    between atoms: C11_11  and  N1_12 
REMARK    6  A    between atoms: C21_26  and  N5_27 
ROOT
HETATM    1  C4  UNL     1      23.098   0.382  53.405  1.00  0.00     0.000 C 
HETATM    2  C5  UNL     1      24.189  -0.264  54.271  1.00  0.00     0.057 C 
HETATM    3  C6  UNL     1      25.356  -0.719  53.413  1.00  0.00     0.017 A 
HETATM    4  C7  UNL     1      25.510   0.591  52.910  1.00  0.00     0.043 A 
HETATM    5  C8  UNL     1      25.901   1.699  52.176  1.00  0.00     0.011 A 
HETATM    6  C9  UNL     1      26.758   2.009  51.081  1.00  0.00    -0.009 A 
HETATM    7  C10 UNL     1      26.631   0.738  51.560  1.00  0.00     0.041 A 
HETATM    8  C11 UNL     1      26.199  -0.319  52.337  1.00  0.00     0.174 A 
HETATM    9  C12 UNL     1      26.046   3.311  51.078  1.00  0.00     0.070 C 
HETATM   10  C13 UNL     1      26.417   4.043  49.821  1.00  0.00     0.002 C 
HETATM   11  C14 UNL     1      26.173   4.963  48.915  1.00  0.00     0.112 C 
HETATM   12  N2  UNL     1      25.139   5.921  48.709  1.00  0.00    -0.273 NA
HETATM   13  C15 UNL     1      24.173   6.277  49.542  1.00  0.00     0.117 C 
HETATM   14  C16 UNL     1      23.785   5.865  50.932  1.00  0.00     0.041 C 
HETATM   15  C17 UNL     1      24.027   4.590  51.288  1.00  0.00     0.068 C 
HETATM   16  C18 UNL     1      23.525   4.599  52.659  1.00  0.00     0.099 C 
HETATM   17  N3  UNL     1      23.117   4.598  53.773  1.00  0.00    -0.192 NA
HETATM   18  C19 UNL     1      24.501   3.200  51.046  1.00  0.00     0.170 C 
HETATM   19  C20 UNL     1      24.140   3.066  49.529  1.00  0.00     0.444 C 
HETATM   20  O1  UNL     1      23.965   3.050  48.354  1.00  0.00    -0.427 OA
HETATM   21  N4  UNL     1      23.670   2.351  51.668  1.00  0.00    -0.410 NA
HETATM   22  C21 UNL     1      23.085   1.483  52.362  1.00  0.00     0.176 C 
ENDROOT
BRANCH  22  23
HETATM   23  N5  UNL     1      21.754   1.783  51.850  1.00  0.00    -0.369 N 
HETATM   24  C22 UNL     1      21.147   1.296  50.616  1.00  0.00     0.148 C 
HETATM   25  H18 UNL     1      21.089   2.441  52.400  1.00  0.00     0.161 HD
ENDBRANCH  22  23
BRANCH   1  26
HETATM   26  C3  UNL     1      22.000  -0.234  53.717  1.00  0.00     0.011 C 
BRANCH  26  27
HETATM   27  C2  UNL     1      20.740  -0.784  54.008  1.00  0.00    -0.010 C 
HETATM   28  C1  UNL     1      19.542  -1.335  53.683  1.00  0.00     0.011 C 
ENDBRANCH  26  27
ENDBRANCH   1  26
BRANCH   8  29
HETATM   29  N1  UNL     1      26.692  -1.633  52.090  1.00  0.00     0.089 N 
HETATM   30  H10 UNL     1      27.666  -1.623  51.707  1.00  0.00     0.313 HD
HETATM   31  H11 UNL     1      27.659  -1.613  51.710  1.00  0.00     0.313 HD
ENDBRANCH   8  29
TORSDOF 6
ENDMDL
MODEL 5
REMARK VINA RESULT:      -7.1      2.452      5.295
REMARK  6 active torsions:
REMARK  status: ('A' for Active; 'I' for Inactive)
REMARK    1  A    between atoms: C2_2  and  C3_3 
REMARK    2  A    between atoms: C3_3  and  C4_4 
REMARK    3  A    between atoms: C7_7  and  C10_10 
REMARK    4  A    between atoms: C10_10  and  C11_11 
REMARK    5  A    between atoms: C11_11  and  N1_12 
REMARK    6  A    between atoms: C21_26  and  N5_27 
ROOT
HETATM    1  C4  UNL     1      22.994   1.138  52.442  1.00  0.00     0.000 C 
HETATM    2  C5  UNL     1      24.072   1.720  53.368  1.00  0.00     0.057 C 
HETATM    3  C6  UNL     1      25.291   2.148  52.570  1.00  0.00     0.017 A 
HETATM    4  C7  UNL     1      24.486   2.991  51.774  1.00  0.00     0.043 A 
HETATM    5  C8  UNL     1      24.018   3.841  50.785  1.00  0.00     0.011 A 
HETATM    6  C9  UNL     1      24.497   4.470  49.601  1.00  0.00    -0.009 A 
HETATM    7  C10 UNL     1      25.294   3.667  50.363  1.00  0.00     0.041 A 
HETATM    8  C11 UNL     1      25.691   2.826  51.384  1.00  0.00     0.174 A 
HETATM    9  C12 UNL     1      23.063   4.753  49.342  1.00  0.00     0.070 C 
HETATM   10  C13 UNL     1      22.933   5.251  47.932  1.00  0.00     0.002 C 
HETATM   11  C14 UNL     1      22.211   5.471  46.856  1.00  0.00     0.112 C 
HETATM   12  N2  UNL     1      20.849   5.255  46.498  1.00  0.00    -0.273 NA
HETATM   13  C15 UNL     1      19.839   4.912  47.283  1.00  0.00     0.117 C 
HETATM   14  C16 UNL     1      19.704   4.629  48.750  1.00  0.00     0.041 C 
HETATM   15  C17 UNL     1      20.761   4.077  49.372  1.00  0.00     0.068 C 
HETATM   16  C18 UNL     1      20.241   3.969  50.732  1.00  0.00     0.099 C 
HETATM   17  N3  UNL     1      19.824   3.875  51.839  1.00  0.00    -0.192 NA
HETATM   18  C19 UNL     1      22.138   3.513  49.426  1.00  0.00     0.170 C 
HETATM   19  C20 UNL     1      22.206   2.865  48.003  1.00  0.00     0.444 C 
HETATM   20  O1  UNL     1      22.261   2.497  46.875  1.00  0.00    -0.427 OA
HETATM   21  N4  UNL     1      22.140   2.473  50.272  1.00  0.00    -0.410 NA
HETATM   22  C21 UNL     1      22.308   1.620  51.178  1.00  0.00     0.176 C 
ENDROOT
BRANCH  22  23
HETATM   23  N5  UNL     1      21.283   0.708  50.690  1.00  0.00    -0.369 N 
HETATM   24  C22 UNL     1      19.936   0.521  51.218  1.00  0.00     0.148 C 
HETATM   25  H18 UNL     1      21.481   0.061  49.840  1.00  0.00     0.161 HD
ENDBRANCH  22  23
BRANCH   1  26
HETATM   26  C3  UNL     1      22.690  -0.017  52.950  1.00  0.00     0.011 C 
BRANCH  26  27
HETATM   27  C2  UNL     1      22.276  -1.197  53.591  1.00  0.00    -0.010 C 
HETATM   28  C1  UNL     1      21.528  -1.911  54.471  1.00  0.00     0.011 C 
ENDBRANCH  26  27
ENDBRANCH   1  26
BRANCH   8  29
HETATM   29  N1  UNL     1      27.024   2.324  51.415  1.00  0.00     0.089 N 
HETATM   30  H10 UNL     1      27.053   1.291  51.586  1.00  0.00     0.313 HD
HETATM   31  H11 UNL     1      27.043   1.298  51.585  1.00  0.00     0.313 HD
ENDBRANCH   8  29
TORSDOF 6
ENDMDL
MODEL 6
REMARK VINA RESULT:      -6.9      2.605      4.410
REMARK  6 active torsions:
REMARK  status: ('A' for Active; 'I' for Inactive)
REMARK    1  A    between atoms: C2_2  and  C3_3 
REMARK    2  A    between atoms: C3_3  and  C4_4 
REMARK    3  A    between atoms: C7_7  and  C10_10 
REMARK    4  A    between atoms: C10_10  and  C11_11 
REMARK    5  A    between atoms: C11_11  and  N1_12 
REMARK    6  A    between atoms: C21_26  and  N5_27 
ROOT
HETATM    1  C4  UNL     1      24.078   2.834  53.106  1.00  0.00     0.000 C 
HETATM    2  C5  UNL     1      24.117   4.261  53.672  1.00  0.00     0.057 C 
HETATM    3  C6  UNL     1      23.591   5.257  52.653  1.00  0.00     0.017 A 
HETATM    4  C7  UNL     1      22.376   4.543  52.567  1.00  0.00     0.043 A 
HETATM    5  C8  UNL     1      21.128   4.080  52.187  1.00  0.00     0.011 A 
HETATM    6  C9  UNL     1      20.144   4.350  51.193  1.00  0.00    -0.009 A 
HETATM    7  C10 UNL     1      21.307   5.059  51.267  1.00  0.00     0.041 A 
HETATM    8  C11 UNL     1      22.550   5.470  51.706  1.00  0.00     0.174 A 
HETATM    9  C12 UNL     1      19.556   3.058  51.628  1.00  0.00     0.070 C 
HETATM   10  C13 UNL     1      18.498   2.669  50.636  1.00  0.00     0.002 C 
HETATM   11  C14 UNL     1      17.736   1.762  50.069  1.00  0.00     0.112 C 
HETATM   12  N2  UNL     1      17.564   0.356  50.224  1.00  0.00    -0.273 NA
HETATM   13  C15 UNL     1      18.041  -0.429  51.178  1.00  0.00     0.117 C 
HETATM   14  C16 UNL     1      18.889  -0.201  52.394  1.00  0.00     0.041 C 
HETATM   15  C17 UNL     1      19.810   0.778  52.329  1.00  0.00     0.068 C 
HETATM   16  C18 UNL     1      20.396   0.678  53.663  1.00  0.00     0.099 C 
HETATM   17  N3  UNL     1      20.879   0.601  54.744  1.00  0.00    -0.192 NA
HETATM   18  C19 UNL     1      20.554   1.873  51.648  1.00  0.00     0.170 C 
HETATM   19  C20 UNL     1      20.546   1.317  50.185  1.00  0.00     0.444 C 
HETATM   20  O1  UNL     1      20.410   0.921  49.073  1.00  0.00    -0.427 OA
HETATM   21  N4  UNL     1      21.839   1.815  52.026  1.00  0.00    -0.410 NA
HETATM   22  C21 UNL     1      23.009   1.981  52.452  1.00  0.00     0.176 C 
ENDROOT
BRANCH  22  23
HETATM   23  N5  UNL     1      23.457   0.633  52.130  1.00  0.00    -0.369 N 
HETATM   24  C22 UNL     1      23.664  -0.478  53.052  1.00  0.00     0.148 C 
HETATM   25  H18 UNL     1      23.684   0.359  51.104  1.00  0.00     0.161 HD
ENDBRANCH  22  23
BRANCH   1  26
HETATM   26  C3  UNL     1      25.275   2.364  53.274  1.00  0.00     0.011 C 
BRANCH  26  27
HETATM   27  C2  UNL     1      26.621   1.980  53.405  1.00  0.00    -0.010 C 
HETATM   28  C1  UNL     1      27.957   2.214  53.473  1.00  0.00     0.011 C 
ENDBRANCH  26  27
ENDBRANCH   1  26
BRANCH   8  29
HETATM   29  N1  UNL     1      23.222   6.538  51.043  1.00  0.00     0.089 N 
HETATM   30  H10 UNL     1      22.599   7.034  50.363  1.00  0.00     0.313 HD
HETATM   31  H11 UNL     1      22.596   7.025  50.370  1.00  0.00     0.313 HD
ENDBRANCH   8  29
TORSDOF 6
ENDMDL
MODEL 7
REMARK VINA RESULT:      -6.8     15.157     18.280
REMARK  6 active torsions:
REMARK  status: ('A' for Active; 'I' for Inactive)
REMARK    1  A    between atoms: C2_2  and  C3_3 
REMARK    2  A    between atoms: C3_3  and  C4_4 
REMARK    3  A    between atoms: C7_7  and  C10_10 
REMARK    4  A    between atoms: C10_10  and  C11_11 
REMARK    5  A    between atoms: C11_11  and  N1_12 
REMARK    6  A    between atoms: C21_26  and  N5_27 
ROOT
HETATM    1  C4  UNL     1      26.730  -6.521  64.109  1.00  0.00     0.000 C 
HETATM    2  C5  UNL     1      27.620  -6.109  62.928  1.00  0.00     0.057 C 
HETATM    3  C6  UNL     1      27.613  -4.601  62.751  1.00  0.00     0.017 A 
HETATM    4  C7  UNL     1      28.049  -4.432  64.083  1.00  0.00     0.043 A 
HETATM    5  C8  UNL     1      28.396  -3.900  65.314  1.00  0.00     0.011 A 
HETATM    6  C9  UNL     1      28.425  -2.632  65.961  1.00  0.00    -0.009 A 
HETATM    7  C10 UNL     1      28.011  -2.772  64.668  1.00  0.00     0.041 A 
HETATM    8  C11 UNL     1      27.689  -3.373  63.468  1.00  0.00     0.174 A 
HETATM    9  C12 UNL     1      28.616  -3.428  67.199  1.00  0.00     0.070 C 
HETATM   10  C13 UNL     1      28.450  -2.508  68.375  1.00  0.00     0.002 C 
HETATM   11  C14 UNL     1      28.201  -2.311  69.649  1.00  0.00     0.112 C 
HETATM   12  N2  UNL     1      27.898  -3.155  70.756  1.00  0.00    -0.273 NA
HETATM   13  C15 UNL     1      27.968  -4.476  70.824  1.00  0.00     0.117 C 
HETATM   14  C16 UNL     1      28.361  -5.553  69.857  1.00  0.00     0.041 C 
HETATM   15  C17 UNL     1      28.102  -5.339  68.555  1.00  0.00     0.068 C 
HETATM   16  C18 UNL     1      28.618  -6.575  67.975  1.00  0.00     0.099 C 
HETATM   17  N3  UNL     1      29.033  -7.579  67.497  1.00  0.00    -0.192 NA
HETATM   18  C19 UNL     1      27.571  -4.552  67.408  1.00  0.00     0.170 C 
HETATM   19  C20 UNL     1      26.363  -3.851  68.114  1.00  0.00     0.444 C 
HETATM   20  O1  UNL     1      25.537  -3.247  68.717  1.00  0.00    -0.427 OA
HETATM   21  N4  UNL     1      27.007  -5.398  66.534  1.00  0.00    -0.410 NA
HETATM   22  C21 UNL     1      26.632  -6.100  65.562  1.00  0.00     0.176 C 
ENDROOT
BRANCH  22  23
HETATM   23  N5  UNL     1      25.634  -6.845  66.318  1.00  0.00    -0.369 N 
HETATM   24  C22 UNL     1      24.288  -6.414  66.678  1.00  0.00     0.148 C 
HETATM   25  H18 UNL     1      25.856  -7.842  66.688  1.00  0.00     0.161 HD
ENDBRANCH  22  23
BRANCH   1  26
HETATM   26  C3  UNL     1      25.925  -7.422  63.635  1.00  0.00     0.011 C 
BRANCH  26  27
HETATM   27  C2  UNL     1      24.954  -8.347  63.214  1.00  0.00    -0.010 C 
HETATM   28  C1  UNL     1      23.707  -8.884  63.191  1.00  0.00     0.011 C 
ENDBRANCH  26  27
ENDBRANCH   1  26
BRANCH   8  29
HETATM   29  N1  UNL     1      27.205  -2.583  62.384  1.00  0.00     0.089 N 
HETATM   30  H10 UNL     1      26.413  -3.047  61.881  1.00  0.00     0.313 HD
HETATM   31  H11 UNL     1      26.419  -3.052  61.891  1.00  0.00     0.313 HD
ENDBRANCH   8  29
TORSDOF 6
ENDMDL
MODEL 8
REMARK VINA RESULT:      -6.7      7.372     11.102
REMARK  6 active torsions:
REMARK  status: ('A' for Active; 'I' for Inactive)
REMARK    1  A    between atoms: C2_2  and  C3_3 
REMARK    2  A    between atoms: C3_3  and  C4_4 
REMARK    3  A    between atoms: C7_7  and  C10_10 
REMARK    4  A    between atoms: C10_10  and  C11_11 
REMARK    5  A    between atoms: C11_11  and  N1_12 
REMARK    6  A    between atoms: C21_26  and  N5_27 
ROOT
HETATM    1  C4  UNL     1      29.063   7.047  47.755  1.00  0.00     0.000 C 
HETATM    2  C5  UNL     1      27.734   6.296  47.914  1.00  0.00     0.057 C 
HETATM    3  C6  UNL     1      26.921   6.879  49.057  1.00  0.00     0.017 A 
HETATM    4  C7  UNL     1      26.966   8.153  48.452  1.00  0.00     0.043 A 
HETATM    5  C8  UNL     1      26.865   9.511  48.196  1.00  0.00     0.011 A 
HETATM    6  C9  UNL     1      26.436  10.695  48.861  1.00  0.00    -0.009 A 
HETATM    7  C10 UNL     1      26.373   9.470  49.459  1.00  0.00     0.041 A 
HETATM    8  C11 UNL     1      26.501   8.108  49.640  1.00  0.00     0.174 A 
HETATM    9  C12 UNL     1      27.125  11.397  47.750  1.00  0.00     0.070 C 
HETATM   10  C13 UNL     1      27.214  12.854  48.102  1.00  0.00     0.002 C 
HETATM   11  C14 UNL     1      27.765  14.037  47.954  1.00  0.00     0.112 C 
HETATM   12  N2  UNL     1      28.821  14.561  47.155  1.00  0.00    -0.273 NA
HETATM   13  C15 UNL     1      29.451  13.980  46.145  1.00  0.00     0.117 C 
HETATM   14  C16 UNL     1      29.337  12.646  45.470  1.00  0.00     0.041 C 
HETATM   15  C17 UNL     1      28.970  11.599  46.230  1.00  0.00     0.068 C 
HETATM   16  C18 UNL     1      28.976  10.532  45.232  1.00  0.00     0.099 C 
HETATM   17  N3  UNL     1      28.981   9.660  44.428  1.00  0.00    -0.192 NA
HETATM   18  C19 UNL     1      28.587  10.944  47.511  1.00  0.00     0.170 C 
HETATM   19  C20 UNL     1      29.440  11.801  48.504  1.00  0.00     0.444 C 
HETATM   20  O1  UNL     1      30.004  12.553  49.230  1.00  0.00    -0.427 OA
HETATM   21  N4  UNL     1      29.144   9.725  47.551  1.00  0.00    -0.410 NA
HETATM   22  C21 UNL     1      29.446   8.508  47.614  1.00  0.00     0.176 C 
ENDROOT
BRANCH  22  23
HETATM   23  N5  UNL     1      30.876   8.718  47.429  1.00  0.00    -0.369 N 
HETATM   24  C22 UNL     1      31.854   9.107  48.438  1.00  0.00     0.148 C 
HETATM   25  H18 UNL     1      31.328   8.592  46.449  1.00  0.00     0.161 HD
ENDBRANCH  22  23
BRANCH   1  26
HETATM   26  C3  UNL     1      29.981   6.130  47.765  1.00  0.00     0.011 C 
BRANCH  26  27
HETATM   27  C2  UNL     1      31.067   5.239  47.731  1.00  0.00    -0.010 C 
HETATM   28  C1  UNL     1      31.717   4.120  47.319  1.00  0.00     0.011 C 
ENDBRANCH  26  27
ENDBRANCH   1  26
BRANCH   8  29
HETATM   29  N1  UNL     1      26.102   7.513  50.873  1.00  0.00     0.089 N 
HETATM   30  H10 UNL     1      25.191   7.004  50.789  1.00  0.00     0.313 HD
HETATM   31  H11 UNL     1      25.197   7.010  50.779  1.00  0.00     0.313 HD
ENDBRANCH   8  29
TORSDOF 6
ENDMDL
MODEL 9
REMARK VINA RESULT:      -6.6     10.737     12.037
REMARK  6 active torsions:
REMARK  status: ('A' for Active; 'I' for Inactive)
REMARK    1  A    between atoms: C2_2  and  C3_3 
REMARK    2  A    between atoms: C3_3  and  C4_4 
REMARK    3  A    between atoms: C7_7  and  C10_10 
REMARK    4  A    between atoms: C10_10  and  C11_11 
REMARK    5  A    between atoms: C11_11  and  N1_12 
REMARK    6  A    between atoms: C21_26  and  N5_27 
ROOT
HETATM    1  C4  UNL     1      32.450   6.024  45.396  1.00  0.00     0.000 C 
HETATM    2  C5  UNL     1      32.307   4.789  46.296  1.00  0.00     0.057 C 
HETATM    3  C6  UNL     1      32.943   5.037  47.653  1.00  0.00     0.017 A 
HETATM    4  C7  UNL     1      32.124   6.171  47.841  1.00  0.00     0.043 A 
HETATM    5  C8  UNL     1      31.554   7.338  48.323  1.00  0.00     0.011 A 
HETATM    6  C9  UNL     1      31.751   8.264  49.387  1.00  0.00    -0.009 A 
HETATM    7  C10 UNL     1      32.547   7.168  49.229  1.00  0.00     0.041 A 
HETATM    8  C11 UNL     1      33.059   6.003  48.693  1.00  0.00     0.174 A 
HETATM    9  C12 UNL     1      30.816   9.126  48.619  1.00  0.00     0.070 C 
HETATM   10  C13 UNL     1      30.845  10.499  49.224  1.00  0.00     0.002 C 
HETATM   11  C14 UNL     1      30.636  11.794  49.139  1.00  0.00     0.112 C 
HETATM   12  N2  UNL     1      30.151  12.669  48.125  1.00  0.00    -0.273 NA
HETATM   13  C15 UNL     1      29.574  12.352  46.976  1.00  0.00     0.117 C 
HETATM   14  C16 UNL     1      29.215  11.059  46.307  1.00  0.00     0.041 C 
HETATM   15  C17 UNL     1      30.016  10.003  46.535  1.00  0.00     0.068 C 
HETATM   16  C18 UNL     1      29.344   8.982  45.735  1.00  0.00     0.099 C 
HETATM   17  N3  UNL     1      28.805   8.150  45.084  1.00  0.00    -0.192 NA
HETATM   18  C19 UNL     1      31.200   9.325  47.132  1.00  0.00     0.170 C 
HETATM   19  C20 UNL     1      32.207  10.521  47.134  1.00  0.00     0.444 C 
HETATM   20  O1  UNL     1      32.897  11.484  47.232  1.00  0.00    -0.427 OA
HETATM   21  N4  UNL     1      31.698   8.464  46.232  1.00  0.00    -0.410 NA
HETATM   22  C21 UNL     1      32.128   7.497  45.556  1.00  0.00     0.176 C 
ENDROOT
BRANCH  22  23
HETATM   23  N5  UNL     1      32.402   8.286  44.362  1.00  0.00    -0.369 N 
HETATM   24  C22 UNL     1      33.567   9.122  44.097  1.00  0.00     0.148 C 
HETATM   25  H18 UNL     1      31.695   8.299  43.538  1.00  0.00     0.161 HD
ENDBRANCH  22  23
BRANCH   1  26
HETATM   26  C3  UNL     1      32.977   5.588  44.293  1.00  0.00     0.011 C 
BRANCH  26  27
HETATM   27  C2  UNL     1      33.428   5.037  43.081  1.00  0.00    -0.010 C 
HETATM   28  C1  UNL     1      33.260   4.427  41.879  1.00  0.00     0.011 C 
ENDBRANCH  26  27
ENDBRANCH   1  26
BRANCH   8  29
HETATM   29  N1  UNL     1      34.180   5.370  49.306  1.00  0.00     0.089 N 
HETATM   30  H10 UNL     1      34.948   5.180  48.621  1.00  0.00     0.313 HD
HETATM   31  H11 UNL     1      34.937   5.185  48.618  1.00  0.00     0.313 HD
ENDBRANCH   8  29
TORSDOF 6
ENDMDL
