MODEL 1
REMARK VINA RESULT:      -8.6      0.000      0.000
REMARK  7 active torsions:
REMARK  status: ('A' for Active; 'I' for Inactive)
REMARK    1  A    between atoms: N1_2  and  C2_3 
REMARK    2  A    between atoms: C5_7  and  C6_8 
REMARK    3  A    between atoms: C9_11  and  O1_12 
REMARK    4  A    between atoms: C16_19  and  P1_20 
REMARK    5  A    between atoms: C19_23  and  C20_24 
REMARK    6  A    between atoms: C20_24  and  C21_25 
REMARK    7  A    between atoms: C21_25  and  O3_27 
ROOT
HETATM    1  C2  UNL     1      24.274   3.107  51.883  1.00  0.00     0.332 C 
HETATM    2  N2  UNL     1      23.060   2.986  51.112  1.00  0.00    -0.359 N 
HETATM    3  C3  UNL     1      22.348   1.852  51.632  1.00  0.00     0.037 A 
HETATM    4  C4  UNL     1      21.005   1.532  51.620  1.00  0.00     0.042 A 
HETATM    5  C5  UNL     1      20.605   0.339  52.214  1.00  0.00    -0.024 A 
HETATM    6  C13 UNL     1      21.546  -0.486  52.796  1.00  0.00     0.013 A 
HETATM    7  C14 UNL     1      22.865  -0.132  52.787  1.00  0.00     0.011 A 
HETATM    8  C15 UNL     1      23.320   1.050  52.205  1.00  0.00    -0.019 A 
HETATM    9  C16 UNL     1      24.651   1.651  52.062  1.00  0.00     0.103 C 
HETATM   10  H6  UNL     1      22.747   3.599  50.325  1.00  0.00     0.162 HD
ENDROOT
BRANCH   9  11
HETATM   11  P1  UNL     1      25.689   1.565  53.494  1.00  0.00    -0.083 P 
HETATM   12  C17 UNL     1      26.157   0.143  54.019  1.00  0.00    -0.051 A 
HETATM   13  C18 UNL     1      25.334  -0.955  54.606  1.00  0.00     0.049 C 
HETATM   14  C19 UNL     1      27.594   0.199  53.776  1.00  0.00    -0.035 A 
HETATM   15  C22 UNL     1      27.420   1.412  53.293  1.00  0.00    -0.051 A 
HETATM   16  C23 UNL     1      28.344   2.432  52.724  1.00  0.00     0.049 C 
HETATM   17  H18 UNL     1      25.340   2.442  54.542  1.00  0.00     0.063 HD
BRANCH  14  18
HETATM   18  C20 UNL     1      28.765  -0.683  53.964  1.00  0.00     0.149 C 
BRANCH  18  19
HETATM   19  C21 UNL     1      28.583  -2.012  53.352  1.00  0.00     0.143 C 
HETATM   20  O2  UNL     1      29.358  -2.891  53.803  1.00  0.00    -0.650 OA
BRANCH  19  21
HETATM   21  O3  UNL     1      28.305  -3.197  52.696  1.00  0.00    -0.776 OA
HETATM   22  H24 UNL     1      28.331  -3.261  51.670  1.00  0.00     0.167 HD
ENDBRANCH  19  21
ENDBRANCH  18  19
ENDBRANCH  14  18
ENDBRANCH   9  11
BRANCH   1  23
HETATM   23  N1  UNL     1      25.270   3.942  51.359  1.00  0.00     0.103 N 
HETATM   24  C1  UNL     1      25.846   3.622  50.106  1.00  0.00     0.309 C 
HETATM   25  H4  UNL     1      25.011   4.923  51.469  1.00  0.00     0.318 HD
ENDBRANCH   1  23
BRANCH   5  26
HETATM   26  C6  UNL     1      19.206  -0.078  52.247  1.00  0.00    -0.026 A 
HETATM   27  C7  UNL     1      18.893  -0.989  53.239  1.00  0.00     0.015 A 
HETATM   28  C8  UNL     1      17.566  -1.412  53.303  1.00  0.00     0.037 A 
HETATM   29  C9  UNL     1      16.614  -0.946  52.425  1.00  0.00     0.068 A 
HETATM   30  C11 UNL     1      16.967  -0.028  51.439  1.00  0.00     0.037 A 
HETATM   31  C12 UNL     1      18.280   0.417  51.343  1.00  0.00     0.015 A 
BRANCH  29  32
HETATM   32  O1  UNL     1      15.288  -1.332  52.447  1.00  0.00    -0.356 OA
HETATM   33  C10 UNL     1      14.510  -1.479  51.272  1.00  0.00     0.210 C 
ENDBRANCH  29  32
ENDBRANCH   5  26
TORSDOF 7
ENDMDL
MODEL 2
REMARK VINA RESULT:      -8.4      6.142      9.382
REMARK  7 active torsions:
REMARK  status: ('A' for Active; 'I' for Inactive)
REMARK    1  A    between atoms: N1_2  and  C2_3 
REMARK    2  A    between atoms: C5_7  and  C6_8 
REMARK    3  A    between atoms: C9_11  and  O1_12 
REMARK    4  A    between atoms: C16_19  and  P1_20 
REMARK    5  A    between atoms: C19_23  and  C20_24 
REMARK    6  A    between atoms: C20_24  and  C21_25 
REMARK    7  A    between atoms: C21_25  and  O3_27 
ROOT
HETATM    1  C2  UNL     1      27.391   9.562  47.009  1.00  0.00     0.332 C 
HETATM    2  N2  UNL     1      26.176   8.805  47.191  1.00  0.00    -0.359 N 
HETATM    3  C3  UNL     1      26.554   7.536  47.744  1.00  0.00     0.037 A 
HETATM    4  C4  UNL     1      25.854   6.627  48.512  1.00  0.00     0.042 A 
HETATM    5  C5  UNL     1      26.499   5.459  48.907  1.00  0.00    -0.024 A 
HETATM    6  C13 UNL     1      27.807   5.237  48.528  1.00  0.00     0.013 A 
HETATM    7  C14 UNL     1      28.465   6.162  47.769  1.00  0.00     0.011 A 
HETATM    8  C15 UNL     1      27.867   7.348  47.345  1.00  0.00    -0.019 A 
HETATM    9  C16 UNL     1      28.341   8.480  46.541  1.00  0.00     0.103 C 
HETATM   10  H6  UNL     1      25.202   9.111  46.967  1.00  0.00     0.162 HD
ENDROOT
BRANCH   9  11
HETATM   11  P1  UNL     1      29.978   9.046  46.904  1.00  0.00    -0.083 P 
HETATM   12  C17 UNL     1      30.521   8.927  48.390  1.00  0.00    -0.051 A 
HETATM   13  C18 UNL     1      30.053   9.637  49.617  1.00  0.00     0.049 C 
HETATM   14  C19 UNL     1      31.589   7.946  48.235  1.00  0.00    -0.035 A 
HETATM   15  C22 UNL     1      31.295   7.895  46.952  1.00  0.00    -0.051 A 
HETATM   16  C23 UNL     1      31.850   7.129  45.802  1.00  0.00     0.049 C 
HETATM   17  H18 UNL     1      30.343  10.262  46.290  1.00  0.00     0.063 HD
BRANCH  14  18
HETATM   18  C20 UNL     1      32.585   7.274  49.097  1.00  0.00     0.149 C 
BRANCH  18  19
HETATM   19  C21 UNL     1      31.991   6.214  49.933  1.00  0.00     0.143 C 
HETATM   20  O2  UNL     1      31.567   5.229  49.281  1.00  0.00    -0.650 OA
BRANCH  19  21
HETATM   21  O3  UNL     1      31.467   5.305  50.835  1.00  0.00    -0.776 OA
HETATM   22  H24 UNL     1      30.776   5.588  51.542  1.00  0.00     0.167 HD
ENDBRANCH  19  21
ENDBRANCH  18  19
ENDBRANCH  14  18
ENDBRANCH   9  11
BRANCH   1  23
HETATM   23  N1  UNL     1      27.306  10.702  46.198  1.00  0.00     0.103 N 
HETATM   24  C1  UNL     1      26.880  10.560  44.856  1.00  0.00     0.309 C 
HETATM   25  H4  UNL     1      26.867  11.471  46.705  1.00  0.00     0.318 HD
ENDBRANCH   1  23
BRANCH   5  26
HETATM   26  C6  UNL     1      25.833   4.444  49.719  1.00  0.00    -0.026 A 
HETATM   27  C7  UNL     1      26.647   3.407  50.136  1.00  0.00     0.015 A 
HETATM   28  C8  UNL     1      26.048   2.418  50.914  1.00  0.00     0.037 A 
HETATM   29  C9  UNL     1      24.715   2.470  51.253  1.00  0.00     0.068 A 
HETATM   30  C11 UNL     1      23.927   3.532  50.815  1.00  0.00     0.037 A 
HETATM   31  C12 UNL     1      24.487   4.537  50.037  1.00  0.00     0.015 A 
BRANCH  29  32
HETATM   32  O1  UNL     1      24.075   1.517  52.022  1.00  0.00    -0.356 OA
HETATM   33  C10 UNL     1      24.757   0.693  52.951  1.00  0.00     0.210 C 
ENDBRANCH  29  32
ENDBRANCH   5  26
TORSDOF 7
ENDMDL
MODEL 3
REMARK VINA RESULT:      -8.4      3.672      9.393
REMARK  7 active torsions:
REMARK  status: ('A' for Active; 'I' for Inactive)
REMARK    1  A    between atoms: N1_2  and  C2_3 
REMARK    2  A    between atoms: C5_7  and  C6_8 
REMARK    3  A    between atoms: C9_11  and  O1_12 
REMARK    4  A    between atoms: C16_19  and  P1_20 
REMARK    5  A    between atoms: C19_23  and  C20_24 
REMARK    6  A    between atoms: C20_24  and  C21_25 
REMARK    7  A    between atoms: C21_25  and  O3_27 
ROOT
HETATM    1  C2  UNL     1      24.474   0.938  52.872  1.00  0.00     0.332 C 
HETATM    2  N2  UNL     1      25.712   1.209  52.183  1.00  0.00    -0.359 N 
HETATM    3  C3  UNL     1      25.437   2.236  51.219  1.00  0.00     0.037 A 
HETATM    4  C4  UNL     1      26.256   3.176  50.624  1.00  0.00     0.042 A 
HETATM    5  C5  UNL     1      25.693   4.058  49.708  1.00  0.00    -0.024 A 
HETATM    6  C13 UNL     1      24.346   3.978  49.418  1.00  0.00     0.013 A 
HETATM    7  C14 UNL     1      23.570   3.035  50.029  1.00  0.00     0.011 A 
HETATM    8  C15 UNL     1      24.083   2.126  50.953  1.00  0.00    -0.019 A 
HETATM    9  C16 UNL     1      23.480   1.040  51.734  1.00  0.00     0.103 C 
HETATM   10  H6  UNL     1      26.638   0.752  52.345  1.00  0.00     0.162 HD
ENDROOT
BRANCH   9  11
HETATM   11  P1  UNL     1      21.906   1.399  52.460  1.00  0.00    -0.083 P 
HETATM   12  C17 UNL     1      20.623   1.449  51.529  1.00  0.00    -0.051 A 
HETATM   13  C18 UNL     1      20.291   2.418  50.442  1.00  0.00     0.049 C 
HETATM   14  C19 UNL     1      19.862   0.303  52.015  1.00  0.00    -0.035 A 
HETATM   15  C22 UNL     1      20.831   0.084  52.880  1.00  0.00    -0.051 A 
HETATM   16  C23 UNL     1      21.050  -0.941  53.939  1.00  0.00     0.049 C 
HETATM   17  H18 UNL     1      21.913   2.425  53.429  1.00  0.00     0.063 HD
BRANCH  14  18
HETATM   18  C20 UNL     1      18.577  -0.360  51.710  1.00  0.00     0.149 C 
BRANCH  18  19
HETATM   19  C21 UNL     1      17.883  -0.843  52.919  1.00  0.00     0.143 C 
HETATM   20  O2  UNL     1      16.698  -0.443  53.019  1.00  0.00    -0.650 OA
BRANCH  19  21
HETATM   21  O3  UNL     1      17.359  -1.367  54.086  1.00  0.00    -0.776 OA
HETATM   22  H24 UNL     1      17.633  -1.003  55.008  1.00  0.00     0.167 HD
ENDBRANCH  19  21
ENDBRANCH  18  19
ENDBRANCH  14  18
ENDBRANCH   9  11
BRANCH   1  23
HETATM   23  N1  UNL     1      24.422  -0.237  53.633  1.00  0.00     0.103 N 
HETATM   24  C1  UNL     1      25.497  -0.540  54.503  1.00  0.00     0.309 C 
HETATM   25  H4  UNL     1      23.495  -0.357  54.045  1.00  0.00     0.318 HD
ENDBRANCH   1  23
BRANCH   5  26
HETATM   26  C6  UNL     1      26.485   5.082  49.032  1.00  0.00    -0.026 A 
HETATM   27  C7  UNL     1      27.796   4.727  48.774  1.00  0.00     0.015 A 
HETATM   28  C8  UNL     1      28.585   5.678  48.129  1.00  0.00     0.037 A 
HETATM   29  C9  UNL     1      28.086   6.908  47.765  1.00  0.00     0.068 A 
HETATM   30  C11 UNL     1      26.759   7.229  48.041  1.00  0.00     0.037 A 
HETATM   31  C12 UNL     1      25.941   6.308  48.683  1.00  0.00     0.015 A 
BRANCH  29  32
HETATM   32  O1  UNL     1      28.825   7.884  47.124  1.00  0.00    -0.356 OA
HETATM   33  C10 UNL     1      29.204   9.097  47.751  1.00  0.00     0.210 C 
ENDBRANCH  29  32
ENDBRANCH   5  26
TORSDOF 7
ENDMDL
MODEL 4
REMARK VINA RESULT:      -8.1      3.257      9.865
REMARK  7 active torsions:
REMARK  status: ('A' for Active; 'I' for Inactive)
REMARK    1  A    between atoms: N1_2  and  C2_3 
REMARK    2  A    between atoms: C5_7  and  C6_8 
REMARK    3  A    between atoms: C9_11  and  O1_12 
REMARK    4  A    between atoms: C16_19  and  P1_20 
REMARK    5  A    between atoms: C19_23  and  C20_24 
REMARK    6  A    between atoms: C20_24  and  C21_25 
REMARK    7  A    between atoms: C21_25  and  O3_27 
ROOT
HETATM    1  C2  UNL     1      17.837  -0.336  52.835  1.00  0.00     0.332 C 
HETATM    2  N2  UNL     1      18.970  -0.791  53.603  1.00  0.00    -0.359 N 
HETATM    3  C3  UNL     1      20.142  -0.237  52.985  1.00  0.00     0.037 A 
HETATM    4  C4  UNL     1      21.394   0.049  53.491  1.00  0.00     0.042 A 
HETATM    5  C5  UNL     1      22.346   0.592  52.634  1.00  0.00    -0.024 A 
HETATM    6  C13 UNL     1      22.021   0.832  51.314  1.00  0.00     0.013 A 
HETATM    7  C14 UNL     1      20.770   0.536  50.853  1.00  0.00     0.011 A 
HETATM    8  C15 UNL     1      19.780  -0.010  51.668  1.00  0.00    -0.019 A 
HETATM    9  C16 UNL     1      18.389  -0.412  51.427  1.00  0.00     0.103 C 
HETATM   10  H6  UNL     1      18.955  -1.406  54.448  1.00  0.00     0.162 HD
ENDROOT
BRANCH   9  11
HETATM   11  P1  UNL     1      17.430   0.702  50.441  1.00  0.00    -0.083 P 
HETATM   12  C17 UNL     1      15.847   0.594  50.480  1.00  0.00    -0.051 A 
HETATM   13  C18 UNL     1      14.972  -0.516  49.996  1.00  0.00     0.049 C 
HETATM   14  C19 UNL     1      15.482   1.858  51.108  1.00  0.00    -0.035 A 
HETATM   15  C22 UNL     1      16.765   2.145  51.173  1.00  0.00    -0.051 A 
HETATM   16  C23 UNL     1      17.531   3.314  51.690  1.00  0.00     0.049 C 
HETATM   17  H18 UNL     1      17.925   0.932  49.140  1.00  0.00     0.063 HD
BRANCH  14  18
HETATM   18  C20 UNL     1      14.243   2.554  51.515  1.00  0.00     0.149 C 
BRANCH  18  19
HETATM   19  C21 UNL     1      13.730   2.089  52.818  1.00  0.00     0.143 C 
HETATM   20  O2  UNL     1      14.327   1.082  53.270  1.00  0.00    -0.650 OA
BRANCH  19  21
HETATM   21  O3  UNL     1      13.152   1.766  54.032  1.00  0.00    -0.776 OA
HETATM   22  H24 UNL     1      13.500   2.161  54.915  1.00  0.00     0.167 HD
ENDBRANCH  19  21
ENDBRANCH  18  19
ENDBRANCH  14  18
ENDBRANCH   9  11
BRANCH   1  23
HETATM   23  N1  UNL     1      16.621  -0.996  53.056  1.00  0.00     0.103 N 
HETATM   24  C1  UNL     1      16.544  -2.391  52.826  1.00  0.00     0.309 C 
HETATM   25  H4  UNL     1      16.198  -0.687  53.933  1.00  0.00     0.318 HD
ENDBRANCH   1  23
BRANCH   5  26
HETATM   26  C6  UNL     1      23.694   0.924  53.084  1.00  0.00    -0.026 A 
HETATM   27  C7  UNL     1      24.441  -0.153  53.527  1.00  0.00     0.015 A 
HETATM   28  C8  UNL     1      25.735   0.124  53.965  1.00  0.00     0.037 A 
HETATM   29  C9  UNL     1      26.246   1.402  53.958  1.00  0.00     0.068 A 
HETATM   30  C11 UNL     1      25.463   2.461  53.504  1.00  0.00     0.037 A 
HETATM   31  C12 UNL     1      24.168   2.226  53.060  1.00  0.00     0.015 A 
BRANCH  29  32
HETATM   32  O1  UNL     1      27.520   1.727  54.380  1.00  0.00    -0.356 OA
HETATM   33  C10 UNL     1      28.485   2.321  53.529  1.00  0.00     0.210 C 
ENDBRANCH  29  32
ENDBRANCH   5  26
TORSDOF 7
ENDMDL
MODEL 5
REMARK VINA RESULT:      -7.9      2.316      9.399
REMARK  7 active torsions:
REMARK  status: ('A' for Active; 'I' for Inactive)
REMARK    1  A    between atoms: N1_2  and  C2_3 
REMARK    2  A    between atoms: C5_7  and  C6_8 
REMARK    3  A    between atoms: C9_11  and  O1_12 
REMARK    4  A    between atoms: C16_19  and  P1_20 
REMARK    5  A    between atoms: C19_23  and  C20_24 
REMARK    6  A    between atoms: C20_24  and  C21_25 
REMARK    7  A    between atoms: C21_25  and  O3_27 
ROOT
HETATM    1  C2  UNL     1      20.158   2.220  50.474  1.00  0.00     0.332 C 
HETATM    2  N2  UNL     1      21.398   2.808  50.919  1.00  0.00    -0.359 N 
HETATM    3  C3  UNL     1      22.036   1.841  51.767  1.00  0.00     0.037 A 
HETATM    4  C4  UNL     1      23.363   1.647  52.097  1.00  0.00     0.042 A 
HETATM    5  C5  UNL     1      23.685   0.606  52.962  1.00  0.00    -0.024 A 
HETATM    6  C13 UNL     1      22.684  -0.200  53.464  1.00  0.00     0.013 A 
HETATM    7  C14 UNL     1      21.384   0.024  53.113  1.00  0.00     0.011 A 
HETATM    8  C15 UNL     1      21.006   1.053  52.252  1.00  0.00    -0.019 A 
HETATM    9  C16 UNL     1      19.710   1.499  51.727  1.00  0.00     0.103 C 
HETATM   10  H6  UNL     1      21.772   3.754  50.679  1.00  0.00     0.162 HD
ENDROOT
BRANCH   9  11
HETATM   11  P1  UNL     1      18.608   0.213  51.212  1.00  0.00    -0.083 P 
HETATM   12  C17 UNL     1      17.760  -0.558  52.309  1.00  0.00    -0.051 A 
HETATM   13  C18 UNL     1      18.238  -1.466  53.394  1.00  0.00     0.049 C 
HETATM   14  C19 UNL     1      16.402  -0.145  51.974  1.00  0.00    -0.035 A 
HETATM   15  C22 UNL     1      16.910   0.572  50.993  1.00  0.00    -0.051 A 
HETATM   16  C23 UNL     1      16.314   1.456  49.952  1.00  0.00     0.049 C 
HETATM   17  H18 UNL     1      19.114  -0.647  50.214  1.00  0.00     0.063 HD
BRANCH  14  18
HETATM   18  C20 UNL     1      15.034  -0.389  52.477  1.00  0.00     0.149 C 
BRANCH  18  19
HETATM   19  C21 UNL     1      14.428   0.810  53.087  1.00  0.00     0.143 C 
HETATM   20  O2  UNL     1      13.450   0.563  53.833  1.00  0.00    -0.650 OA
BRANCH  19  21
HETATM   21  O3  UNL     1      13.964   2.013  53.586  1.00  0.00    -0.776 OA
HETATM   22  H24 UNL     1      13.905   2.853  52.995  1.00  0.00     0.167 HD
ENDBRANCH  19  21
ENDBRANCH  18  19
ENDBRANCH  14  18
ENDBRANCH   9  11
BRANCH   1  23
HETATM   23  N1  UNL     1      19.223   3.088  49.894  1.00  0.00     0.103 N 
HETATM   24  C1  UNL     1      18.757   4.195  50.644  1.00  0.00     0.309 C 
HETATM   25  H4  UNL     1      19.484   3.307  48.932  1.00  0.00     0.318 HD
ENDBRANCH   1  23
BRANCH   5  26
HETATM   26  C6  UNL     1      25.062   0.330  53.363  1.00  0.00    -0.026 A 
HETATM   27  C7  UNL     1      25.955   0.187  52.317  1.00  0.00     0.015 A 
HETATM   28  C8  UNL     1      27.280  -0.077  52.660  1.00  0.00     0.037 A 
HETATM   29  C9  UNL     1      27.681  -0.188  53.972  1.00  0.00     0.068 A 
HETATM   30  C11 UNL     1      26.752  -0.037  54.998  1.00  0.00     0.037 A 
HETATM   31  C12 UNL     1      25.422   0.226  54.697  1.00  0.00     0.015 A 
BRANCH  29  32
HETATM   32  O1  UNL     1      28.980  -0.448  54.363  1.00  0.00    -0.356 OA
HETATM   33  C10 UNL     1      30.057  -0.534  53.446  1.00  0.00     0.210 C 
ENDBRANCH  29  32
ENDBRANCH   5  26
TORSDOF 7
ENDMDL
MODEL 6
REMARK VINA RESULT:      -7.8      1.824      2.517
REMARK  7 active torsions:
REMARK  status: ('A' for Active; 'I' for Inactive)
REMARK    1  A    between atoms: N1_2  and  C2_3 
REMARK    2  A    between atoms: C5_7  and  C6_8 
REMARK    3  A    between atoms: C9_11  and  O1_12 
REMARK    4  A    between atoms: C16_19  and  P1_20 
REMARK    5  A    between atoms: C19_23  and  C20_24 
REMARK    6  A    between atoms: C20_24  and  C21_25 
REMARK    7  A    between atoms: C21_25  and  O3_27 
ROOT
HETATM    1  C2  UNL     1      22.621   2.749  50.062  1.00  0.00     0.332 C 
HETATM    2  N2  UNL     1      21.346   2.459  49.450  1.00  0.00    -0.359 N 
HETATM    3  C3  UNL     1      20.616   1.640  50.376  1.00  0.00     0.037 A 
HETATM    4  C4  UNL     1      19.261   1.441  50.550  1.00  0.00     0.042 A 
HETATM    5  C5  UNL     1      18.843   0.570  51.551  1.00  0.00    -0.024 A 
HETATM    6  C13 UNL     1      19.780  -0.067  52.339  1.00  0.00     0.013 A 
HETATM    7  C14 UNL     1      21.112   0.157  52.135  1.00  0.00     0.011 A 
HETATM    8  C15 UNL     1      21.584   1.019  51.147  1.00  0.00    -0.019 A 
HETATM    9  C16 UNL     1      22.931   1.426  50.729  1.00  0.00     0.103 C 
HETATM   10  H6  UNL     1      21.008   2.777  48.514  1.00  0.00     0.162 HD
ENDROOT
BRANCH   9  11
HETATM   11  P1  UNL     1      24.069   1.770  52.041  1.00  0.00    -0.083 P 
HETATM   12  C17 UNL     1      24.702   0.558  52.847  1.00  0.00    -0.051 A 
HETATM   13  C18 UNL     1      24.026  -0.419  53.751  1.00  0.00     0.049 C 
HETATM   14  C19 UNL     1      26.107   0.656  52.469  1.00  0.00    -0.035 A 
HETATM   15  C22 UNL     1      25.789   1.697  51.728  1.00  0.00    -0.051 A 
HETATM   16  C23 UNL     1      26.573   2.612  50.851  1.00  0.00     0.049 C 
HETATM   17  H18 UNL     1      23.714   2.849  52.876  1.00  0.00     0.063 HD
BRANCH  14  18
HETATM   18  C20 UNL     1      27.365  -0.064  52.757  1.00  0.00     0.149 C 
BRANCH  18  19
HETATM   19  C21 UNL     1      28.010   0.390  54.004  1.00  0.00     0.143 C 
HETATM   20  O2  UNL     1      27.890  -0.414  54.961  1.00  0.00    -0.650 OA
BRANCH  19  21
HETATM   21  O3  UNL     1      28.656   0.937  55.098  1.00  0.00    -0.776 OA
HETATM   22  H24 UNL     1      28.249   1.721  55.624  1.00  0.00     0.167 HD
ENDBRANCH  19  21
ENDBRANCH  18  19
ENDBRANCH  14  18
ENDBRANCH   9  11
BRANCH   1  23
HETATM   23  N1  UNL     1      23.617   3.265  49.223  1.00  0.00     0.103 N 
HETATM   24  C1  UNL     1      23.799   4.668  49.155  1.00  0.00     0.309 C 
HETATM   25  H4  UNL     1      24.481   2.730  49.319  1.00  0.00     0.318 HD
ENDBRANCH   1  23
BRANCH   5  26
HETATM   26  C6  UNL     1      17.430   0.301  51.804  1.00  0.00    -0.026 A 
HETATM   27  C7  UNL     1      16.587   1.377  51.595  1.00  0.00     0.015 A 
HETATM   28  C8  UNL     1      15.229   1.160  51.825  1.00  0.00     0.037 A 
HETATM   29  C9  UNL     1      14.751  -0.063  52.238  1.00  0.00     0.068 A 
HETATM   30  C11 UNL     1      15.631  -1.123  52.437  1.00  0.00     0.037 A 
HETATM   31  C12 UNL     1      16.992  -0.946  52.219  1.00  0.00     0.015 A 
BRANCH  29  32
HETATM   32  O1  UNL     1      13.417  -0.329  52.478  1.00  0.00    -0.356 OA
HETATM   33  C10 UNL     1      12.823  -0.191  53.757  1.00  0.00     0.210 C 
ENDBRANCH  29  32
ENDBRANCH   5  26
TORSDOF 7
ENDMDL
MODEL 7
REMARK VINA RESULT:      -7.8      4.148      8.667
REMARK  7 active torsions:
REMARK  status: ('A' for Active; 'I' for Inactive)
REMARK    1  A    between atoms: N1_2  and  C2_3 
REMARK    2  A    between atoms: C5_7  and  C6_8 
REMARK    3  A    between atoms: C9_11  and  O1_12 
REMARK    4  A    between atoms: C16_19  and  P1_20 
REMARK    5  A    between atoms: C19_23  and  C20_24 
REMARK    6  A    between atoms: C20_24  and  C21_25 
REMARK    7  A    between atoms: C21_25  and  O3_27 
ROOT
HETATM    1  C2  UNL     1      18.282   0.573  51.479  1.00  0.00     0.332 C 
HETATM    2  N2  UNL     1      19.170  -0.260  52.254  1.00  0.00    -0.359 N 
HETATM    3  C3  UNL     1      20.500   0.235  52.038  1.00  0.00     0.037 A 
HETATM    4  C4  UNL     1      21.642   0.156  52.809  1.00  0.00     0.042 A 
HETATM    5  C5  UNL     1      22.808   0.743  52.326  1.00  0.00    -0.024 A 
HETATM    6  C13 UNL     1      22.796   1.384  51.105  1.00  0.00     0.013 A 
HETATM    7  C14 UNL     1      21.645   1.441  50.372  1.00  0.00     0.011 A 
HETATM    8  C15 UNL     1      20.451   0.870  50.808  1.00  0.00    -0.019 A 
HETATM    9  C16 UNL     1      19.105   0.790  50.227  1.00  0.00     0.103 C 
HETATM   10  H6  UNL     1      18.908  -1.069  52.861  1.00  0.00     0.162 HD
ENDROOT
BRANCH   9  11
HETATM   11  P1  UNL     1      18.507   2.275  49.474  1.00  0.00    -0.083 P 
HETATM   12  C17 UNL     1      18.562   3.631  50.297  1.00  0.00    -0.051 A 
HETATM   13  C18 UNL     1      17.811   4.009  51.530  1.00  0.00     0.049 C 
HETATM   14  C19 UNL     1      19.535   4.401  49.530  1.00  0.00    -0.035 A 
HETATM   15  C22 UNL     1      19.639   3.372  48.714  1.00  0.00    -0.051 A 
HETATM   16  C23 UNL     1      20.442   3.111  47.487  1.00  0.00     0.049 C 
HETATM   17  H18 UNL     1      17.310   2.136  48.739  1.00  0.00     0.063 HD
BRANCH  14  18
HETATM   18  C20 UNL     1      20.162   5.738  49.595  1.00  0.00     0.149 C 
BRANCH  18  19
HETATM   19  C21 UNL     1      21.095   5.876  50.729  1.00  0.00     0.143 C 
HETATM   20  O2  UNL     1      21.525   7.043  50.895  1.00  0.00    -0.650 OA
BRANCH  19  21
HETATM   21  O3  UNL     1      21.950   5.859  51.816  1.00  0.00    -0.776 OA
HETATM   22  H24 UNL     1      22.925   6.175  51.736  1.00  0.00     0.167 HD
ENDBRANCH  19  21
ENDBRANCH  18  19
ENDBRANCH  14  18
ENDBRANCH   9  11
BRANCH   1  23
HETATM   23  N1  UNL     1      16.980   0.093  51.285  1.00  0.00     0.103 N 
HETATM   24  C1  UNL     1      15.914   0.689  52.001  1.00  0.00     0.309 C 
HETATM   25  H4  UNL     1      16.795  -0.054  50.292  1.00  0.00     0.318 HD
ENDBRANCH   1  23
BRANCH   5  26
HETATM   26  C6  UNL     1      24.061   0.707  53.076  1.00  0.00    -0.026 A 
HETATM   27  C7  UNL     1      24.783   1.885  53.059  1.00  0.00     0.015 A 
HETATM   28  C8  UNL     1      25.986   1.890  53.764  1.00  0.00     0.037 A 
HETATM   29  C9  UNL     1      26.432   0.780  54.444  1.00  0.00     0.068 A 
HETATM   30  C11 UNL     1      25.675  -0.389  54.439  1.00  0.00     0.037 A 
HETATM   31  C12 UNL     1      24.472  -0.434  53.747  1.00  0.00     0.015 A 
BRANCH  29  32
HETATM   32  O1  UNL     1      27.614   0.734  55.157  1.00  0.00    -0.356 OA
HETATM   33  C10 UNL     1      28.853   0.374  54.571  1.00  0.00     0.210 C 
ENDBRANCH  29  32
ENDBRANCH   5  26
TORSDOF 7
ENDMDL
MODEL 8
REMARK VINA RESULT:      -7.8      4.355      9.446
REMARK  7 active torsions:
REMARK  status: ('A' for Active; 'I' for Inactive)
REMARK    1  A    between atoms: N1_2  and  C2_3 
REMARK    2  A    between atoms: C5_7  and  C6_8 
REMARK    3  A    between atoms: C9_11  and  O1_12 
REMARK    4  A    between atoms: C16_19  and  P1_20 
REMARK    5  A    between atoms: C19_23  and  C20_24 
REMARK    6  A    between atoms: C20_24  and  C21_25 
REMARK    7  A    between atoms: C21_25  and  O3_27 
ROOT
HETATM    1  C2  UNL     1      22.384   4.425  50.655  1.00  0.00     0.332 C 
HETATM    2  N2  UNL     1      23.021   5.683  50.345  1.00  0.00    -0.359 N 
HETATM    3  C3  UNL     1      24.385   5.387  50.008  1.00  0.00     0.037 A 
HETATM    4  C4  UNL     1      25.303   6.065  49.231  1.00  0.00     0.042 A 
HETATM    5  C5  UNL     1      26.575   5.522  49.085  1.00  0.00    -0.024 A 
HETATM    6  C13 UNL     1      26.887   4.332  49.709  1.00  0.00     0.013 A 
HETATM    7  C14 UNL     1      25.950   3.692  50.469  1.00  0.00     0.011 A 
HETATM    8  C15 UNL     1      24.662   4.192  50.650  1.00  0.00    -0.019 A 
HETATM    9  C16 UNL     1      23.494   3.712  51.398  1.00  0.00     0.103 C 
HETATM   10  H6  UNL     1      22.585   6.632  50.359  1.00  0.00     0.162 HD
ENDROOT
BRANCH   9  11
HETATM   11  P1  UNL     1      23.162   1.978  51.271  1.00  0.00    -0.083 P 
HETATM   12  C17 UNL     1      23.999   0.968  52.163  1.00  0.00    -0.051 A 
HETATM   13  C18 UNL     1      25.455   0.647  52.098  1.00  0.00     0.049 C 
HETATM   14  C19 UNL     1      22.971   0.443  53.055  1.00  0.00    -0.035 A 
HETATM   15  C22 UNL     1      22.103   1.218  52.437  1.00  0.00    -0.051 A 
HETATM   16  C23 UNL     1      20.641   1.453  52.599  1.00  0.00     0.049 C 
HETATM   17  H18 UNL     1      22.956   1.501  49.959  1.00  0.00     0.063 HD
BRANCH  14  18
HETATM   18  C20 UNL     1      22.887  -0.523  54.171  1.00  0.00     0.149 C 
BRANCH  18  19
HETATM   19  C21 UNL     1      21.562  -1.165  54.270  1.00  0.00     0.143 C 
HETATM   20  O2  UNL     1      21.502  -2.076  55.131  1.00  0.00    -0.650 OA
BRANCH  19  21
HETATM   21  O3  UNL     1      20.276  -1.674  54.256  1.00  0.00    -0.776 OA
HETATM   22  H24 UNL     1      19.539  -1.253  53.676  1.00  0.00     0.167 HD
ENDBRANCH  19  21
ENDBRANCH  18  19
ENDBRANCH  14  18
ENDBRANCH   9  11
BRANCH   1  23
HETATM   23  N1  UNL     1      21.147   4.492  51.310  1.00  0.00     0.103 N 
HETATM   24  C1  UNL     1      19.968   4.630  50.539  1.00  0.00     0.309 C 
HETATM   25  H4  UNL     1      21.093   3.788  52.048  1.00  0.00     0.318 HD
ENDBRANCH   1  23
BRANCH   5  26
HETATM   26  C6  UNL     1      27.607   6.173  48.282  1.00  0.00    -0.026 A 
HETATM   27  C7  UNL     1      28.848   5.565  48.327  1.00  0.00     0.015 A 
HETATM   28  C8  UNL     1      29.860   6.157  47.572  1.00  0.00     0.037 A 
HETATM   29  C9  UNL     1      29.637   7.287  46.820  1.00  0.00     0.068 A 
HETATM   30  C11 UNL     1      28.373   7.871  46.800  1.00  0.00     0.037 A 
HETATM   31  C12 UNL     1      27.338   7.311  47.539  1.00  0.00     0.015 A 
BRANCH  29  32
HETATM   32  O1  UNL     1      30.605   7.911  46.056  1.00  0.00    -0.356 OA
HETATM   33  C10 UNL     1      30.305   8.635  44.876  1.00  0.00     0.210 C 
ENDBRANCH  29  32
ENDBRANCH   5  26
TORSDOF 7
ENDMDL
MODEL 9
REMARK VINA RESULT:      -7.7      4.108     10.654
REMARK  7 active torsions:
REMARK  status: ('A' for Active; 'I' for Inactive)
REMARK    1  A    between atoms: N1_2  and  C2_3 
REMARK    2  A    between atoms: C5_7  and  C6_8 
REMARK    3  A    between atoms: C9_11  and  O1_12 
REMARK    4  A    between atoms: C16_19  and  P1_20 
REMARK    5  A    between atoms: C19_23  and  C20_24 
REMARK    6  A    between atoms: C20_24  and  C21_25 
REMARK    7  A    between atoms: C21_25  and  O3_27 
ROOT
HETATM    1  C2  UNL     1      15.624  -0.309  52.733  1.00  0.00     0.332 C 
HETATM    2  N2  UNL     1      16.786  -1.038  53.183  1.00  0.00    -0.359 N 
HETATM    3  C3  UNL     1      17.919  -0.477  52.501  1.00  0.00     0.037 A 
HETATM    4  C4  UNL     1      19.259  -0.440  52.832  1.00  0.00     0.042 A 
HETATM    5  C5  UNL     1      20.139   0.187  51.956  1.00  0.00    -0.024 A 
HETATM    6  C13 UNL     1      19.660   0.751  50.791  1.00  0.00     0.013 A 
HETATM    7  C14 UNL     1      18.327   0.693  50.501  1.00  0.00     0.011 A 
HETATM    8  C15 UNL     1      17.402   0.078  51.343  1.00  0.00    -0.019 A 
HETATM    9  C16 UNL     1      15.950  -0.118  51.266  1.00  0.00     0.103 C 
HETATM   10  H6  UNL     1      16.812  -1.824  53.871  1.00  0.00     0.162 HD
ENDROOT
BRANCH   9  11
HETATM   11  P1  UNL     1      15.016   1.280  50.714  1.00  0.00    -0.083 P 
HETATM   12  C17 UNL     1      13.457   1.326  51.005  1.00  0.00    -0.051 A 
HETATM   13  C18 UNL     1      12.377   0.448  50.464  1.00  0.00     0.049 C 
HETATM   14  C19 UNL     1      13.365   2.446  51.934  1.00  0.00    -0.035 A 
HETATM   15  C22 UNL     1      14.671   2.581  51.831  1.00  0.00    -0.051 A 
HETATM   16  C23 UNL     1      15.657   3.519  52.436  1.00  0.00     0.049 C 
HETATM   17  H18 UNL     1      15.340   1.746  49.422  1.00  0.00     0.063 HD
BRANCH  14  18
HETATM   18  C20 UNL     1      12.307   3.154  52.686  1.00  0.00     0.149 C 
BRANCH  18  19
HETATM   19  C21 UNL     1      12.233   2.734  54.099  1.00  0.00     0.143 C 
HETATM   20  O2  UNL     1      12.509   1.524  54.284  1.00  0.00    -0.650 OA
BRANCH  19  21
HETATM   21  O3  UNL     1      12.125   2.480  55.454  1.00  0.00    -0.776 OA
HETATM   22  H24 UNL     1      11.304   2.003  55.847  1.00  0.00     0.167 HD
ENDBRANCH  19  21
ENDBRANCH  18  19
ENDBRANCH  14  18
ENDBRANCH   9  11
BRANCH   1  23
HETATM   23  N1  UNL     1      14.376  -0.878  53.018  1.00  0.00     0.103 N 
HETATM   24  C1  UNL     1      14.060  -2.149  52.478  1.00  0.00     0.309 C 
HETATM   25  H4  UNL     1      14.149  -0.769  54.007  1.00  0.00     0.318 HD
ENDBRANCH   1  23
BRANCH   5  26
HETATM   26  C6  UNL     1      21.572   0.271  52.227  1.00  0.00    -0.026 A 
HETATM   27  C7  UNL     1      22.039  -0.626  53.169  1.00  0.00     0.015 A 
HETATM   28  C8  UNL     1      23.403  -0.576  53.455  1.00  0.00     0.037 A 
HETATM   29  C9  UNL     1      24.242   0.319  52.831  1.00  0.00     0.068 A 
HETATM   30  C11 UNL     1      23.734   1.207  51.887  1.00  0.00     0.037 A 
HETATM   31  C12 UNL     1      22.380   1.189  51.576  1.00  0.00     0.015 A 
BRANCH  29  32
HETATM   32  O1  UNL     1      25.599   0.407  53.079  1.00  0.00    -0.356 OA
HETATM   33  C10 UNL     1      26.578  -0.097  52.187  1.00  0.00     0.210 C 
ENDBRANCH  29  32
ENDBRANCH   5  26
TORSDOF 7
ENDMDL
