MODEL 1
REMARK VINA RESULT:      -8.8      0.000      0.000
REMARK  9 active torsions:
REMARK  status: ('A' for Active; 'I' for Inactive)
REMARK    1  A    between atoms: C3_3  and  C4_4 
REMARK    2  A    between atoms: C4_4  and  C5_5 
REMARK    3  A    between atoms: C10_12  and  C11_13 
REMARK    4  A    between atoms: C11_13  and  O2_14 
REMARK    5  A    between atoms: C15_20  and  C16_21 
REMARK    6  A    between atoms: C16_21  and  C17_22 
REMARK    7  A    between atoms: C17_22  and  C18_23 
REMARK    8  A    between atoms: C18_23  and  C19_24 
REMARK    9  A    between atoms: C19_24  and  O5_26 
ROOT
HETATM    1  C1  UNL     1      22.155   1.294  51.451  1.00  0.00     0.052 C 
HETATM    2  C2  UNL     1      22.107   0.389  52.639  1.00  0.00    -0.018 A 
HETATM    3  C3  UNL     1      23.217  -0.111  53.183  1.00  0.00     0.106 A 
HETATM    4  O3  UNL     1      23.090  -0.929  54.271  1.00  0.00    -0.238 OA
HETATM    5  N2  UNL     1      21.938  -1.308  54.895  1.00  0.00    -0.271 N 
HETATM    6  C14 UNL     1      20.805  -0.737  54.262  1.00  0.00     0.122 A 
HETATM    7  C15 UNL     1      20.820   0.065  53.202  1.00  0.00    -0.032 A 
HETATM    8  H12 UNL     1      21.852  -1.931  55.730  1.00  0.00     0.194 HD
ENDROOT
BRANCH   3   9
HETATM    9  C4  UNL     1      24.537   0.171  52.685  1.00  0.00     0.057 C 
BRANCH   9  10
HETATM   10  C5  UNL     1      25.641   0.722  53.110  1.00  0.00     0.047 A 
HETATM   11  C6  UNL     1      25.409   2.085  53.418  1.00  0.00     0.257 A 
HETATM   12  O1  UNL     1      24.807   3.209  53.587  1.00  0.00    -0.267 OA
HETATM   13  N1  UNL     1      26.744   2.552  53.844  1.00  0.00    -0.322 N 
HETATM   14  C7  UNL     1      27.674   1.446  53.764  1.00  0.00     0.046 A 
HETATM   15  H5  UNL     1      27.288   3.388  54.192  1.00  0.00     0.169 HD
HETATM   16  C8  UNL     1      29.002   1.124  53.982  1.00  0.00     0.031 A 
HETATM   17  C13 UNL     1      27.006   0.300  53.309  1.00  0.00     0.007 A 
HETATM   18  C9  UNL     1      29.657  -0.052  53.824  1.00  0.00     0.011 A 
HETATM   19  C10 UNL     1      28.872  -1.101  53.368  1.00  0.00    -0.034 A 
HETATM   20  C12 UNL     1      27.508  -0.965  53.090  1.00  0.00     0.024 A 
BRANCH  19  21
HETATM   21  C11 UNL     1      29.515  -2.426  53.160  1.00  0.00     0.202 C 
BRANCH  21  22
HETATM   22  O2  UNL     1      28.655  -3.479  53.422  1.00  0.00    -0.396 OA
HETATM   23  H10 UNL     1      29.168  -4.333  53.369  1.00  0.00     0.209 HD
ENDBRANCH  21  22
ENDBRANCH  19  21
ENDBRANCH   9  10
ENDBRANCH   3   9
BRANCH   7  24
HETATM   24  C16 UNL     1      19.632   0.616  52.524  1.00  0.00     0.041 C 
BRANCH  24  25
HETATM   25  C17 UNL     1      18.794  -0.487  51.918  1.00  0.00     0.015 C 
BRANCH  25  26
HETATM   26  C18 UNL     1      17.409  -0.524  52.466  1.00  0.00     0.110 C 
BRANCH  26  27
HETATM   27  C19 UNL     1      17.033  -1.858  53.003  1.00  0.00     0.139 C 
HETATM   28  O4  UNL     1      16.146  -2.608  52.532  1.00  0.00    -0.650 OA
BRANCH  27  29
HETATM   29  O5  UNL     1      17.764  -2.245  54.119  1.00  0.00    -0.776 OA
HETATM   30  H20 UNL     1      17.347  -2.611  54.979  1.00  0.00     0.167 HD
ENDBRANCH  27  29
ENDBRANCH  26  27
ENDBRANCH  25  26
ENDBRANCH  24  25
ENDBRANCH   7  24
TORSDOF 9
ENDMDL
MODEL 2
REMARK VINA RESULT:      -8.6      4.037      7.471
REMARK  9 active torsions:
REMARK  status: ('A' for Active; 'I' for Inactive)
REMARK    1  A    between atoms: C3_3  and  C4_4 
REMARK    2  A    between atoms: C4_4  and  C5_5 
REMARK    3  A    between atoms: C10_12  and  C11_13 
REMARK    4  A    between atoms: C11_13  and  O2_14 
REMARK    5  A    between atoms: C15_20  and  C16_21 
REMARK    6  A    between atoms: C16_21  and  C17_22 
REMARK    7  A    between atoms: C17_22  and  C18_23 
REMARK    8  A    between atoms: C18_23  and  C19_24 
REMARK    9  A    between atoms: C19_24  and  O5_26 
ROOT
HETATM    1  C1  UNL     1      26.563   1.356  51.515  1.00  0.00     0.052 C 
HETATM    2  C2  UNL     1      25.229   1.005  52.089  1.00  0.00    -0.018 A 
HETATM    3  C3  UNL     1      24.106   1.570  51.646  1.00  0.00     0.106 A 
HETATM    4  O3  UNL     1      22.924   1.192  52.221  1.00  0.00    -0.238 OA
HETATM    5  N2  UNL     1      22.739   0.280  53.217  1.00  0.00    -0.271 N 
HETATM    6  C14 UNL     1      23.976  -0.276  53.634  1.00  0.00     0.122 A 
HETATM    7  C15 UNL     1      25.174   0.024  53.144  1.00  0.00    -0.032 A 
HETATM    8  H12 UNL     1      21.830  -0.004  53.647  1.00  0.00     0.194 HD
ENDROOT
BRANCH   3   9
HETATM    9  C4  UNL     1      24.077   2.550  50.593  1.00  0.00     0.057 C 
BRANCH   9  10
HETATM   10  C5  UNL     1      24.211   3.842  50.461  1.00  0.00     0.047 A 
HETATM   11  C6  UNL     1      23.064   4.497  50.973  1.00  0.00     0.257 A 
HETATM   12  O1  UNL     1      21.920   4.693  51.528  1.00  0.00    -0.267 OA
HETATM   13  N1  UNL     1      23.365   5.921  50.718  1.00  0.00    -0.322 N 
HETATM   14  C7  UNL     1      24.660   6.018  50.078  1.00  0.00     0.046 A 
HETATM   15  H5  UNL     1      22.999   6.906  50.827  1.00  0.00     0.169 HD
HETATM   16  C8  UNL     1      25.555   6.943  49.572  1.00  0.00     0.031 A 
HETATM   17  C13 UNL     1      25.200   4.735  49.910  1.00  0.00     0.007 A 
HETATM   18  C9  UNL     1      26.769   6.765  48.996  1.00  0.00     0.011 A 
HETATM   19  C10 UNL     1      27.178   5.443  48.894  1.00  0.00    -0.034 A 
HETATM   20  C12 UNL     1      26.405   4.370  49.349  1.00  0.00     0.024 A 
BRANCH  19  21
HETATM   21  C11 UNL     1      28.496   5.159  48.267  1.00  0.00     0.202 C 
BRANCH  21  22
HETATM   22  O2  UNL     1      29.558   5.514  49.083  1.00  0.00    -0.396 OA
HETATM   23  H10 UNL     1      29.478   6.482  49.310  1.00  0.00     0.209 HD
ENDBRANCH  21  22
ENDBRANCH  19  21
ENDBRANCH   9  10
ENDBRANCH   3   9
BRANCH   7  24
HETATM   24  C16 UNL     1      26.458  -0.528  53.617  1.00  0.00     0.041 C 
BRANCH  24  25
HETATM   25  C17 UNL     1      26.945   0.209  54.844  1.00  0.00     0.015 C 
BRANCH  25  26
HETATM   26  C18 UNL     1      28.427   0.169  54.989  1.00  0.00     0.110 C 
BRANCH  26  27
HETATM   27  C19 UNL     1      29.110   1.279  54.274  1.00  0.00     0.139 C 
HETATM   28  O4  UNL     1      28.812   2.493  54.362  1.00  0.00    -0.650 OA
BRANCH  27  29
HETATM   29  O5  UNL     1      30.156   0.867  53.458  1.00  0.00    -0.776 OA
HETATM   30  H20 UNL     1      30.295   1.190  52.496  1.00  0.00     0.167 HD
ENDBRANCH  27  29
ENDBRANCH  26  27
ENDBRANCH  25  26
ENDBRANCH  24  25
ENDBRANCH   7  24
TORSDOF 9
ENDMDL
MODEL 3
REMARK VINA RESULT:      -8.5      4.517      8.067
REMARK  9 active torsions:
REMARK  status: ('A' for Active; 'I' for Inactive)
REMARK    1  A    between atoms: C3_3  and  C4_4 
REMARK    2  A    between atoms: C4_4  and  C5_5 
REMARK    3  A    between atoms: C10_12  and  C11_13 
REMARK    4  A    between atoms: C11_13  and  O2_14 
REMARK    5  A    between atoms: C15_20  and  C16_21 
REMARK    6  A    between atoms: C16_21  and  C17_22 
REMARK    7  A    between atoms: C17_22  and  C18_23 
REMARK    8  A    between atoms: C18_23  and  C19_24 
REMARK    9  A    between atoms: C19_24  and  O5_26 
ROOT
HETATM    1  C1  UNL     1      26.079   3.313  49.380  1.00  0.00     0.052 C 
HETATM    2  C2  UNL     1      25.325   4.320  50.186  1.00  0.00    -0.018 A 
HETATM    3  C3  UNL     1      24.408   3.955  51.081  1.00  0.00     0.106 A 
HETATM    4  O3  UNL     1      23.764   4.937  51.781  1.00  0.00    -0.238 OA
HETATM    5  N2  UNL     1      23.946   6.285  51.682  1.00  0.00    -0.271 N 
HETATM    6  C14 UNL     1      24.935   6.594  50.712  1.00  0.00     0.122 A 
HETATM    7  C15 UNL     1      25.614   5.718  49.979  1.00  0.00    -0.032 A 
HETATM    8  H12 UNL     1      23.451   7.027  52.225  1.00  0.00     0.194 HD
ENDROOT
BRANCH   3   9
HETATM    9  C4  UNL     1      24.069   2.583  51.350  1.00  0.00     0.057 C 
BRANCH   9  10
HETATM   10  C5  UNL     1      24.343   1.668  52.239  1.00  0.00     0.047 A 
HETATM   11  C6  UNL     1      23.195   0.875  52.481  1.00  0.00     0.257 A 
HETATM   12  O1  UNL     1      21.999   0.408  52.400  1.00  0.00    -0.267 OA
HETATM   13  N1  UNL     1      23.665  -0.069  53.516  1.00  0.00    -0.322 N 
HETATM   14  C7  UNL     1      25.051   0.222  53.818  1.00  0.00     0.046 A 
HETATM   15  H5  UNL     1      23.381  -0.885  54.124  1.00  0.00     0.169 HD
HETATM   16  C8  UNL     1      26.100  -0.197  54.617  1.00  0.00     0.031 A 
HETATM   17  C13 UNL     1      25.489   1.299  53.034  1.00  0.00     0.007 A 
HETATM   18  C9  UNL     1      27.370   0.268  54.712  1.00  0.00     0.011 A 
HETATM   19  C10 UNL     1      27.664   1.337  53.878  1.00  0.00    -0.034 A 
HETATM   20  C12 UNL     1      26.730   1.898  53.002  1.00  0.00     0.024 A 
BRANCH  19  21
HETATM   21  C11 UNL     1      29.035   1.912  53.926  1.00  0.00     0.202 C 
BRANCH  21  22
HETATM   22  O2  UNL     1      29.203   2.954  53.029  1.00  0.00    -0.396 OA
HETATM   23  H10 UNL     1      28.392   3.012  52.450  1.00  0.00     0.209 HD
ENDBRANCH  21  22
ENDBRANCH  19  21
ENDBRANCH   9  10
ENDBRANCH   3   9
BRANCH   7  24
HETATM   24  C16 UNL     1      26.608   6.052  48.941  1.00  0.00     0.041 C 
BRANCH  24  25
HETATM   25  C17 UNL     1      26.529   7.515  48.569  1.00  0.00     0.015 C 
BRANCH  25  26
HETATM   26  C18 UNL     1      27.664   8.310  49.116  1.00  0.00     0.110 C 
BRANCH  26  27
HETATM   27  C19 UNL     1      27.220   9.492  49.900  1.00  0.00     0.139 C 
HETATM   28  O4  UNL     1      26.509  10.429  49.466  1.00  0.00    -0.650 OA
BRANCH  27  29
HETATM   29  O5  UNL     1      27.665   9.497  51.216  1.00  0.00    -0.776 OA
HETATM   30  H20 UNL     1      28.275  10.217  51.613  1.00  0.00     0.167 HD
ENDBRANCH  27  29
ENDBRANCH  26  27
ENDBRANCH  25  26
ENDBRANCH  24  25
ENDBRANCH   7  24
TORSDOF 9
ENDMDL
MODEL 4
REMARK VINA RESULT:      -8.4      4.100      7.735
REMARK  9 active torsions:
REMARK  status: ('A' for Active; 'I' for Inactive)
REMARK    1  A    between atoms: C3_3  and  C4_4 
REMARK    2  A    between atoms: C4_4  and  C5_5 
REMARK    3  A    between atoms: C10_12  and  C11_13 
REMARK    4  A    between atoms: C11_13  and  O2_14 
REMARK    5  A    between atoms: C15_20  and  C16_21 
REMARK    6  A    between atoms: C16_21  and  C17_22 
REMARK    7  A    between atoms: C17_22  and  C18_23 
REMARK    8  A    between atoms: C18_23  and  C19_24 
REMARK    9  A    between atoms: C19_24  and  O5_26 
ROOT
HETATM    1  C1  UNL     1      24.215   3.231  49.465  1.00  0.00     0.052 C 
HETATM    2  C2  UNL     1      24.203   4.343  50.463  1.00  0.00    -0.018 A 
HETATM    3  C3  UNL     1      23.732   4.168  51.698  1.00  0.00     0.106 A 
HETATM    4  O3  UNL     1      23.759   5.234  52.555  1.00  0.00    -0.238 OA
HETATM    5  N2  UNL     1      24.224   6.491  52.303  1.00  0.00    -0.271 N 
HETATM    6  C14 UNL     1      24.708   6.597  50.974  1.00  0.00     0.122 A 
HETATM    7  C15 UNL     1      24.724   5.627  50.066  1.00  0.00    -0.032 A 
HETATM    8  H12 UNL     1      24.244   7.297  52.967  1.00  0.00     0.194 HD
ENDROOT
BRANCH   3   9
HETATM    9  C4  UNL     1      23.204   2.917  52.173  1.00  0.00     0.057 C 
BRANCH   9  10
HETATM   10  C5  UNL     1      23.653   1.753  52.557  1.00  0.00     0.047 A 
HETATM   11  C6  UNL     1      22.583   0.828  52.633  1.00  0.00     0.257 A 
HETATM   12  O1  UNL     1      21.402   0.324  52.558  1.00  0.00    -0.267 OA
HETATM   13  N1  UNL     1      23.252  -0.402  53.105  1.00  0.00    -0.322 N 
HETATM   14  C7  UNL     1      24.664  -0.130  53.276  1.00  0.00     0.046 A 
HETATM   15  H5  UNL     1      23.100  -1.415  53.364  1.00  0.00     0.169 HD
HETATM   16  C8  UNL     1      25.849  -0.734  53.658  1.00  0.00     0.031 A 
HETATM   17  C13 UNL     1      24.931   1.205  52.940  1.00  0.00     0.007 A 
HETATM   18  C9  UNL     1      27.105  -0.231  53.732  1.00  0.00     0.011 A 
HETATM   19  C10 UNL     1      27.222   1.104  53.371  1.00  0.00    -0.034 A 
HETATM   20  C12 UNL     1      26.133   1.879  52.960  1.00  0.00     0.024 A 
BRANCH  19  21
HETATM   21  C11 UNL     1      28.567   1.735  53.433  1.00  0.00     0.202 C 
BRANCH  21  22
HETATM   22  O2  UNL     1      28.585   2.999  52.865  1.00  0.00    -0.396 OA
HETATM   23  H10 UNL     1      27.665   3.383  52.912  1.00  0.00     0.209 HD
ENDBRANCH  21  22
ENDBRANCH  19  21
ENDBRANCH   9  10
ENDBRANCH   3   9
BRANCH   7  24
HETATM   24  C16 UNL     1      25.187   5.762  48.672  1.00  0.00     0.041 C 
BRANCH  24  25
HETATM   25  C17 UNL     1      26.626   6.222  48.622  1.00  0.00     0.015 C 
BRANCH  25  26
HETATM   26  C18 UNL     1      27.592   5.087  48.606  1.00  0.00     0.110 C 
BRANCH  26  27
HETATM   27  C19 UNL     1      29.002   5.528  48.439  1.00  0.00     0.139 C 
HETATM   28  O4  UNL     1      29.909   4.871  47.877  1.00  0.00    -0.650 OA
BRANCH  27  29
HETATM   29  O5  UNL     1      29.268   6.782  48.975  1.00  0.00    -0.776 OA
HETATM   30  H20 UNL     1      29.941   6.954  49.727  1.00  0.00     0.167 HD
ENDBRANCH  27  29
ENDBRANCH  26  27
ENDBRANCH  25  26
ENDBRANCH  24  25
ENDBRANCH   7  24
TORSDOF 9
ENDMDL
MODEL 5
REMARK VINA RESULT:      -8.3      5.116      6.648
REMARK  9 active torsions:
REMARK  status: ('A' for Active; 'I' for Inactive)
REMARK    1  A    between atoms: C3_3  and  C4_4 
REMARK    2  A    between atoms: C4_4  and  C5_5 
REMARK    3  A    between atoms: C10_12  and  C11_13 
REMARK    4  A    between atoms: C11_13  and  O2_14 
REMARK    5  A    between atoms: C15_20  and  C16_21 
REMARK    6  A    between atoms: C16_21  and  C17_22 
REMARK    7  A    between atoms: C17_22  and  C18_23 
REMARK    8  A    between atoms: C18_23  and  C19_24 
REMARK    9  A    between atoms: C19_24  and  O5_26 
ROOT
HETATM    1  C1  UNL     1      23.709   2.569  50.575  1.00  0.00     0.052 C 
HETATM    2  C2  UNL     1      25.005   2.478  51.313  1.00  0.00    -0.018 A 
HETATM    3  C3  UNL     1      26.135   2.970  50.806  1.00  0.00     0.106 A 
HETATM    4  O3  UNL     1      27.279   2.850  51.545  1.00  0.00    -0.238 OA
HETATM    5  N2  UNL     1      27.418   2.278  52.774  1.00  0.00    -0.271 N 
HETATM    6  C14 UNL     1      26.176   1.780  53.247  1.00  0.00     0.122 A 
HETATM    7  C15 UNL     1      25.013   1.843  52.608  1.00  0.00    -0.032 A 
HETATM    8  H12 UNL     1      28.297   2.195  53.333  1.00  0.00     0.194 HD
ENDROOT
BRANCH   3   9
HETATM    9  C4  UNL     1      26.207   3.623  49.526  1.00  0.00     0.057 C 
BRANCH   9  10
HETATM   10  C5  UNL     1      26.391   4.827  49.056  1.00  0.00     0.047 A 
HETATM   11  C6  UNL     1      25.168   5.540  49.075  1.00  0.00     0.257 A 
HETATM   12  O1  UNL     1      23.929   5.827  49.268  1.00  0.00    -0.267 OA
HETATM   13  N1  UNL     1      25.545   6.844  48.490  1.00  0.00    -0.322 N 
HETATM   14  C7  UNL     1      26.956   6.821  48.167  1.00  0.00     0.046 A 
HETATM   15  H5  UNL     1      25.181   7.798  48.219  1.00  0.00     0.169 HD
HETATM   16  C8  UNL     1      27.961   7.606  47.632  1.00  0.00     0.031 A 
HETATM   17  C13 UNL     1      27.498   5.575  48.511  1.00  0.00     0.007 A 
HETATM   18  C9  UNL     1      29.273   7.334  47.430  1.00  0.00     0.011 A 
HETATM   19  C10 UNL     1      29.672   6.062  47.817  1.00  0.00    -0.034 A 
HETATM   20  C12 UNL     1      28.795   5.127  48.376  1.00  0.00     0.024 A 
BRANCH  19  21
HETATM   21  C11 UNL     1      31.096   5.680  47.622  1.00  0.00     0.202 C 
BRANCH  21  22
HETATM   22  O2  UNL     1      31.577   4.887  48.652  1.00  0.00    -0.396 OA
HETATM   23  H10 UNL     1      32.204   4.211  48.269  1.00  0.00     0.209 HD
ENDBRANCH  21  22
ENDBRANCH  19  21
ENDBRANCH   9  10
ENDBRANCH   3   9
BRANCH   7  24
HETATM   24  C16 UNL     1      23.737   1.281  53.089  1.00  0.00     0.041 C 
BRANCH  24  25
HETATM   25  C17 UNL     1      23.840  -0.216  53.272  1.00  0.00     0.015 C 
BRANCH  25  26
HETATM   26  C18 UNL     1      22.508  -0.885  53.299  1.00  0.00     0.110 C 
BRANCH  26  27
HETATM   27  C19 UNL     1      21.972  -1.053  54.675  1.00  0.00     0.139 C 
HETATM   28  O4  UNL     1      22.408  -1.855  55.534  1.00  0.00    -0.650 OA
BRANCH  27  29
HETATM   29  O5  UNL     1      20.898  -0.221  54.968  1.00  0.00    -0.776 OA
HETATM   30  H20 UNL     1      20.470  -0.142  55.894  1.00  0.00     0.167 HD
ENDBRANCH  27  29
ENDBRANCH  26  27
ENDBRANCH  25  26
ENDBRANCH  24  25
ENDBRANCH   7  24
TORSDOF 9
ENDMDL
MODEL 6
REMARK VINA RESULT:      -8.1      4.777      7.755
REMARK  9 active torsions:
REMARK  status: ('A' for Active; 'I' for Inactive)
REMARK    1  A    between atoms: C3_3  and  C4_4 
REMARK    2  A    between atoms: C4_4  and  C5_5 
REMARK    3  A    between atoms: C10_12  and  C11_13 
REMARK    4  A    between atoms: C11_13  and  O2_14 
REMARK    5  A    between atoms: C15_20  and  C16_21 
REMARK    6  A    between atoms: C16_21  and  C17_22 
REMARK    7  A    between atoms: C17_22  and  C18_23 
REMARK    8  A    between atoms: C18_23  and  C19_24 
REMARK    9  A    between atoms: C19_24  and  O5_26 
ROOT
HETATM    1  C1  UNL     1      23.797   1.462  51.414  1.00  0.00     0.052 C 
HETATM    2  C2  UNL     1      25.202   1.854  51.735  1.00  0.00    -0.018 A 
HETATM    3  C3  UNL     1      25.872   2.731  50.986  1.00  0.00     0.106 A 
HETATM    4  O3  UNL     1      27.154   3.041  51.348  1.00  0.00    -0.238 OA
HETATM    5  N2  UNL     1      27.857   2.558  52.411  1.00  0.00    -0.271 N 
HETATM    6  C14 UNL     1      27.080   1.635  53.158  1.00  0.00     0.122 A 
HETATM    7  C15 UNL     1      25.832   1.264  52.890  1.00  0.00    -0.032 A 
HETATM    8  H12 UNL     1      28.835   2.805  52.682  1.00  0.00     0.194 HD
ENDROOT
BRANCH   3   9
HETATM    9  C4  UNL     1      25.312   3.368  49.824  1.00  0.00     0.057 C 
BRANCH   9  10
HETATM   10  C5  UNL     1      25.302   4.550  49.271  1.00  0.00     0.047 A 
HETATM   11  C6  UNL     1      23.968   5.007  49.139  1.00  0.00     0.257 A 
HETATM   12  O1  UNL     1      22.685   5.055  49.215  1.00  0.00    -0.267 OA
HETATM   13  N1  UNL     1      24.139   6.317  48.478  1.00  0.00    -0.322 N 
HETATM   14  C7  UNL     1      25.551   6.552  48.263  1.00  0.00     0.046 A 
HETATM   15  H5  UNL     1      23.625   7.160  48.102  1.00  0.00     0.169 HD
HETATM   16  C8  UNL     1      26.431   7.484  47.742  1.00  0.00     0.031 A 
HETATM   17  C13 UNL     1      26.289   5.464  48.750  1.00  0.00     0.007 A 
HETATM   18  C9  UNL     1      27.784   7.464  47.662  1.00  0.00     0.011 A 
HETATM   19  C10 UNL     1      28.383   6.325  48.182  1.00  0.00    -0.034 A 
HETATM   20  C12 UNL     1      27.655   5.274  48.749  1.00  0.00     0.024 A 
BRANCH  19  21
HETATM   21  C11 UNL     1      29.865   6.220  48.125  1.00  0.00     0.202 C 
BRANCH  21  22
HETATM   22  O2  UNL     1      30.405   5.724  49.301  1.00  0.00    -0.396 OA
HETATM   23  H10 UNL     1      30.572   4.746  49.188  1.00  0.00     0.209 HD
ENDBRANCH  21  22
ENDBRANCH  19  21
ENDBRANCH   9  10
ENDBRANCH   3   9
BRANCH   7  24
HETATM   24  C16 UNL     1      25.050   0.269  53.647  1.00  0.00     0.041 C 
BRANCH  24  25
HETATM   25  C17 UNL     1      25.905  -0.920  54.020  1.00  0.00     0.015 C 
BRANCH  25  26
HETATM   26  C18 UNL     1      26.587  -1.530  52.844  1.00  0.00     0.110 C 
BRANCH  26  27
HETATM   27  C19 UNL     1      27.952  -2.028  53.160  1.00  0.00     0.139 C 
HETATM   28  O4  UNL     1      28.856  -1.367  53.722  1.00  0.00    -0.650 OA
BRANCH  27  29
HETATM   29  O5  UNL     1      28.177  -3.343  52.772  1.00  0.00    -0.776 OA
HETATM   30  H20 UNL     1      27.516  -4.108  52.930  1.00  0.00     0.167 HD
ENDBRANCH  27  29
ENDBRANCH  26  27
ENDBRANCH  25  26
ENDBRANCH  24  25
ENDBRANCH   7  24
TORSDOF 9
ENDMDL
MODEL 7
REMARK VINA RESULT:      -8.0      2.479      8.571
REMARK  9 active torsions:
REMARK  status: ('A' for Active; 'I' for Inactive)
REMARK    1  A    between atoms: C3_3  and  C4_4 
REMARK    2  A    between atoms: C4_4  and  C5_5 
REMARK    3  A    between atoms: C10_12  and  C11_13 
REMARK    4  A    between atoms: C11_13  and  O2_14 
REMARK    5  A    between atoms: C15_20  and  C16_21 
REMARK    6  A    between atoms: C16_21  and  C17_22 
REMARK    7  A    between atoms: C17_22  and  C18_23 
REMARK    8  A    between atoms: C18_23  and  C19_24 
REMARK    9  A    between atoms: C19_24  and  O5_26 
ROOT
HETATM    1  C1  UNL     1      23.032  -0.502  53.123  1.00  0.00     0.052 C 
HETATM    2  C2  UNL     1      23.742   0.793  52.899  1.00  0.00    -0.018 A 
HETATM    3  C3  UNL     1      23.079   1.914  52.617  1.00  0.00     0.106 A 
HETATM    4  O3  UNL     1      23.801   3.060  52.429  1.00  0.00    -0.238 OA
HETATM    5  N2  UNL     1      25.154   3.210  52.499  1.00  0.00    -0.271 N 
HETATM    6  C14 UNL     1      25.787   1.978  52.803  1.00  0.00     0.122 A 
HETATM    7  C15 UNL     1      25.180   0.812  53.001  1.00  0.00    -0.032 A 
HETATM    8  H12 UNL     1      25.696   4.092  52.358  1.00  0.00     0.194 HD
ENDROOT
BRANCH   3   9
HETATM    9  C4  UNL     1      21.646   1.978  52.506  1.00  0.00     0.057 C 
BRANCH   9  10
HETATM   10  C5  UNL     1      20.730   1.785  51.596  1.00  0.00     0.047 A 
HETATM   11  C6  UNL     1      20.964   2.642  50.492  1.00  0.00     0.257 A 
HETATM   12  O1  UNL     1      21.510   3.520  49.728  1.00  0.00    -0.267 OA
HETATM   13  N1  UNL     1      19.838   2.322  49.590  1.00  0.00    -0.322 N 
HETATM   14  C7  UNL     1      19.017   1.303  50.210  1.00  0.00     0.046 A 
HETATM   15  H5  UNL     1      19.399   2.546  48.656  1.00  0.00     0.169 HD
HETATM   16  C8  UNL     1      17.878   0.548  49.998  1.00  0.00     0.031 A 
HETATM   17  C13 UNL     1      19.556   0.958  51.458  1.00  0.00     0.007 A 
HETATM   18  C9  UNL     1      17.291  -0.392  50.779  1.00  0.00     0.011 A 
HETATM   19  C10 UNL     1      17.931  -0.631  51.986  1.00  0.00    -0.034 A 
HETATM   20  C12 UNL     1      19.096   0.039  52.376  1.00  0.00     0.024 A 
BRANCH  19  21
HETATM   21  C11 UNL     1      17.346  -1.643  52.906  1.00  0.00     0.202 C 
BRANCH  21  22
HETATM   22  O2  UNL     1      17.586  -1.347  54.238  1.00  0.00    -0.396 OA
HETATM   23  H10 UNL     1      17.498  -2.186  54.773  1.00  0.00     0.209 HD
ENDBRANCH  21  22
ENDBRANCH  19  21
ENDBRANCH   9  10
ENDBRANCH   3   9
BRANCH   7  24
HETATM   24  C16 UNL     1      25.852  -0.472  53.271  1.00  0.00     0.041 C 
BRANCH  24  25
HETATM   25  C17 UNL     1      27.185  -0.545  52.562  1.00  0.00     0.015 C 
BRANCH  25  26
HETATM   26  C18 UNL     1      28.330  -0.693  53.505  1.00  0.00     0.110 C 
BRANCH  26  27
HETATM   27  C19 UNL     1      28.816   0.608  54.036  1.00  0.00     0.139 C 
HETATM   28  O4  UNL     1      28.696   1.001  55.220  1.00  0.00    -0.650 OA
BRANCH  27  29
HETATM   29  O5  UNL     1      29.445   1.405  53.089  1.00  0.00    -0.776 OA
HETATM   30  H20 UNL     1      30.447   1.615  53.090  1.00  0.00     0.167 HD
ENDBRANCH  27  29
ENDBRANCH  26  27
ENDBRANCH  25  26
ENDBRANCH  24  25
ENDBRANCH   7  24
TORSDOF 9
ENDMDL
MODEL 8
REMARK VINA RESULT:      -7.7      3.039      7.231
REMARK  9 active torsions:
REMARK  status: ('A' for Active; 'I' for Inactive)
REMARK    1  A    between atoms: C3_3  and  C4_4 
REMARK    2  A    between atoms: C4_4  and  C5_5 
REMARK    3  A    between atoms: C10_12  and  C11_13 
REMARK    4  A    between atoms: C11_13  and  O2_14 
REMARK    5  A    between atoms: C15_20  and  C16_21 
REMARK    6  A    between atoms: C16_21  and  C17_22 
REMARK    7  A    between atoms: C17_22  and  C18_23 
REMARK    8  A    between atoms: C18_23  and  C19_24 
REMARK    9  A    between atoms: C19_24  and  O5_26 
ROOT
HETATM    1  C1  UNL     1      22.761   2.024  49.746  1.00  0.00     0.052 C 
HETATM    2  C2  UNL     1      22.802   3.201  50.665  1.00  0.00    -0.018 A 
HETATM    3  C3  UNL     1      21.850   3.412  51.574  1.00  0.00     0.106 A 
HETATM    4  O3  UNL     1      21.961   4.510  52.381  1.00  0.00    -0.238 OA
HETATM    5  N2  UNL     1      22.953   5.446  52.378  1.00  0.00    -0.271 N 
HETATM    6  C14 UNL     1      23.925   5.154  51.387  1.00  0.00     0.122 A 
HETATM    7  C15 UNL     1      23.909   4.118  50.554  1.00  0.00    -0.032 A 
HETATM    8  H12 UNL     1      23.030   6.281  53.002  1.00  0.00     0.194 HD
ENDROOT
BRANCH   3   9
HETATM    9  C4  UNL     1      20.720   2.539  51.752  1.00  0.00     0.057 C 
BRANCH   9  10
HETATM   10  C5  UNL     1      20.455   1.390  52.310  1.00  0.00     0.047 A 
HETATM   11  C6  UNL     1      19.088   1.070  52.123  1.00  0.00     0.257 A 
HETATM   12  O1  UNL     1      17.863   1.141  51.737  1.00  0.00    -0.267 OA
HETATM   13  N1  UNL     1      18.957  -0.220  52.832  1.00  0.00    -0.322 N 
HETATM   14  C7  UNL     1      20.245  -0.580  53.388  1.00  0.00     0.046 A 
HETATM   15  H5  UNL     1      18.283  -0.992  53.089  1.00  0.00     0.169 HD
HETATM   16  C8  UNL     1      20.872  -1.567  54.127  1.00  0.00     0.031 A 
HETATM   17  C13 UNL     1      21.187   0.410  53.074  1.00  0.00     0.007 A 
HETATM   18  C9  UNL     1      22.160  -1.673  54.534  1.00  0.00     0.011 A 
HETATM   19  C10 UNL     1      22.982  -0.622  54.152  1.00  0.00    -0.034 A 
HETATM   20  C12 UNL     1      22.525   0.467  53.404  1.00  0.00     0.024 A 
BRANCH  19  21
HETATM   21  C11 UNL     1      24.410  -0.657  54.565  1.00  0.00     0.202 C 
BRANCH  21  22
HETATM   22  O2  UNL     1      25.272  -0.400  53.511  1.00  0.00    -0.396 OA
HETATM   23  H10 UNL     1      25.423   0.585  53.455  1.00  0.00     0.209 HD
ENDBRANCH  21  22
ENDBRANCH  19  21
ENDBRANCH   9  10
ENDBRANCH   3   9
BRANCH   7  24
HETATM   24  C16 UNL     1      24.901   3.850  49.497  1.00  0.00     0.041 C 
BRANCH  24  25
HETATM   25  C17 UNL     1      26.286   3.697  50.081  1.00  0.00     0.015 C 
BRANCH  25  26
HETATM   26  C18 UNL     1      26.513   2.350  50.679  1.00  0.00     0.110 C 
BRANCH  26  27
HETATM   27  C19 UNL     1      26.962   2.413  52.095  1.00  0.00     0.139 C 
HETATM   28  O4  UNL     1      28.151   2.351  52.485  1.00  0.00    -0.650 OA
BRANCH  27  29
HETATM   29  O5  UNL     1      25.926   2.551  53.010  1.00  0.00    -0.776 OA
HETATM   30  H20 UNL     1      26.056   2.567  54.025  1.00  0.00     0.167 HD
ENDBRANCH  27  29
ENDBRANCH  26  27
ENDBRANCH  25  26
ENDBRANCH  24  25
ENDBRANCH   7  24
TORSDOF 9
ENDMDL
MODEL 9
REMARK VINA RESULT:      -7.6      4.325      8.775
REMARK  9 active torsions:
REMARK  status: ('A' for Active; 'I' for Inactive)
REMARK    1  A    between atoms: C3_3  and  C4_4 
REMARK    2  A    between atoms: C4_4  and  C5_5 
REMARK    3  A    between atoms: C10_12  and  C11_13 
REMARK    4  A    between atoms: C11_13  and  O2_14 
REMARK    5  A    between atoms: C15_20  and  C16_21 
REMARK    6  A    between atoms: C16_21  and  C17_22 
REMARK    7  A    between atoms: C17_22  and  C18_23 
REMARK    8  A    between atoms: C18_23  and  C19_24 
REMARK    9  A    between atoms: C19_24  and  O5_26 
ROOT
HETATM    1  C1  UNL     1      24.414   3.580  49.041  1.00  0.00     0.052 C 
HETATM    2  C2  UNL     1      24.300   4.539  50.181  1.00  0.00    -0.018 A 
HETATM    3  C3  UNL     1      23.696   4.202  51.320  1.00  0.00     0.106 A 
HETATM    4  O3  UNL     1      23.635   5.136  52.318  1.00  0.00    -0.238 OA
HETATM    5  N2  UNL     1      24.131   6.405  52.299  1.00  0.00    -0.271 N 
HETATM    6  C14 UNL     1      24.757   6.688  51.058  1.00  0.00     0.122 A 
HETATM    7  C15 UNL     1      24.867   5.856  50.028  1.00  0.00    -0.032 A 
HETATM    8  H12 UNL     1      24.083   7.110  53.069  1.00  0.00     0.194 HD
ENDROOT
BRANCH   3   9
HETATM    9  C4  UNL     1      23.112   2.908  51.553  1.00  0.00     0.057 C 
BRANCH   9  10
HETATM   10  C5  UNL     1      23.311   1.875  52.326  1.00  0.00     0.047 A 
HETATM   11  C6  UNL     1      24.687   1.774  52.646  1.00  0.00     0.257 A 
HETATM   12  O1  UNL     1      25.944   2.037  52.709  1.00  0.00    -0.267 OA
HETATM   13  N1  UNL     1      24.736   0.557  53.482  1.00  0.00    -0.322 N 
HETATM   14  C7  UNL     1      23.397   0.019  53.604  1.00  0.00     0.046 A 
HETATM   15  H5  UNL     1      25.375  -0.077  54.036  1.00  0.00     0.169 HD
HETATM   16  C8  UNL     1      22.692  -1.021  54.183  1.00  0.00     0.031 A 
HETATM   17  C13 UNL     1      22.499   0.825  52.891  1.00  0.00     0.007 A 
HETATM   18  C9  UNL     1      21.369  -1.312  54.144  1.00  0.00     0.011 A 
HETATM   19  C10 UNL     1      20.598  -0.429  53.401  1.00  0.00    -0.034 A 
HETATM   20  C12 UNL     1      21.136   0.680  52.741  1.00  0.00     0.024 A 
BRANCH  19  21
HETATM   21  C11 UNL     1      19.136  -0.682  53.301  1.00  0.00     0.202 C 
BRANCH  21  22
HETATM   22  O2  UNL     1      18.744  -1.806  54.010  1.00  0.00    -0.396 OA
HETATM   23  H10 UNL     1      18.712  -2.583  53.385  1.00  0.00     0.209 HD
ENDBRANCH  21  22
ENDBRANCH  19  21
ENDBRANCH   9  10
ENDBRANCH   3   9
BRANCH   7  24
HETATM   24  C16 UNL     1      25.480   6.176  48.725  1.00  0.00     0.041 C 
BRANCH  24  25
HETATM   25  C17 UNL     1      26.771   6.941  48.908  1.00  0.00     0.015 C 
BRANCH  25  26
HETATM   26  C18 UNL     1      26.553   8.405  49.080  1.00  0.00     0.110 C 
BRANCH  26  27
HETATM   27  C19 UNL     1      27.632   9.064  49.861  1.00  0.00     0.139 C 
HETATM   28  O4  UNL     1      28.838   9.127  49.527  1.00  0.00    -0.650 OA
BRANCH  27  29
HETATM   29  O5  UNL     1      27.199   9.639  51.049  1.00  0.00    -0.776 OA
HETATM   30  H20 UNL     1      27.796   9.783  51.868  1.00  0.00     0.167 HD
ENDBRANCH  27  29
ENDBRANCH  26  27
ENDBRANCH  25  26
ENDBRANCH  24  25
ENDBRANCH   7  24
TORSDOF 9
ENDMDL
