MODEL 1
REMARK VINA RESULT:      -6.6      0.000      0.000
REMARK  8 active torsions:
REMARK  status: ('A' for Active; 'I' for Inactive)
REMARK    1  A    between atoms: C2_2  and  C3_3 
REMARK    2  A    between atoms: C3_3  and  C4_4 
REMARK    3  A    between atoms: C4_4  and  N1_5 
REMARK    4  A    between atoms: N1_5  and  C5_6 
REMARK    5  A    between atoms: N1_5  and  C11_14 
REMARK    6  A    between atoms: C5_6  and  N2_8 
REMARK    7  A    between atoms: N2_8  and  C6_9 
REMARK    8  A    between atoms: C16_20  and  O1_21 
ROOT
HETATM    1  N1  UNL     1      24.172   2.072  52.036  1.00  0.00    -0.322 N 
ENDROOT
BRANCH   1   2
HETATM    2  C4  UNL     1      25.411   1.637  52.649  1.00  0.00     0.131 C 
BRANCH   2   3
HETATM    3  C3  UNL     1      26.133   0.584  51.857  1.00  0.00     0.020 C 
BRANCH   3   4
HETATM    4  C2  UNL     1      27.111  -0.219  52.667  1.00  0.00    -0.003 C 
HETATM    5  C1  UNL     1      26.800  -1.717  52.518  1.00  0.00     0.005 C 
ENDBRANCH   3   4
ENDBRANCH   2   3
ENDBRANCH   1   2
BRANCH   1   6
HETATM    6  C5  UNL     1      24.274   3.500  51.842  1.00  0.00     0.175 C 
HETATM    7  S1  UNL     1      23.338   4.600  52.611  1.00  0.00    -0.041 SA
BRANCH   6   8
HETATM    8  N2  UNL     1      25.145   4.246  51.000  1.00  0.00    -0.356 N 
HETATM    9  H10 UNL     1      25.673   4.914  51.605  1.00  0.00     0.162 HD
BRANCH   8  10
HETATM   10  C6  UNL     1      25.428   4.268  49.580  1.00  0.00     0.130 A 
HETATM   11  C7  UNL     1      26.791   3.748  49.312  1.00  0.00     0.002 A 
HETATM   12  C8  UNL     1      27.557   4.688  48.780  1.00  0.00    -0.002 A 
HETATM   13  C9  UNL     1      26.770   5.915  48.647  1.00  0.00    -0.002 A 
HETATM   14  C10 UNL     1      25.546   5.678  49.107  1.00  0.00     0.002 A 
ENDBRANCH   8  10
ENDBRANCH   6   8
ENDBRANCH   1   6
BRANCH   1  15
HETATM   15  C11 UNL     1      22.940   1.533  51.590  1.00  0.00     0.072 A 
HETATM   16  C12 UNL     1      22.782   1.743  50.214  1.00  0.00     0.033 A 
HETATM   17  C13 UNL     1      21.654   1.303  49.538  1.00  0.00     0.004 A 
HETATM   18  C14 UNL     1      20.704   0.650  50.294  1.00  0.00     0.027 A 
HETATM   19  C15 UNL     1      20.818   0.422  51.648  1.00  0.00     0.069 A 
HETATM   20 CL1  UNL     1      19.613  -0.406  52.609  1.00  0.00    -0.081 Cl
HETATM   21  C16 UNL     1      21.952   0.873  52.289  1.00  0.00     0.116 A 
BRANCH  21  22
HETATM   22  O1  UNL     1      22.216   0.727  53.622  1.00  0.00    -0.352 OA
HETATM   23  C17 UNL     1      22.742  -0.478  54.157  1.00  0.00     0.210 C 
ENDBRANCH  21  22
ENDBRANCH   1  15
TORSDOF 8
ENDMDL
MODEL 2
REMARK VINA RESULT:      -6.6      2.934      6.645
REMARK  8 active torsions:
REMARK  status: ('A' for Active; 'I' for Inactive)
REMARK    1  A    between atoms: C2_2  and  C3_3 
REMARK    2  A    between atoms: C3_3  and  C4_4 
REMARK    3  A    between atoms: C4_4  and  N1_5 
REMARK    4  A    between atoms: N1_5  and  C5_6 
REMARK    5  A    between atoms: N1_5  and  C11_14 
REMARK    6  A    between atoms: C5_6  and  N2_8 
REMARK    7  A    between atoms: N2_8  and  C6_9 
REMARK    8  A    between atoms: C16_20  and  O1_21 
ROOT
HETATM    1  N1  UNL     1      26.056   1.976  51.916  1.00  0.00    -0.322 N 
ENDROOT
BRANCH   1   2
HETATM    2  C4  UNL     1      25.701   2.448  50.592  1.00  0.00     0.131 C 
BRANCH   2   3
HETATM    3  C3  UNL     1      26.674   3.448  50.033  1.00  0.00     0.020 C 
BRANCH   3   4
HETATM    4  C2  UNL     1      26.018   4.638  49.392  1.00  0.00    -0.003 C 
HETATM    5  C1  UNL     1      27.076   5.487  48.670  1.00  0.00     0.005 C 
ENDBRANCH   3   4
ENDBRANCH   2   3
ENDBRANCH   1   2
BRANCH   1   6
HETATM    6  C5  UNL     1      24.879   2.112  52.743  1.00  0.00     0.175 C 
HETATM    7  S1  UNL     1      24.043   3.505  52.928  1.00  0.00    -0.041 SA
BRANCH   6   8
HETATM    8  N2  UNL     1      24.208   1.142  53.539  1.00  0.00    -0.356 N 
HETATM    9  H10 UNL     1      24.319   1.423  54.539  1.00  0.00     0.162 HD
BRANCH   8  10
HETATM   10  C6  UNL     1      23.457  -0.066  53.266  1.00  0.00     0.130 A 
HETATM   11  C7  UNL     1      22.018   0.243  53.086  1.00  0.00     0.002 A 
HETATM   12  C8  UNL     1      21.290  -0.338  54.027  1.00  0.00    -0.002 A 
HETATM   13  C9  UNL     1      22.182  -1.086  54.915  1.00  0.00    -0.002 A 
HETATM   14  C10 UNL     1      23.428  -0.932  54.482  1.00  0.00     0.002 A 
ENDBRANCH   8  10
ENDBRANCH   6   8
ENDBRANCH   1   6
BRANCH   1  15
HETATM   15  C11 UNL     1      27.170   1.445  52.610  1.00  0.00     0.072 A 
HETATM   16  C12 UNL     1      27.815   2.448  53.344  1.00  0.00     0.033 A 
HETATM   17  C13 UNL     1      28.937   2.178  54.114  1.00  0.00     0.004 A 
HETATM   18  C14 UNL     1      29.376   0.872  54.114  1.00  0.00     0.027 A 
HETATM   19  C15 UNL     1      28.773  -0.146  53.408  1.00  0.00     0.069 A 
HETATM   20 CL1  UNL     1      29.331  -1.805  53.409  1.00  0.00    -0.081 Cl
HETATM   21  C16 UNL     1      27.661   0.157  52.654  1.00  0.00     0.116 A 
BRANCH  21  22
HETATM   22  O1  UNL     1      26.952  -0.735  51.900  1.00  0.00    -0.352 OA
HETATM   23  C17 UNL     1      26.477  -1.962  52.434  1.00  0.00     0.210 C 
ENDBRANCH  21  22
ENDBRANCH   1  15
TORSDOF 8
ENDMDL
MODEL 3
REMARK VINA RESULT:      -6.6      1.407      3.476
REMARK  8 active torsions:
REMARK  status: ('A' for Active; 'I' for Inactive)
REMARK    1  A    between atoms: C2_2  and  C3_3 
REMARK    2  A    between atoms: C3_3  and  C4_4 
REMARK    3  A    between atoms: C4_4  and  N1_5 
REMARK    4  A    between atoms: N1_5  and  C5_6 
REMARK    5  A    between atoms: N1_5  and  C11_14 
REMARK    6  A    between atoms: C5_6  and  N2_8 
REMARK    7  A    between atoms: N2_8  and  C6_9 
REMARK    8  A    between atoms: C16_20  and  O1_21 
ROOT
HETATM    1  N1  UNL     1      23.242   2.225  51.525  1.00  0.00    -0.322 N 
ENDROOT
BRANCH   1   2
HETATM    2  C4  UNL     1      22.180   2.402  50.554  1.00  0.00     0.131 C 
BRANCH   2   3
HETATM    3  C3  UNL     1      21.762   1.122  49.885  1.00  0.00     0.020 C 
BRANCH   3   4
HETATM    4  C2  UNL     1      21.665   1.224  48.389  1.00  0.00    -0.003 C 
HETATM    5  C1  UNL     1      22.559   2.369  47.889  1.00  0.00     0.005 C 
ENDBRANCH   3   4
ENDBRANCH   2   3
ENDBRANCH   1   2
BRANCH   1   6
HETATM    6  C5  UNL     1      23.899   3.503  51.671  1.00  0.00     0.175 C 
HETATM    7  S1  UNL     1      23.490   4.623  52.790  1.00  0.00    -0.041 SA
BRANCH   6   8
HETATM    8  N2  UNL     1      24.981   4.061  50.934  1.00  0.00    -0.356 N 
HETATM    9  H10 UNL     1      25.631   4.508  51.617  1.00  0.00     0.162 HD
BRANCH   8  10
HETATM   10  C6  UNL     1      25.338   4.131  49.532  1.00  0.00     0.130 A 
HETATM   11  C7  UNL     1      26.742   3.699  49.329  1.00  0.00     0.002 A 
HETATM   12  C8  UNL     1      27.477   4.696  48.858  1.00  0.00    -0.002 A 
HETATM   13  C9  UNL     1      26.625   5.876  48.705  1.00  0.00    -0.002 A 
HETATM   14  C10 UNL     1      25.395   5.556  49.092  1.00  0.00     0.002 A 
ENDBRANCH   8  10
ENDBRANCH   6   8
ENDBRANCH   1   6
BRANCH   1  15
HETATM   15  C11 UNL     1      23.803   1.210  52.339  1.00  0.00     0.072 A 
HETATM   16  C12 UNL     1      25.136   0.975  51.980  1.00  0.00     0.033 A 
HETATM   17  C13 UNL     1      25.908   0.026  52.634  1.00  0.00     0.004 A 
HETATM   18  C14 UNL     1      25.289  -0.668  53.651  1.00  0.00     0.027 A 
HETATM   19  C15 UNL     1      23.981  -0.470  54.037  1.00  0.00     0.069 A 
HETATM   20 CL1  UNL     1      23.195  -1.350  55.329  1.00  0.00    -0.081 Cl
HETATM   21  C16 UNL     1      23.243   0.481  53.366  1.00  0.00     0.116 A 
BRANCH  21  22
HETATM   22  O1  UNL     1      21.939   0.796  53.626  1.00  0.00    -0.352 OA
HETATM   23  C17 UNL     1      20.866  -0.021  53.183  1.00  0.00     0.210 C 
ENDBRANCH  21  22
ENDBRANCH   1  15
TORSDOF 8
ENDMDL
MODEL 4
REMARK VINA RESULT:      -6.4      3.146      6.036
REMARK  8 active torsions:
REMARK  status: ('A' for Active; 'I' for Inactive)
REMARK    1  A    between atoms: C2_2  and  C3_3 
REMARK    2  A    between atoms: C3_3  and  C4_4 
REMARK    3  A    between atoms: C4_4  and  N1_5 
REMARK    4  A    between atoms: N1_5  and  C5_6 
REMARK    5  A    between atoms: N1_5  and  C11_14 
REMARK    6  A    between atoms: C5_6  and  N2_8 
REMARK    7  A    between atoms: N2_8  and  C6_9 
REMARK    8  A    between atoms: C16_20  and  O1_21 
ROOT
HETATM    1  N1  UNL     1      24.174   3.544  50.320  1.00  0.00    -0.322 N 
ENDROOT
BRANCH   1   2
HETATM    2  C4  UNL     1      23.335   2.407  49.993  1.00  0.00     0.131 C 
BRANCH   2   3
HETATM    3  C3  UNL     1      22.747   2.476  48.612  1.00  0.00     0.020 C 
BRANCH   3   4
HETATM    4  C2  UNL     1      21.653   1.475  48.370  1.00  0.00    -0.003 C 
HETATM    5  C1  UNL     1      21.219   0.849  49.704  1.00  0.00     0.005 C 
ENDBRANCH   3   4
ENDBRANCH   2   3
ENDBRANCH   1   2
BRANCH   1   6
HETATM    6  C5  UNL     1      23.996   3.811  51.728  1.00  0.00     0.175 C 
HETATM    7  S1  UNL     1      22.664   4.512  52.369  1.00  0.00    -0.041 SA
BRANCH   6   8
HETATM    8  N2  UNL     1      24.867   3.550  52.823  1.00  0.00    -0.356 N 
HETATM    9  H10 UNL     1      25.050   4.458  53.304  1.00  0.00     0.162 HD
BRANCH   8  10
HETATM   10  C6  UNL     1      25.505   2.368  53.366  1.00  0.00     0.130 A 
HETATM   11  C7  UNL     1      26.713   2.020  52.580  1.00  0.00     0.002 A 
HETATM   12  C8  UNL     1      26.573   0.838  52.000  1.00  0.00    -0.002 A 
HETATM   13  C9  UNL     1      25.259   0.296  52.350  1.00  0.00    -0.002 A 
HETATM   14  C10 UNL     1      24.642   1.173  53.134  1.00  0.00     0.002 A 
ENDBRANCH   8  10
ENDBRANCH   6   8
ENDBRANCH   1   6
BRANCH   1  15
HETATM   15  C11 UNL     1      25.077   4.436  49.691  1.00  0.00     0.072 A 
HETATM   16  C12 UNL     1      26.331   3.832  49.532  1.00  0.00     0.033 A 
HETATM   17  C13 UNL     1      27.389   4.503  48.937  1.00  0.00     0.004 A 
HETATM   18  C14 UNL     1      27.136   5.790  48.514  1.00  0.00     0.027 A 
HETATM   19  C15 UNL     1      25.919   6.422  48.650  1.00  0.00     0.069 A 
HETATM   20 CL1  UNL     1      25.597   8.056  48.114  1.00  0.00    -0.081 Cl
HETATM   21  C16 UNL     1      24.889   5.727  49.246  1.00  0.00     0.116 A 
BRANCH  21  22
HETATM   22  O1  UNL     1      23.629   6.210  49.455  1.00  0.00    -0.352 OA
HETATM   23  C17 UNL     1      22.629   6.165  48.448  1.00  0.00     0.210 C 
ENDBRANCH  21  22
ENDBRANCH   1  15
TORSDOF 8
ENDMDL
MODEL 5
REMARK VINA RESULT:      -6.2      2.267      3.328
REMARK  8 active torsions:
REMARK  status: ('A' for Active; 'I' for Inactive)
REMARK    1  A    between atoms: C2_2  and  C3_3 
REMARK    2  A    between atoms: C3_3  and  C4_4 
REMARK    3  A    between atoms: C4_4  and  N1_5 
REMARK    4  A    between atoms: N1_5  and  C5_6 
REMARK    5  A    between atoms: N1_5  and  C11_14 
REMARK    6  A    between atoms: C5_6  and  N2_8 
REMARK    7  A    between atoms: N2_8  and  C6_9 
REMARK    8  A    between atoms: C16_20  and  O1_21 
ROOT
HETATM    1  N1  UNL     1      24.503   2.044  51.904  1.00  0.00    -0.322 N 
ENDROOT
BRANCH   1   2
HETATM    2  C4  UNL     1      24.619   0.664  52.333  1.00  0.00     0.131 C 
BRANCH   2   3
HETATM    3  C3  UNL     1      23.703   0.314  53.473  1.00  0.00     0.020 C 
BRANCH   3   4
HETATM    4  C2  UNL     1      22.729  -0.783  53.152  1.00  0.00    -0.003 C 
HETATM    5  C1  UNL     1      22.017  -1.237  54.436  1.00  0.00     0.005 C 
ENDBRANCH   3   4
ENDBRANCH   2   3
ENDBRANCH   1   2
BRANCH   1   6
HETATM    6  C5  UNL     1      25.844   2.532  51.683  1.00  0.00     0.175 C 
HETATM    7  S1  UNL     1      27.178   1.907  52.395  1.00  0.00    -0.041 SA
BRANCH   6   8
HETATM    8  N2  UNL     1      26.303   3.596  50.857  1.00  0.00    -0.356 N 
HETATM    9  H10 UNL     1      26.865   4.241  51.455  1.00  0.00     0.162 HD
BRANCH   8  10
HETATM   10  C6  UNL     1      26.160   3.941  49.457  1.00  0.00     0.130 A 
HETATM   11  C7  UNL     1      27.444   4.438  48.908  1.00  0.00     0.002 A 
HETATM   12  C8  UNL     1      27.334   5.700  48.522  1.00  0.00    -0.002 A 
HETATM   13  C9  UNL     1      25.966   6.151  48.779  1.00  0.00    -0.002 A 
HETATM   14  C10 UNL     1      25.287   5.144  49.317  1.00  0.00     0.002 A 
ENDBRANCH   8  10
ENDBRANCH   6   8
ENDBRANCH   1   6
BRANCH   1  15
HETATM   15  C11 UNL     1      23.504   3.015  51.648  1.00  0.00     0.072 A 
HETATM   16  C12 UNL     1      23.556   4.036  52.605  1.00  0.00     0.033 A 
HETATM   17  C13 UNL     1      22.679   5.109  52.570  1.00  0.00     0.004 A 
HETATM   18  C14 UNL     1      21.759   5.113  51.544  1.00  0.00     0.027 A 
HETATM   19  C15 UNL     1      21.672   4.131  50.582  1.00  0.00     0.069 A 
HETATM   20 CL1  UNL     1      20.504   4.134  49.278  1.00  0.00    -0.081 Cl
HETATM   21  C16 UNL     1      22.559   3.078  50.646  1.00  0.00     0.116 A 
BRANCH  21  22
HETATM   22  O1  UNL     1      22.603   2.029  49.773  1.00  0.00    -0.352 OA
HETATM   23  C17 UNL     1      21.716   0.925  49.878  1.00  0.00     0.210 C 
ENDBRANCH  21  22
ENDBRANCH   1  15
TORSDOF 8
ENDMDL
MODEL 6
REMARK VINA RESULT:      -6.2      1.503      1.804
REMARK  8 active torsions:
REMARK  status: ('A' for Active; 'I' for Inactive)
REMARK    1  A    between atoms: C2_2  and  C3_3 
REMARK    2  A    between atoms: C3_3  and  C4_4 
REMARK    3  A    between atoms: C4_4  and  N1_5 
REMARK    4  A    between atoms: N1_5  and  C5_6 
REMARK    5  A    between atoms: N1_5  and  C11_14 
REMARK    6  A    between atoms: C5_6  and  N2_8 
REMARK    7  A    between atoms: N2_8  and  C6_9 
REMARK    8  A    between atoms: C16_20  and  O1_21 
ROOT
HETATM    1  N1  UNL     1      24.047   2.946  51.151  1.00  0.00    -0.322 N 
ENDROOT
BRANCH   1   2
HETATM    2  C4  UNL     1      24.963   2.445  52.157  1.00  0.00     0.131 C 
BRANCH   2   3
HETATM    3  C3  UNL     1      25.100   0.948  52.146  1.00  0.00     0.020 C 
BRANCH   3   4
HETATM    4  C2  UNL     1      26.478   0.469  51.784  1.00  0.00    -0.003 C 
HETATM    5  C1  UNL     1      26.864  -0.721  52.675  1.00  0.00     0.005 C 
ENDBRANCH   3   4
ENDBRANCH   2   3
ENDBRANCH   1   2
BRANCH   1   6
HETATM    6  C5  UNL     1      24.302   4.362  51.015  1.00  0.00     0.175 C 
HETATM    7  S1  UNL     1      23.332   5.532  51.621  1.00  0.00    -0.041 SA
BRANCH   6   8
HETATM    8  N2  UNL     1      25.377   5.038  50.372  1.00  0.00    -0.356 N 
HETATM    9  H10 UNL     1      25.875   5.601  51.097  1.00  0.00     0.162 HD
BRANCH   8  10
HETATM   10  C6  UNL     1      25.884   5.099  49.017  1.00  0.00     0.130 A 
HETATM   11  C7  UNL     1      27.171   4.371  48.908  1.00  0.00     0.002 A 
HETATM   12  C8  UNL     1      28.153   5.197  48.580  1.00  0.00    -0.002 A 
HETATM   13  C9  UNL     1      27.605   6.547  48.443  1.00  0.00    -0.002 A 
HETATM   14  C10 UNL     1      26.301   6.496  48.693  1.00  0.00     0.002 A 
ENDBRANCH   8  10
ENDBRANCH   6   8
ENDBRANCH   1   6
BRANCH   1  15
HETATM   15  C11 UNL     1      23.018   2.479  50.297  1.00  0.00     0.072 A 
HETATM   16  C12 UNL     1      23.407   2.583  48.956  1.00  0.00     0.033 A 
HETATM   17  C13 UNL     1      22.570   2.186  47.925  1.00  0.00     0.004 A 
HETATM   18  C14 UNL     1      21.340   1.684  48.295  1.00  0.00     0.027 A 
HETATM   19  C15 UNL     1      20.917   1.563  49.600  1.00  0.00     0.069 A 
HETATM   20 CL1  UNL     1      19.357   0.926  50.071  1.00  0.00    -0.081 Cl
HETATM   21  C16 UNL     1      21.774   1.968  50.601  1.00  0.00     0.116 A 
BRANCH  21  22
HETATM   22  O1  UNL     1      21.505   1.914  51.939  1.00  0.00    -0.352 OA
HETATM   23  C17 UNL     1      20.697   2.888  52.583  1.00  0.00     0.210 C 
ENDBRANCH  21  22
ENDBRANCH   1  15
TORSDOF 8
ENDMDL
MODEL 7
REMARK VINA RESULT:      -6.1      2.701      5.808
REMARK  8 active torsions:
REMARK  status: ('A' for Active; 'I' for Inactive)
REMARK    1  A    between atoms: C2_2  and  C3_3 
REMARK    2  A    between atoms: C3_3  and  C4_4 
REMARK    3  A    between atoms: C4_4  and  N1_5 
REMARK    4  A    between atoms: N1_5  and  C5_6 
REMARK    5  A    between atoms: N1_5  and  C11_14 
REMARK    6  A    between atoms: C5_6  and  N2_8 
REMARK    7  A    between atoms: N2_8  and  C6_9 
REMARK    8  A    between atoms: C16_20  and  O1_21 
ROOT
HETATM    1  N1  UNL     1      24.898   2.525  51.776  1.00  0.00    -0.322 N 
ENDROOT
BRANCH   1   2
HETATM    2  C4  UNL     1      25.702   1.690  52.648  1.00  0.00     0.131 C 
BRANCH   2   3
HETATM    3  C3  UNL     1      26.310   0.507  51.947  1.00  0.00     0.020 C 
BRANCH   3   4
HETATM    4  C2  UNL     1      27.074  -0.409  52.860  1.00  0.00    -0.003 C 
HETATM    5  C1  UNL     1      26.954   0.085  54.310  1.00  0.00     0.005 C 
ENDBRANCH   3   4
ENDBRANCH   2   3
ENDBRANCH   1   2
BRANCH   1   6
HETATM    6  C5  UNL     1      23.623   1.865  51.618  1.00  0.00     0.175 C 
HETATM    7  S1  UNL     1      22.783   1.814  50.215  1.00  0.00    -0.041 SA
BRANCH   6   8
HETATM    8  N2  UNL     1      22.841   1.152  52.570  1.00  0.00    -0.356 N 
HETATM    9  H10 UNL     1      22.423   1.851  53.223  1.00  0.00     0.162 HD
BRANCH   8  10
HETATM   10  C6  UNL     1      22.529  -0.244  52.800  1.00  0.00     0.130 A 
HETATM   11  C7  UNL     1      21.139  -0.394  53.292  1.00  0.00     0.002 A 
HETATM   12  C8  UNL     1      21.126  -0.900  54.516  1.00  0.00    -0.002 A 
HETATM   13  C9  UNL     1      22.506  -1.132  54.944  1.00  0.00    -0.002 A 
HETATM   14  C10 UNL     1      23.317  -0.755  53.961  1.00  0.00     0.002 A 
ENDBRANCH   8  10
ENDBRANCH   6   8
ENDBRANCH   1   6
BRANCH   1  15
HETATM   15  C11 UNL     1      24.990   3.745  51.062  1.00  0.00     0.072 A 
HETATM   16  C12 UNL     1      25.873   3.617  49.983  1.00  0.00     0.033 A 
HETATM   17  C13 UNL     1      26.131   4.676  49.127  1.00  0.00     0.004 A 
HETATM   18  C14 UNL     1      25.472   5.856  49.399  1.00  0.00     0.027 A 
HETATM   19  C15 UNL     1      24.596   6.026  50.448  1.00  0.00     0.069 A 
HETATM   20 CL1  UNL     1      23.758   7.523  50.794  1.00  0.00    -0.081 Cl
HETATM   21  C16 UNL     1      24.362   4.953  51.280  1.00  0.00     0.116 A 
BRANCH  21  22
HETATM   22  O1  UNL     1      23.525   4.959  52.360  1.00  0.00    -0.352 OA
HETATM   23  C17 UNL     1      22.113   4.946  52.217  1.00  0.00     0.210 C 
ENDBRANCH  21  22
ENDBRANCH   1  15
TORSDOF 8
ENDMDL
MODEL 8
REMARK VINA RESULT:      -6.1      2.231      5.428
REMARK  8 active torsions:
REMARK  status: ('A' for Active; 'I' for Inactive)
REMARK    1  A    between atoms: C2_2  and  C3_3 
REMARK    2  A    between atoms: C3_3  and  C4_4 
REMARK    3  A    between atoms: C4_4  and  N1_5 
REMARK    4  A    between atoms: N1_5  and  C5_6 
REMARK    5  A    between atoms: N1_5  and  C11_14 
REMARK    6  A    between atoms: C5_6  and  N2_8 
REMARK    7  A    between atoms: N2_8  and  C6_9 
REMARK    8  A    between atoms: C16_20  and  O1_21 
ROOT
HETATM    1  N1  UNL     1      23.833   2.757  50.998  1.00  0.00    -0.322 N 
ENDROOT
BRANCH   1   2
HETATM    2  C4  UNL     1      24.940   3.643  50.694  1.00  0.00     0.131 C 
BRANCH   2   3
HETATM    3  C3  UNL     1      24.729   4.456  49.447  1.00  0.00     0.020 C 
BRANCH   3   4
HETATM    4  C2  UNL     1      25.900   5.326  49.087  1.00  0.00    -0.003 C 
HETATM    5  C1  UNL     1      27.168   4.466  48.971  1.00  0.00     0.005 C 
ENDBRANCH   3   4
ENDBRANCH   2   3
ENDBRANCH   1   2
BRANCH   1   6
HETATM    6  C5  UNL     1      24.326   1.769  51.929  1.00  0.00     0.175 C 
HETATM    7  S1  UNL     1      25.881   1.267  51.998  1.00  0.00    -0.041 SA
BRANCH   6   8
HETATM    8  N2  UNL     1      23.634   1.044  52.940  1.00  0.00    -0.356 N 
HETATM    9  H10 UNL     1      23.575   1.656  53.784  1.00  0.00     0.162 HD
BRANCH   8  10
HETATM   10  C6  UNL     1      23.039  -0.274  53.030  1.00  0.00     0.130 A 
HETATM   11  C7  UNL     1      21.560  -0.183  52.986  1.00  0.00     0.002 A 
HETATM   12  C8  UNL     1      21.028  -0.618  54.118  1.00  0.00    -0.002 A 
HETATM   13  C9  UNL     1      22.108  -1.038  55.013  1.00  0.00    -0.002 A 
HETATM   14  C10 UNL     1      23.265  -0.841  54.392  1.00  0.00     0.002 A 
ENDBRANCH   8  10
ENDBRANCH   6   8
ENDBRANCH   1   6
BRANCH   1  15
HETATM   15  C11 UNL     1      22.468   2.580  50.663  1.00  0.00     0.072 A 
HETATM   16  C12 UNL     1      22.317   1.519  49.763  1.00  0.00     0.033 A 
HETATM   17  C13 UNL     1      21.070   1.144  49.285  1.00  0.00     0.004 A 
HETATM   18  C14 UNL     1      19.995   1.873  49.745  1.00  0.00     0.027 A 
HETATM   19  C15 UNL     1      20.097   2.924  50.631  1.00  0.00     0.069 A 
HETATM   20 CL1  UNL     1      18.733   3.850  51.217  1.00  0.00    -0.081 Cl
HETATM   21  C16 UNL     1      21.351   3.270  51.086  1.00  0.00     0.116 A 
BRANCH  21  22
HETATM   22  O1  UNL     1      21.621   4.283  51.962  1.00  0.00    -0.352 OA
HETATM   23  C17 UNL     1      21.818   5.620  51.527  1.00  0.00     0.210 C 
ENDBRANCH  21  22
ENDBRANCH   1  15
TORSDOF 8
ENDMDL
MODEL 9
REMARK VINA RESULT:      -6.0      1.909      3.969
REMARK  8 active torsions:
REMARK  status: ('A' for Active; 'I' for Inactive)
REMARK    1  A    between atoms: C2_2  and  C3_3 
REMARK    2  A    between atoms: C3_3  and  C4_4 
REMARK    3  A    between atoms: C4_4  and  N1_5 
REMARK    4  A    between atoms: N1_5  and  C5_6 
REMARK    5  A    between atoms: N1_5  and  C11_14 
REMARK    6  A    between atoms: C5_6  and  N2_8 
REMARK    7  A    between atoms: N2_8  and  C6_9 
REMARK    8  A    between atoms: C16_20  and  O1_21 
ROOT
HETATM    1  N1  UNL     1      23.876   1.818  51.967  1.00  0.00    -0.322 N 
ENDROOT
BRANCH   1   2
HETATM    2  C4  UNL     1      24.426   1.920  50.630  1.00  0.00     0.131 C 
BRANCH   2   3
HETATM    3  C3  UNL     1      23.890   3.089  49.851  1.00  0.00     0.020 C 
BRANCH   3   4
HETATM    4  C2  UNL     1      24.952   4.040  49.378  1.00  0.00    -0.003 C 
HETATM    5  C1  UNL     1      26.338   3.402  49.562  1.00  0.00     0.005 C 
ENDBRANCH   3   4
ENDBRANCH   2   3
ENDBRANCH   1   2
BRANCH   1   6
HETATM    6  C5  UNL     1      24.669   2.675  52.818  1.00  0.00     0.175 C 
HETATM    7  S1  UNL     1      24.168   4.125  53.385  1.00  0.00    -0.041 SA
BRANCH   6   8
HETATM    8  N2  UNL     1      25.982   2.484  53.334  1.00  0.00    -0.356 N 
HETATM    9  H10 UNL     1      25.946   2.662  54.362  1.00  0.00     0.162 HD
BRANCH   8  10
HETATM   10  C6  UNL     1      27.264   2.121  52.765  1.00  0.00     0.130 A 
HETATM   11  C7  UNL     1      27.366   0.651  52.605  1.00  0.00     0.002 A 
HETATM   12  C8  UNL     1      28.338   0.162  53.362  1.00  0.00    -0.002 A 
HETATM   13  C9  UNL     1      28.966   1.265  54.089  1.00  0.00    -0.002 A 
HETATM   14  C10 UNL     1      28.352   2.393  53.750  1.00  0.00     0.002 A 
ENDBRANCH   8  10
ENDBRANCH   6   8
ENDBRANCH   1   6
BRANCH   1  15
HETATM   15  C11 UNL     1      22.834   1.153  52.658  1.00  0.00     0.072 A 
HETATM   16  C12 UNL     1      21.633   1.865  52.540  1.00  0.00     0.033 A 
HETATM   17  C13 UNL     1      20.462   1.415  53.129  1.00  0.00     0.004 A 
HETATM   18  C14 UNL     1      20.547   0.233  53.834  1.00  0.00     0.027 A 
HETATM   19  C15 UNL     1      21.705  -0.499  53.976  1.00  0.00     0.069 A 
HETATM   20 CL1  UNL     1      21.814  -1.999  54.870  1.00  0.00    -0.081 Cl
HETATM   21  C16 UNL     1      22.852  -0.024  53.378  1.00  0.00     0.116 A 
BRANCH  21  22
HETATM   22  O1  UNL     1      24.076  -0.629  53.425  1.00  0.00    -0.352 OA
HETATM   23  C17 UNL     1      24.787  -0.794  54.643  1.00  0.00     0.210 C 
ENDBRANCH  21  22
ENDBRANCH   1  15
TORSDOF 8
ENDMDL
