MODEL 1
REMARK VINA RESULT:      -7.9      0.000      0.000
REMARK  9 active torsions:
REMARK  status: ('A' for Active; 'I' for Inactive)
REMARK    1  A    between atoms: N1_2  and  C3_4 
REMARK    2  A    between atoms: C6_7  and  C7_8 
REMARK    3  A    between atoms: C7_8  and  C8_9 
REMARK    4  A    between atoms: C9_10  and  C10_11 
REMARK    5  A    between atoms: C9_10  and  C13_16 
REMARK    6  A    between atoms: C11_12  and  N2_13 
REMARK    7  A    between atoms: N2_13  and  C12_14 
REMARK    8  A    between atoms: C12_14  and  N3_15 
REMARK    9  A    between atoms: C13_16  and  C14_17 
ROOT
HETATM    1  C8  UNL     1      26.621   0.508  51.934  1.00  0.00    -0.015 C 
HETATM    2  C9  UNL     1      26.192  -0.435  52.758  1.00  0.00    -0.056 C 
ENDROOT
BRANCH   2   3
HETATM    3  C10 UNL     1      26.521  -1.799  52.326  1.00  0.00     0.024 C 
HETATM    4  C11 UNL     1      27.614  -2.431  52.682  1.00  0.00     0.085 C 
BRANCH   4   5
HETATM    5  N2  UNL     1      28.804  -2.302  53.442  1.00  0.00    -0.375 N 
HETATM    6  H14 UNL     1      29.098  -3.137  54.031  1.00  0.00     0.160 HD
BRANCH   5   7
HETATM    7  C12 UNL     1      29.620  -1.082  53.446  1.00  0.00     0.389 C 
BRANCH   7   8
HETATM    8  N3  UNL     1      29.139  -0.213  54.503  1.00  0.00     0.095 N 
HETATM    9  H17 UNL     1      28.366   0.368  54.096  1.00  0.00     0.314 HD
HETATM   10  H18 UNL     1      29.915   0.485  54.688  1.00  0.00     0.314 HD
ENDBRANCH   7   8
ENDBRANCH   5   7
ENDBRANCH   4   5
ENDBRANCH   2   3
BRANCH   2  11
HETATM   11  C13 UNL     1      25.450  -0.379  54.030  1.00  0.00     0.076 C 
BRANCH  11  12
HETATM   12  C14 UNL     1      23.995  -0.548  53.918  1.00  0.00    -0.052 A 
HETATM   13  C15 UNL     1      23.330  -1.149  54.989  1.00  0.00     0.007 A 
HETATM   14  C16 UNL     1      21.971  -1.297  54.840  1.00  0.00     0.002 A 
HETATM   15  C17 UNL     1      21.325  -0.879  53.711  1.00  0.00     0.024 A 
HETATM   16  C18 UNL     1      21.980  -0.286  52.652  1.00  0.00     0.034 A 
HETATM   17 CL1  UNL     1      21.155   0.251  51.204  1.00  0.00    -0.084 Cl
HETATM   18  C19 UNL     1      23.348  -0.115  52.758  1.00  0.00     0.031 A 
ENDBRANCH  11  12
ENDBRANCH   2  11
BRANCH   1  19
HETATM   19  C7  UNL     1      26.640   1.971  51.762  1.00  0.00     0.066 C 
BRANCH  19  20
HETATM   20  C6  UNL     1      25.285   2.584  51.711  1.00  0.00    -0.055 A 
HETATM   21  C5  UNL     1      24.632   3.121  52.800  1.00  0.00     0.009 A 
HETATM   22  C4  UNL     1      23.374   3.682  52.734  1.00  0.00     0.030 A 
HETATM   23  C3  UNL     1      22.703   3.725  51.521  1.00  0.00     0.029 A 
HETATM   24  C21 UNL     1      23.339   3.196  50.431  1.00  0.00     0.030 A 
HETATM   25  C20 UNL     1      24.590   2.641  50.516  1.00  0.00     0.009 A 
BRANCH  23  26
HETATM   26  N1  UNL     1      21.405   4.296  51.405  1.00  0.00    -0.390 N 
HETATM   27  C1  UNL     1      20.153   3.704  51.840  1.00  0.00     0.149 C 
HETATM   28  C2  UNL     1      21.278   5.605  50.792  1.00  0.00     0.149 C 
ENDBRANCH  23  26
ENDBRANCH  19  20
ENDBRANCH   1  19
TORSDOF 9
ENDMDL
MODEL 2
REMARK VINA RESULT:      -7.8      1.810      3.759
REMARK  9 active torsions:
REMARK  status: ('A' for Active; 'I' for Inactive)
REMARK    1  A    between atoms: N1_2  and  C3_4 
REMARK    2  A    between atoms: C6_7  and  C7_8 
REMARK    3  A    between atoms: C7_8  and  C8_9 
REMARK    4  A    between atoms: C9_10  and  C10_11 
REMARK    5  A    between atoms: C9_10  and  C13_16 
REMARK    6  A    between atoms: C11_12  and  N2_13 
REMARK    7  A    between atoms: N2_13  and  C12_14 
REMARK    8  A    between atoms: C12_14  and  N3_15 
REMARK    9  A    between atoms: C13_16  and  C14_17 
ROOT
HETATM    1  C8  UNL     1      24.255  -0.509  53.301  1.00  0.00    -0.015 C 
HETATM    2  C9  UNL     1      25.303   0.233  52.980  1.00  0.00    -0.056 C 
ENDROOT
BRANCH   2   3
HETATM    3  C10 UNL     1      26.421  -0.528  52.409  1.00  0.00     0.024 C 
HETATM    4  C11 UNL     1      27.517  -0.816  53.069  1.00  0.00     0.085 C 
BRANCH   4   5
HETATM    5  N2  UNL     1      28.162  -0.659  54.322  1.00  0.00    -0.375 N 
HETATM    6  H14 UNL     1      28.135  -1.486  54.991  1.00  0.00     0.160 HD
BRANCH   5   7
HETATM    7  C12 UNL     1      28.846   0.578  54.718  1.00  0.00     0.389 C 
BRANCH   7   8
HETATM    8  N3  UNL     1      29.650   1.034  53.601  1.00  0.00     0.095 N 
HETATM    9  H17 UNL     1      30.446   0.358  53.498  1.00  0.00     0.314 HD
HETATM   10  H18 UNL     1      30.115   1.933  53.918  1.00  0.00     0.314 HD
ENDBRANCH   7   8
ENDBRANCH   5   7
ENDBRANCH   4   5
ENDBRANCH   2   3
BRANCH   2  11
HETATM   11  C13 UNL     1      25.563   1.681  53.081  1.00  0.00     0.076 C 
BRANCH  11  12
HETATM   12  C14 UNL     1      24.609   2.543  52.368  1.00  0.00    -0.052 A 
HETATM   13  C15 UNL     1      23.968   3.542  53.103  1.00  0.00     0.007 A 
HETATM   14  C16 UNL     1      23.078   4.320  52.400  1.00  0.00     0.002 A 
HETATM   15  C17 UNL     1      22.842   4.116  51.070  1.00  0.00     0.024 A 
HETATM   16  C18 UNL     1      23.474   3.128  50.343  1.00  0.00     0.034 A 
HETATM   17 CL1  UNL     1      23.176   2.865  48.638  1.00  0.00    -0.084 Cl
HETATM   18  C19 UNL     1      24.380   2.322  51.007  1.00  0.00     0.031 A 
ENDBRANCH  11  12
ENDBRANCH   2  11
BRANCH   1  19
HETATM   19  C7  UNL     1      22.901  -0.410  53.872  1.00  0.00     0.066 C 
BRANCH  19  20
HETATM   20  C6  UNL     1      21.925   0.273  52.980  1.00  0.00    -0.055 A 
HETATM   21  C5  UNL     1      21.753  -0.020  51.643  1.00  0.00     0.009 A 
HETATM   22  C4  UNL     1      20.846   0.626  50.831  1.00  0.00     0.030 A 
HETATM   23  C3  UNL     1      20.046   1.629  51.356  1.00  0.00     0.029 A 
HETATM   24  C21 UNL     1      20.204   1.931  52.682  1.00  0.00     0.030 A 
HETATM   25  C20 UNL     1      21.113   1.278  53.473  1.00  0.00     0.009 A 
BRANCH  23  26
HETATM   26  N1  UNL     1      19.094   2.321  50.557  1.00  0.00    -0.390 N 
HETATM   27  C1  UNL     1      17.817   2.856  50.995  1.00  0.00     0.149 C 
HETATM   28  C2  UNL     1      19.394   2.537  49.154  1.00  0.00     0.149 C 
ENDBRANCH  23  26
ENDBRANCH  19  20
ENDBRANCH   1  19
TORSDOF 9
ENDMDL
MODEL 3
REMARK VINA RESULT:      -7.8      1.704      3.866
REMARK  9 active torsions:
REMARK  status: ('A' for Active; 'I' for Inactive)
REMARK    1  A    between atoms: N1_2  and  C3_4 
REMARK    2  A    between atoms: C6_7  and  C7_8 
REMARK    3  A    between atoms: C7_8  and  C8_9 
REMARK    4  A    between atoms: C9_10  and  C10_11 
REMARK    5  A    between atoms: C9_10  and  C13_16 
REMARK    6  A    between atoms: C11_12  and  N2_13 
REMARK    7  A    between atoms: N2_13  and  C12_14 
REMARK    8  A    between atoms: C12_14  and  N3_15 
REMARK    9  A    between atoms: C13_16  and  C14_17 
ROOT
HETATM    1  C8  UNL     1      23.915  -0.507  53.645  1.00  0.00    -0.015 C 
HETATM    2  C9  UNL     1      24.968   0.232  53.334  1.00  0.00    -0.056 C 
ENDROOT
BRANCH   2   3
HETATM    3  C10 UNL     1      25.956   0.349  54.413  1.00  0.00     0.024 C 
HETATM    4  C11 UNL     1      27.146  -0.200  54.373  1.00  0.00     0.085 C 
BRANCH   4   5
HETATM    5  N2  UNL     1      28.003  -0.996  53.571  1.00  0.00    -0.375 N 
HETATM    6  H14 UNL     1      29.021  -0.696  53.501  1.00  0.00     0.160 HD
BRANCH   5   7
HETATM    7  C12 UNL     1      27.541  -2.187  52.849  1.00  0.00     0.389 C 
BRANCH   7   8
HETATM    8  N3  UNL     1      28.474  -3.268  53.106  1.00  0.00     0.095 N 
HETATM    9  H17 UNL     1      29.295  -2.853  53.611  1.00  0.00     0.314 HD
HETATM   10  H18 UNL     1      28.867  -3.551  52.163  1.00  0.00     0.314 HD
ENDBRANCH   7   8
ENDBRANCH   5   7
ENDBRANCH   4   5
ENDBRANCH   2   3
BRANCH   2  11
HETATM   11  C13 UNL     1      25.344   0.957  52.106  1.00  0.00     0.076 C 
BRANCH  11  12
HETATM   12  C14 UNL     1      24.593   2.195  51.852  1.00  0.00    -0.052 A 
HETATM   13  C15 UNL     1      24.282   2.998  52.952  1.00  0.00     0.007 A 
HETATM   14  C16 UNL     1      23.571   4.142  52.672  1.00  0.00     0.002 A 
HETATM   15  C17 UNL     1      23.198   4.459  51.396  1.00  0.00     0.024 A 
HETATM   16  C18 UNL     1      23.504   3.666  50.310  1.00  0.00     0.034 A 
HETATM   17 CL1  UNL     1      23.028   4.071  48.674  1.00  0.00    -0.084 Cl
HETATM   18  C19 UNL     1      24.219   2.507  50.543  1.00  0.00     0.031 A 
ENDBRANCH  11  12
ENDBRANCH   2  11
BRANCH   1  19
HETATM   19  C7  UNL     1      22.647  -1.005  53.086  1.00  0.00     0.066 C 
BRANCH  19  20
HETATM   20  C6  UNL     1      21.770   0.069  52.545  1.00  0.00    -0.055 A 
HETATM   21  C5  UNL     1      21.445   0.212  51.212  1.00  0.00     0.009 A 
HETATM   22  C4  UNL     1      20.634   1.216  50.728  1.00  0.00     0.030 A 
HETATM   23  C3  UNL     1      20.098   2.148  51.603  1.00  0.00     0.029 A 
HETATM   24  C21 UNL     1      20.412   2.020  52.930  1.00  0.00     0.030 A 
HETATM   25  C20 UNL     1      21.221   1.015  53.392  1.00  0.00     0.009 A 
BRANCH  23  26
HETATM   26  N1  UNL     1      19.254   3.200  51.150  1.00  0.00    -0.390 N 
HETATM   27  C1  UNL     1      17.860   3.406  51.498  1.00  0.00     0.149 C 
HETATM   28  C2  UNL     1      19.808   4.191  50.246  1.00  0.00     0.149 C 
ENDBRANCH  23  26
ENDBRANCH  19  20
ENDBRANCH   1  19
TORSDOF 9
ENDMDL
MODEL 4
REMARK VINA RESULT:      -7.6      3.747      4.593
REMARK  9 active torsions:
REMARK  status: ('A' for Active; 'I' for Inactive)
REMARK    1  A    between atoms: N1_2  and  C3_4 
REMARK    2  A    between atoms: C6_7  and  C7_8 
REMARK    3  A    between atoms: C7_8  and  C8_9 
REMARK    4  A    between atoms: C9_10  and  C10_11 
REMARK    5  A    between atoms: C9_10  and  C13_16 
REMARK    6  A    between atoms: C11_12  and  N2_13 
REMARK    7  A    between atoms: N2_13  and  C12_14 
REMARK    8  A    between atoms: C12_14  and  N3_15 
REMARK    9  A    between atoms: C13_16  and  C14_17 
ROOT
HETATM    1  C8  UNL     1      26.837   2.812  51.081  1.00  0.00    -0.015 C 
HETATM    2  C9  UNL     1      26.733   1.908  52.042  1.00  0.00    -0.056 C 
ENDROOT
BRANCH   2   3
HETATM    3  C10 UNL     1      27.300   2.335  53.327  1.00  0.00     0.024 C 
HETATM    4  C11 UNL     1      28.480   1.962  53.762  1.00  0.00     0.085 C 
BRANCH   4   5
HETATM    5  N2  UNL     1      29.616   1.179  53.433  1.00  0.00    -0.375 N 
HETATM    6  H14 UNL     1      30.464   1.690  53.045  1.00  0.00     0.160 HD
BRANCH   5   7
HETATM    7  C12 UNL     1      29.656  -0.279  53.603  1.00  0.00     0.389 C 
BRANCH   7   8
HETATM    8  N3  UNL     1      28.584  -0.665  54.500  1.00  0.00     0.095 N 
HETATM    9  H17 UNL     1      27.931   0.154  54.570  1.00  0.00     0.314 HD
HETATM   10  H18 UNL     1      29.017  -0.733  55.465  1.00  0.00     0.314 HD
ENDBRANCH   7   8
ENDBRANCH   5   7
ENDBRANCH   4   5
ENDBRANCH   2   3
BRANCH   2  11
HETATM   11  C13 UNL     1      26.153   0.553  52.073  1.00  0.00     0.076 C 
BRANCH  11  12
HETATM   12  C14 UNL     1      24.751   0.478  52.507  1.00  0.00    -0.052 A 
HETATM   13  C15 UNL     1      23.826   1.289  51.846  1.00  0.00     0.007 A 
HETATM   14  C16 UNL     1      22.528   1.196  52.290  1.00  0.00     0.002 A 
HETATM   15  C17 UNL     1      22.179   0.361  53.314  1.00  0.00     0.024 A 
HETATM   16  C18 UNL     1      23.091  -0.440  53.968  1.00  0.00     0.034 A 
HETATM   17 CL1  UNL     1      22.647  -1.512  55.278  1.00  0.00    -0.084 Cl
HETATM   18  C19 UNL     1      24.409  -0.381  53.555  1.00  0.00     0.031 A 
ENDBRANCH  11  12
ENDBRANCH   2  11
BRANCH   1  19
HETATM   19  C7  UNL     1      26.509   3.032  49.662  1.00  0.00     0.066 C 
BRANCH  19  20
HETATM   20  C6  UNL     1      26.742   4.428  49.204  1.00  0.00    -0.055 A 
HETATM   21  C5  UNL     1      27.894   4.863  48.584  1.00  0.00     0.009 A 
HETATM   22  C4  UNL     1      28.094   6.163  48.170  1.00  0.00     0.030 A 
HETATM   23  C3  UNL     1      27.101   7.109  48.372  1.00  0.00     0.029 A 
HETATM   24  C21 UNL     1      25.951   6.693  48.988  1.00  0.00     0.030 A 
HETATM   25  C20 UNL     1      25.771   5.396  49.393  1.00  0.00     0.009 A 
BRANCH  23  26
HETATM   26  N1  UNL     1      27.261   8.461  47.960  1.00  0.00    -0.390 N 
HETATM   27  C1  UNL     1      26.688   9.636  48.593  1.00  0.00     0.149 C 
HETATM   28  C2  UNL     1      28.075   8.736  46.791  1.00  0.00     0.149 C 
ENDBRANCH  23  26
ENDBRANCH  19  20
ENDBRANCH   1  19
TORSDOF 9
ENDMDL
MODEL 5
REMARK VINA RESULT:      -7.5      2.958      3.695
REMARK  9 active torsions:
REMARK  status: ('A' for Active; 'I' for Inactive)
REMARK    1  A    between atoms: N1_2  and  C3_4 
REMARK    2  A    between atoms: C6_7  and  C7_8 
REMARK    3  A    between atoms: C7_8  and  C8_9 
REMARK    4  A    between atoms: C9_10  and  C10_11 
REMARK    5  A    between atoms: C9_10  and  C13_16 
REMARK    6  A    between atoms: C11_12  and  N2_13 
REMARK    7  A    between atoms: N2_13  and  C12_14 
REMARK    8  A    between atoms: C12_14  and  N3_15 
REMARK    9  A    between atoms: C13_16  and  C14_17 
ROOT
HETATM    1  C8  UNL     1      27.069   2.069  51.558  1.00  0.00    -0.015 C 
HETATM    2  C9  UNL     1      26.908   2.021  52.871  1.00  0.00    -0.056 C 
ENDROOT
BRANCH   2   3
HETATM    3  C10 UNL     1      28.137   1.716  53.613  1.00  0.00     0.024 C 
HETATM    4  C11 UNL     1      28.543   0.497  53.880  1.00  0.00     0.085 C 
BRANCH   4   5
HETATM    5  N2  UNL     1      28.213  -0.871  53.712  1.00  0.00    -0.375 N 
HETATM    6  H14 UNL     1      27.204  -1.155  53.893  1.00  0.00     0.160 HD
BRANCH   5   7
HETATM    7  C12 UNL     1      29.195  -1.885  53.309  1.00  0.00     0.389 C 
BRANCH   7   8
HETATM    8  N3  UNL     1      28.504  -3.149  53.138  1.00  0.00     0.095 N 
HETATM    9  H17 UNL     1      27.598  -3.078  53.663  1.00  0.00     0.314 HD
HETATM   10  H18 UNL     1      29.062  -3.867  53.683  1.00  0.00     0.314 HD
ENDBRANCH   7   8
ENDBRANCH   5   7
ENDBRANCH   4   5
ENDBRANCH   2   3
BRANCH   2  11
HETATM   11  C13 UNL     1      25.729   2.219  53.734  1.00  0.00     0.076 C 
BRANCH  11  12
HETATM   12  C14 UNL     1      24.523   1.482  53.331  1.00  0.00    -0.052 A 
HETATM   13  C15 UNL     1      24.511   0.101  53.540  1.00  0.00     0.007 A 
HETATM   14  C16 UNL     1      23.368  -0.551  53.141  1.00  0.00     0.002 A 
HETATM   15  C17 UNL     1      22.320   0.120  52.576  1.00  0.00     0.024 A 
HETATM   16  C18 UNL     1      22.331   1.483  52.369  1.00  0.00     0.034 A 
HETATM   17 CL1  UNL     1      20.990   2.345  51.647  1.00  0.00    -0.084 Cl
HETATM   18  C19 UNL     1      23.459   2.182  52.756  1.00  0.00     0.031 A 
ENDBRANCH  11  12
ENDBRANCH   2  11
BRANCH   1  19
HETATM   19  C7  UNL     1      26.323   2.303  50.310  1.00  0.00     0.066 C 
BRANCH  19  20
HETATM   20  C6  UNL     1      26.280   3.733  49.899  1.00  0.00    -0.055 A 
HETATM   21  C5  UNL     1      27.183   4.325  49.042  1.00  0.00     0.009 A 
HETATM   22  C4  UNL     1      27.129   5.653  48.675  1.00  0.00     0.030 A 
HETATM   23  C3  UNL     1      26.124   6.464  49.178  1.00  0.00     0.029 A 
HETATM   24  C21 UNL     1      25.219   5.891  50.031  1.00  0.00     0.030 A 
HETATM   25  C20 UNL     1      25.290   4.569  50.385  1.00  0.00     0.009 A 
BRANCH  23  26
HETATM   26  N1  UNL     1      26.026   7.840  48.827  1.00  0.00    -0.390 N 
HETATM   27  C1  UNL     1      25.310   8.398  47.694  1.00  0.00     0.149 C 
HETATM   28  C2  UNL     1      26.699   8.817  49.663  1.00  0.00     0.149 C 
ENDBRANCH  23  26
ENDBRANCH  19  20
ENDBRANCH   1  19
TORSDOF 9
ENDMDL
MODEL 6
REMARK VINA RESULT:      -7.4      1.373      1.739
REMARK  9 active torsions:
REMARK  status: ('A' for Active; 'I' for Inactive)
REMARK    1  A    between atoms: N1_2  and  C3_4 
REMARK    2  A    between atoms: C6_7  and  C7_8 
REMARK    3  A    between atoms: C7_8  and  C8_9 
REMARK    4  A    between atoms: C9_10  and  C10_11 
REMARK    5  A    between atoms: C9_10  and  C13_16 
REMARK    6  A    between atoms: C11_12  and  N2_13 
REMARK    7  A    between atoms: N2_13  and  C12_14 
REMARK    8  A    between atoms: C12_14  and  N3_15 
REMARK    9  A    between atoms: C13_16  and  C14_17 
ROOT
HETATM    1  C8  UNL     1      25.661   1.162  53.060  1.00  0.00    -0.015 C 
HETATM    2  C9  UNL     1      25.340  -0.112  53.221  1.00  0.00    -0.056 C 
ENDROOT
BRANCH   2   3
HETATM    3  C10 UNL     1      26.337  -1.050  52.691  1.00  0.00     0.024 C 
HETATM    4  C11 UNL     1      27.545  -1.185  53.186  1.00  0.00     0.085 C 
BRANCH   4   5
HETATM    5  N2  UNL     1      28.418  -0.707  54.196  1.00  0.00    -0.375 N 
HETATM    6  H14 UNL     1      28.379  -1.190  55.143  1.00  0.00     0.160 HD
BRANCH   5   7
HETATM    7  C12 UNL     1      29.348   0.409  53.983  1.00  0.00     0.389 C 
BRANCH   7   8
HETATM    8  N3  UNL     1      28.942   1.511  54.834  1.00  0.00     0.095 N 
HETATM    9  H17 UNL     1      27.991   1.276  55.211  1.00  0.00     0.314 HD
HETATM   10  H18 UNL     1      28.767   2.334  54.189  1.00  0.00     0.314 HD
ENDBRANCH   7   8
ENDBRANCH   5   7
ENDBRANCH   4   5
ENDBRANCH   2   3
BRANCH   2  11
HETATM   11  C13 UNL     1      24.174  -0.772  53.836  1.00  0.00     0.076 C 
BRANCH  11  12
HETATM   12  C14 UNL     1      22.864  -0.253  53.418  1.00  0.00    -0.052 A 
HETATM   13  C15 UNL     1      21.916  -0.015  54.416  1.00  0.00     0.007 A 
HETATM   14  C16 UNL     1      20.702   0.462  53.981  1.00  0.00     0.002 A 
HETATM   15  C17 UNL     1      20.450   0.681  52.656  1.00  0.00     0.024 A 
HETATM   16  C18 UNL     1      21.386   0.445  51.670  1.00  0.00     0.034 A 
HETATM   17 CL1  UNL     1      21.067   0.727  49.972  1.00  0.00    -0.084 Cl
HETATM   18  C19 UNL     1      22.623  -0.033  52.060  1.00  0.00     0.031 A 
ENDBRANCH  11  12
ENDBRANCH   2  11
BRANCH   1  19
HETATM   19  C7  UNL     1      25.163   2.522  53.330  1.00  0.00     0.066 C 
BRANCH  19  20
HETATM   20  C6  UNL     1      24.251   3.044  52.276  1.00  0.00    -0.055 A 
HETATM   21  C5  UNL     1      23.078   3.723  52.528  1.00  0.00     0.009 A 
HETATM   22  C4  UNL     1      22.243   4.197  51.538  1.00  0.00     0.030 A 
HETATM   23  C3  UNL     1      22.574   3.997  50.207  1.00  0.00     0.029 A 
HETATM   24  C21 UNL     1      23.736   3.325  49.941  1.00  0.00     0.030 A 
HETATM   25  C20 UNL     1      24.553   2.860  50.939  1.00  0.00     0.009 A 
BRANCH  23  26
HETATM   26  N1  UNL     1      21.745   4.470  49.152  1.00  0.00    -0.390 N 
HETATM   27  C1  UNL     1      20.348   4.855  49.250  1.00  0.00     0.149 C 
HETATM   28  C2  UNL     1      22.318   4.594  47.824  1.00  0.00     0.149 C 
ENDBRANCH  23  26
ENDBRANCH  19  20
ENDBRANCH   1  19
TORSDOF 9
ENDMDL
MODEL 7
REMARK VINA RESULT:      -7.3      2.604      7.104
REMARK  9 active torsions:
REMARK  status: ('A' for Active; 'I' for Inactive)
REMARK    1  A    between atoms: N1_2  and  C3_4 
REMARK    2  A    between atoms: C6_7  and  C7_8 
REMARK    3  A    between atoms: C7_8  and  C8_9 
REMARK    4  A    between atoms: C9_10  and  C10_11 
REMARK    5  A    between atoms: C9_10  and  C13_16 
REMARK    6  A    between atoms: C11_12  and  N2_13 
REMARK    7  A    between atoms: N2_13  and  C12_14 
REMARK    8  A    between atoms: C12_14  and  N3_15 
REMARK    9  A    between atoms: C13_16  and  C14_17 
ROOT
HETATM    1  C8  UNL     1      22.084   2.027  51.812  1.00  0.00    -0.015 C 
HETATM    2  C9  UNL     1      22.186   2.763  50.716  1.00  0.00    -0.056 C 
ENDROOT
BRANCH   2   3
HETATM    3  C10 UNL     1      21.350   3.970  50.729  1.00  0.00     0.024 C 
HETATM    4  C11 UNL     1      21.583   5.008  51.497  1.00  0.00     0.085 C 
BRANCH   4   5
HETATM    5  N2  UNL     1      22.465   5.514  52.486  1.00  0.00    -0.375 N 
HETATM    6  H14 UNL     1      22.027   5.923  53.365  1.00  0.00     0.160 HD
BRANCH   5   7
HETATM    7  C12 UNL     1      23.925   5.496  52.337  1.00  0.00     0.389 C 
BRANCH   7   8
HETATM    8  N3  UNL     1      24.363   6.826  51.958  1.00  0.00     0.095 N 
HETATM    9  H17 UNL     1      25.164   6.708  51.290  1.00  0.00     0.314 HD
HETATM   10  H18 UNL     1      24.808   7.249  52.822  1.00  0.00     0.314 HD
ENDBRANCH   7   8
ENDBRANCH   5   7
ENDBRANCH   4   5
ENDBRANCH   2   3
BRANCH   2  11
HETATM   11  C13 UNL     1      22.981   2.607  49.485  1.00  0.00     0.076 C 
BRANCH  11  12
HETATM   12  C14 UNL     1      24.190   3.439  49.407  1.00  0.00    -0.052 A 
HETATM   13  C15 UNL     1      25.370   2.915  49.939  1.00  0.00     0.007 A 
HETATM   14  C16 UNL     1      26.475   3.729  49.854  1.00  0.00     0.002 A 
HETATM   15  C17 UNL     1      26.409   4.969  49.285  1.00  0.00     0.024 A 
HETATM   16  C18 UNL     1      25.244   5.488  48.759  1.00  0.00     0.034 A 
HETATM   17 CL1  UNL     1      25.157   7.077  48.028  1.00  0.00    -0.084 Cl
HETATM   18  C19 UNL     1      24.107   4.705  48.821  1.00  0.00     0.031 A 
ENDBRANCH  11  12
ENDBRANCH   2  11
BRANCH   1  19
HETATM   19  C7  UNL     1      22.596   0.789  52.423  1.00  0.00     0.066 C 
BRANCH  19  20
HETATM   20  C6  UNL     1      24.032   0.861  52.807  1.00  0.00    -0.055 A 
HETATM   21  C5  UNL     1      24.905  -0.205  52.761  1.00  0.00     0.009 A 
HETATM   22  C4  UNL     1      26.233  -0.121  53.124  1.00  0.00     0.030 A 
HETATM   23  C3  UNL     1      26.748   1.089  53.564  1.00  0.00     0.029 A 
HETATM   24  C21 UNL     1      25.894   2.157  53.615  1.00  0.00     0.030 A 
HETATM   25  C20 UNL     1      24.576   2.052  53.250  1.00  0.00     0.009 A 
BRANCH  23  26
HETATM   26  N1  UNL     1      28.112   1.225  53.947  1.00  0.00    -0.390 N 
HETATM   27  C1  UNL     1      28.926   2.423  53.849  1.00  0.00     0.149 C 
HETATM   28  C2  UNL     1      28.794   0.069  54.499  1.00  0.00     0.149 C 
ENDBRANCH  23  26
ENDBRANCH  19  20
ENDBRANCH   1  19
TORSDOF 9
ENDMDL
MODEL 8
REMARK VINA RESULT:      -7.3      3.425      5.713
REMARK  9 active torsions:
REMARK  status: ('A' for Active; 'I' for Inactive)
REMARK    1  A    between atoms: N1_2  and  C3_4 
REMARK    2  A    between atoms: C6_7  and  C7_8 
REMARK    3  A    between atoms: C7_8  and  C8_9 
REMARK    4  A    between atoms: C9_10  and  C10_11 
REMARK    5  A    between atoms: C9_10  and  C13_16 
REMARK    6  A    between atoms: C11_12  and  N2_13 
REMARK    7  A    between atoms: N2_13  and  C12_14 
REMARK    8  A    between atoms: C12_14  and  N3_15 
REMARK    9  A    between atoms: C13_16  and  C14_17 
ROOT
HETATM    1  C8  UNL     1      23.980   3.415  49.487  1.00  0.00    -0.015 C 
HETATM    2  C9  UNL     1      25.082   3.329  50.214  1.00  0.00    -0.056 C 
ENDROOT
BRANCH   2   3
HETATM    3  C10 UNL     1      26.318   3.297  49.423  1.00  0.00     0.024 C 
HETATM    4  C11 UNL     1      27.053   4.355  49.177  1.00  0.00     0.085 C 
BRANCH   4   5
HETATM    5  N2  UNL     1      27.145   5.752  49.407  1.00  0.00    -0.375 N 
HETATM    6  H14 UNL     1      28.120   6.172  49.467  1.00  0.00     0.160 HD
BRANCH   5   7
HETATM    7  C12 UNL     1      25.967   6.614  49.563  1.00  0.00     0.389 C 
BRANCH   7   8
HETATM    8  N3  UNL     1      26.299   7.678  50.492  1.00  0.00     0.095 N 
HETATM    9  H17 UNL     1      27.059   7.314  51.118  1.00  0.00     0.314 HD
HETATM   10  H18 UNL     1      25.463   7.781  51.134  1.00  0.00     0.314 HD
ENDBRANCH   7   8
ENDBRANCH   5   7
ENDBRANCH   4   5
ENDBRANCH   2   3
BRANCH   2  11
HETATM   11  C13 UNL     1      25.309   3.265  51.670  1.00  0.00     0.076 C 
BRANCH  11  12
HETATM   12  C14 UNL     1      25.723   1.952  52.185  1.00  0.00    -0.052 A 
HETATM   13  C15 UNL     1      24.734   0.978  52.337  1.00  0.00     0.007 A 
HETATM   14  C16 UNL     1      25.161  -0.232  52.830  1.00  0.00     0.002 A 
HETATM   15  C17 UNL     1      26.471  -0.454  53.149  1.00  0.00     0.024 A 
HETATM   16  C18 UNL     1      27.448   0.508  53.000  1.00  0.00     0.034 A 
HETATM   17 CL1  UNL     1      29.128   0.226  53.407  1.00  0.00    -0.084 Cl
HETATM   18  C19 UNL     1      27.066   1.741  52.506  1.00  0.00     0.031 A 
ENDBRANCH  11  12
ENDBRANCH   2  11
BRANCH   1  19
HETATM   19  C7  UNL     1      22.514   3.485  49.614  1.00  0.00     0.066 C 
BRANCH  19  20
HETATM   20  C6  UNL     1      21.943   2.451  50.519  1.00  0.00    -0.055 A 
HETATM   21  C5  UNL     1      21.819   1.116  50.197  1.00  0.00     0.009 A 
HETATM   22  C4  UNL     1      21.283   0.172  51.047  1.00  0.00     0.030 A 
HETATM   23  C3  UNL     1      20.836   0.554  52.303  1.00  0.00     0.029 A 
HETATM   24  C21 UNL     1      20.952   1.876  52.638  1.00  0.00     0.030 A 
HETATM   25  C20 UNL     1      21.487   2.800  51.778  1.00  0.00     0.009 A 
BRANCH  23  26
HETATM   26  N1  UNL     1      20.278  -0.385  53.215  1.00  0.00    -0.390 N 
HETATM   27  C1  UNL     1      18.898  -0.831  53.266  1.00  0.00     0.149 C 
HETATM   28  C2  UNL     1      21.147  -0.980  54.213  1.00  0.00     0.149 C 
ENDBRANCH  23  26
ENDBRANCH  19  20
ENDBRANCH   1  19
TORSDOF 9
ENDMDL
MODEL 9
REMARK VINA RESULT:      -7.3      3.316      5.277
REMARK  9 active torsions:
REMARK  status: ('A' for Active; 'I' for Inactive)
REMARK    1  A    between atoms: N1_2  and  C3_4 
REMARK    2  A    between atoms: C6_7  and  C7_8 
REMARK    3  A    between atoms: C7_8  and  C8_9 
REMARK    4  A    between atoms: C9_10  and  C10_11 
REMARK    5  A    between atoms: C9_10  and  C13_16 
REMARK    6  A    between atoms: C11_12  and  N2_13 
REMARK    7  A    between atoms: N2_13  and  C12_14 
REMARK    8  A    between atoms: C12_14  and  N3_15 
REMARK    9  A    between atoms: C13_16  and  C14_17 
ROOT
HETATM    1  C8  UNL     1      24.821   3.617  51.289  1.00  0.00    -0.015 C 
HETATM    2  C9  UNL     1      26.036   3.176  51.007  1.00  0.00    -0.056 C 
ENDROOT
BRANCH   2   3
HETATM    3  C10 UNL     1      26.392   3.277  49.586  1.00  0.00     0.024 C 
HETATM    4  C11 UNL     1      26.852   4.371  49.028  1.00  0.00     0.085 C 
BRANCH   4   5
HETATM    5  N2  UNL     1      27.199   5.721  49.290  1.00  0.00    -0.375 N 
HETATM    6  H14 UNL     1      28.226   5.934  49.467  1.00  0.00     0.160 HD
BRANCH   5   7
HETATM    7  C12 UNL     1      26.210   6.805  49.329  1.00  0.00     0.389 C 
BRANCH   7   8
HETATM    8  N3  UNL     1      26.116   7.290  50.693  1.00  0.00     0.095 N 
HETATM    9  H17 UNL     1      25.812   8.293  50.643  1.00  0.00     0.314 HD
HETATM   10  H18 UNL     1      27.110   7.339  51.058  1.00  0.00     0.314 HD
ENDBRANCH   7   8
ENDBRANCH   5   7
ENDBRANCH   4   5
ENDBRANCH   2   3
BRANCH   2  11
HETATM   11  C13 UNL     1      27.105   2.605  51.847  1.00  0.00     0.076 C 
BRANCH  11  12
HETATM   12  C14 UNL     1      26.731   1.411  52.618  1.00  0.00    -0.052 A 
HETATM   13  C15 UNL     1      26.304   1.600  53.934  1.00  0.00     0.007 A 
HETATM   14  C16 UNL     1      25.972   0.457  54.622  1.00  0.00     0.002 A 
HETATM   15  C17 UNL     1      26.060  -0.778  54.045  1.00  0.00     0.024 A 
HETATM   16  C18 UNL     1      26.482  -0.966  52.745  1.00  0.00     0.034 A 
HETATM   17 CL1  UNL     1      26.595  -2.547  52.002  1.00  0.00    -0.084 Cl
HETATM   18  C19 UNL     1      26.825   0.155  52.013  1.00  0.00     0.031 A 
ENDBRANCH  11  12
ENDBRANCH   2  11
BRANCH   1  19
HETATM   19  C7  UNL     1      23.890   3.798  52.417  1.00  0.00     0.066 C 
BRANCH  19  20
HETATM   20  C6  UNL     1      22.727   2.870  52.387  1.00  0.00    -0.055 A 
HETATM   21  C5  UNL     1      21.418   3.267  52.214  1.00  0.00     0.009 A 
HETATM   22  C4  UNL     1      20.353   2.393  52.192  1.00  0.00     0.030 A 
HETATM   23  C3  UNL     1      20.576   1.034  52.350  1.00  0.00     0.029 A 
HETATM   24  C21 UNL     1      21.870   0.624  52.524  1.00  0.00     0.030 A 
HETATM   25  C20 UNL     1      22.917   1.509  52.543  1.00  0.00     0.009 A 
BRANCH  23  26
HETATM   26  N1  UNL     1      19.508   0.094  52.333  1.00  0.00    -0.390 N 
HETATM   27  C1  UNL     1      19.207  -0.898  53.350  1.00  0.00     0.149 C 
HETATM   28  C2  UNL     1      18.604   0.095  51.198  1.00  0.00     0.149 C 
ENDBRANCH  23  26
ENDBRANCH  19  20
ENDBRANCH   1  19
TORSDOF 9
ENDMDL
