MODEL 1
REMARK VINA RESULT:      -8.0      0.000      0.000
REMARK  9 active torsions:
REMARK  status: ('A' for Active; 'I' for Inactive)
REMARK    1  A    between atoms: C2_2  and  C3_3 
REMARK    2  A    between atoms: C3_3  and  C4_4 
REMARK    3  A    between atoms: C4_4  and  C5_5 
REMARK    4  A    between atoms: C12_14  and  C13_16 
REMARK    5  A    between atoms: C13_16  and  C15_18 
REMARK    6  A    between atoms: C15_18  and  C16_20 
REMARK    7  A    between atoms: C16_20  and  C17_21 
REMARK    8  A    between atoms: C17_21  and  C18_22 
REMARK    9  A    between atoms: C18_22  and  N3_23 
ROOT
HETATM    1  C5  UNL     1      26.105   1.284  52.054  1.00  0.00     0.109 A 
HETATM    2  N1  UNL     1      26.852   1.737  51.009  1.00  0.00    -0.245 NA
HETATM    3  C6  UNL     1      26.043   2.715  50.495  1.00  0.00     0.143 A 
HETATM    4  C7  UNL     1      24.825   2.825  51.241  1.00  0.00     0.030 A 
HETATM    5  N2  UNL     1      24.868   1.915  52.232  1.00  0.00    -0.337 N 
HETATM    6  C8  UNL     1      24.135   1.373  53.325  1.00  0.00     0.130 C 
HETATM    7  C9  UNL     1      22.896   0.563  52.928  1.00  0.00     0.025 C 
HETATM    8  C10 UNL     1      21.698   1.373  52.593  1.00  0.00     0.038 C 
HETATM    9  C11 UNL     1      20.755   0.837  51.588  1.00  0.00    -0.045 C 
HETATM   10  C12 UNL     1      19.769  -0.011  51.988  1.00  0.00     0.107 C 
HETATM   11  F1  UNL     1      18.791  -0.624  51.236  1.00  0.00    -0.210 F 
HETATM   12  C19 UNL     1      20.515   1.086  50.153  1.00  0.00     0.037 C 
HETATM   13  C20 UNL     1      21.709   1.301  49.252  1.00  0.00     0.004 C 
HETATM   14  C21 UNL     1      22.452   2.368  49.920  1.00  0.00     0.001 C 
HETATM   15  C22 UNL     1      23.475   3.244  49.268  1.00  0.00     0.006 C 
HETATM   16  C23 UNL     1      24.073   3.918  50.560  1.00  0.00     0.059 C 
ENDROOT
BRANCH  10  17
HETATM   17  C13 UNL     1      19.326  -0.534  53.346  1.00  0.00     0.118 C 
HETATM   18  C14 UNL     1      20.188  -1.634  53.857  1.00  0.00     0.025 C 
BRANCH  17  19
HETATM   19  C15 UNL     1      17.917  -1.054  53.184  1.00  0.00     0.159 C 
HETATM   20  O1  UNL     1      16.737  -0.737  52.856  1.00  0.00    -0.292 OA
BRANCH  19  21
HETATM   21  C16 UNL     1      17.893  -2.454  53.537  1.00  0.00     0.048 C 
BRANCH  21  22
HETATM   22  C17 UNL     1      17.311  -3.666  53.665  1.00  0.00    -0.004 C 
BRANCH  22  23
HETATM   23  C18 UNL     1      16.435  -4.810  53.818  1.00  0.00     0.138 C 
BRANCH  23  24
HETATM   24  N3  UNL     1      15.099  -4.449  54.257  1.00  0.00    -0.427 N 
HETATM   25  H23 UNL     1      14.379  -5.136  54.057  1.00  0.00     0.150 HD
HETATM   26  H24 UNL     1      15.092  -4.019  55.182  1.00  0.00     0.150 HD
ENDBRANCH  23  24
ENDBRANCH  22  23
ENDBRANCH  21  22
ENDBRANCH  19  21
ENDBRANCH  17  19
ENDBRANCH  10  17
BRANCH   1  27
HETATM   27  C4  UNL     1      26.904   0.173  52.737  1.00  0.00     0.105 C 
BRANCH  27  28
HETATM   28  C3  UNL     1      28.072   0.833  53.405  1.00  0.00    -0.024 C 
BRANCH  28  29
HETATM   29  C2  UNL     1      29.064   0.027  53.725  1.00  0.00    -0.035 C 
HETATM   30  C1  UNL     1      30.097  -0.992  53.747  1.00  0.00     0.036 C 
ENDBRANCH  28  29
ENDBRANCH  27  28
ENDBRANCH   1  27
TORSDOF 9
ENDMDL
MODEL 2
REMARK VINA RESULT:      -7.8      3.005      4.377
REMARK  9 active torsions:
REMARK  status: ('A' for Active; 'I' for Inactive)
REMARK    1  A    between atoms: C2_2  and  C3_3 
REMARK    2  A    between atoms: C3_3  and  C4_4 
REMARK    3  A    between atoms: C4_4  and  C5_5 
REMARK    4  A    between atoms: C12_14  and  C13_16 
REMARK    5  A    between atoms: C13_16  and  C15_18 
REMARK    6  A    between atoms: C15_18  and  C16_20 
REMARK    7  A    between atoms: C16_20  and  C17_21 
REMARK    8  A    between atoms: C17_21  and  C18_22 
REMARK    9  A    between atoms: C18_22  and  N3_23 
ROOT
HETATM    1  C5  UNL     1      24.059   5.841  49.668  1.00  0.00     0.109 A 
HETATM    2  N1  UNL     1      23.759   6.234  48.400  1.00  0.00    -0.245 NA
HETATM    3  C6  UNL     1      22.451   5.844  48.292  1.00  0.00     0.143 A 
HETATM    4  C7  UNL     1      21.995   5.220  49.498  1.00  0.00     0.030 A 
HETATM    5  N2  UNL     1      23.019   5.220  50.372  1.00  0.00    -0.337 N 
HETATM    6  C8  UNL     1      23.413   4.816  51.678  1.00  0.00     0.130 C 
HETATM    7  C9  UNL     1      23.533   3.299  51.871  1.00  0.00     0.025 C 
HETATM    8  C10 UNL     1      22.248   2.592  52.095  1.00  0.00     0.038 C 
HETATM    9  C11 UNL     1      22.126   1.200  51.612  1.00  0.00    -0.045 C 
HETATM   10  C12 UNL     1      22.546   0.181  52.408  1.00  0.00     0.107 C 
HETATM   11  F1  UNL     1      22.529  -1.175  52.167  1.00  0.00    -0.210 F 
HETATM   12  C19 UNL     1      21.516   0.563  50.428  1.00  0.00     0.037 C 
HETATM   13  C20 UNL     1      21.642   1.257  49.093  1.00  0.00     0.004 C 
HETATM   14  C21 UNL     1      21.142   2.605  49.360  1.00  0.00     0.001 C 
HETATM   15  C22 UNL     1      20.662   3.568  48.320  1.00  0.00     0.006 C 
HETATM   16  C23 UNL     1      20.575   4.863  49.215  1.00  0.00     0.059 C 
ENDROOT
BRANCH  10  17
HETATM   17  C13 UNL     1      23.098   0.119  53.824  1.00  0.00     0.118 C 
HETATM   18  C14 UNL     1      24.519  -0.317  53.878  1.00  0.00     0.025 C 
BRANCH  17  19
HETATM   19  C15 UNL     1      22.254  -0.875  54.587  1.00  0.00     0.159 C 
HETATM   20  O1  UNL     1      22.293  -1.901  55.326  1.00  0.00    -0.292 OA
BRANCH  19  21
HETATM   21  C16 UNL     1      20.862  -0.534  54.414  1.00  0.00     0.048 C 
BRANCH  21  22
HETATM   22  C17 UNL     1      19.652  -0.626  53.820  1.00  0.00    -0.004 C 
BRANCH  22  23
HETATM   23  C18 UNL     1      18.501  -0.883  52.979  1.00  0.00     0.138 C 
BRANCH  23  24
HETATM   24  N3  UNL     1      17.367  -1.415  53.713  1.00  0.00    -0.427 N 
HETATM   25  H23 UNL     1      16.515  -1.522  53.172  1.00  0.00     0.150 HD
HETATM   26  H24 UNL     1      17.625  -2.181  54.334  1.00  0.00     0.150 HD
ENDBRANCH  23  24
ENDBRANCH  22  23
ENDBRANCH  21  22
ENDBRANCH  19  21
ENDBRANCH  17  19
ENDBRANCH  10  17
BRANCH   1  27
HETATM   27  C4  UNL     1      25.515   6.227  49.934  1.00  0.00     0.105 C 
BRANCH  27  28
HETATM   28  C3  UNL     1      26.357   5.352  49.057  1.00  0.00    -0.024 C 
BRANCH  28  29
HETATM   29  C2  UNL     1      26.413   4.085  49.417  1.00  0.00    -0.035 C 
HETATM   30  C1  UNL     1      26.544   2.833  50.138  1.00  0.00     0.036 C 
ENDBRANCH  28  29
ENDBRANCH  27  28
ENDBRANCH   1  27
TORSDOF 9
ENDMDL
MODEL 3
REMARK VINA RESULT:      -7.7      3.903      7.147
REMARK  9 active torsions:
REMARK  status: ('A' for Active; 'I' for Inactive)
REMARK    1  A    between atoms: C2_2  and  C3_3 
REMARK    2  A    between atoms: C3_3  and  C4_4 
REMARK    3  A    between atoms: C4_4  and  C5_5 
REMARK    4  A    between atoms: C12_14  and  C13_16 
REMARK    5  A    between atoms: C13_16  and  C15_18 
REMARK    6  A    between atoms: C15_18  and  C16_20 
REMARK    7  A    between atoms: C16_20  and  C17_21 
REMARK    8  A    between atoms: C17_21  and  C18_22 
REMARK    9  A    between atoms: C18_22  and  N3_23 
ROOT
HETATM    1  C5  UNL     1      25.806   0.336  54.039  1.00  0.00     0.109 A 
HETATM    2  N1  UNL     1      25.508  -0.418  55.134  1.00  0.00    -0.245 NA
HETATM    3  C6  UNL     1      24.341  -1.019  54.746  1.00  0.00     0.143 A 
HETATM    4  C7  UNL     1      23.961  -0.611  53.427  1.00  0.00     0.030 A 
HETATM    5  N2  UNL     1      24.895   0.250  52.979  1.00  0.00    -0.337 N 
HETATM    6  C8  UNL     1      25.259   1.080  51.883  1.00  0.00     0.130 C 
HETATM    7  C9  UNL     1      24.348   2.295  51.669  1.00  0.00     0.025 C 
HETATM    8  C10 UNL     1      23.075   2.009  50.963  1.00  0.00     0.038 C 
HETATM    9  C11 UNL     1      21.892   2.830  51.300  1.00  0.00    -0.045 C 
HETATM   10  C12 UNL     1      21.700   4.013  50.657  1.00  0.00     0.107 C 
HETATM   11  F1  UNL     1      20.682   4.929  50.807  1.00  0.00    -0.210 F 
HETATM   12  C19 UNL     1      20.703   2.635  52.152  1.00  0.00     0.037 C 
HETATM   13  C20 UNL     1      20.875   1.931  53.477  1.00  0.00     0.004 C 
HETATM   14  C21 UNL     1      21.552   0.687  53.117  1.00  0.00     0.001 C 
HETATM   15  C22 UNL     1      21.595  -0.547  53.963  1.00  0.00     0.006 C 
HETATM   16  C23 UNL     1      22.692  -1.348  53.163  1.00  0.00     0.059 C 
ENDROOT
BRANCH  10  17
HETATM   17  C13 UNL     1      22.436   4.724  49.532  1.00  0.00     0.118 C 
HETATM   18  C14 UNL     1      22.918   3.797  48.472  1.00  0.00     0.025 C 
BRANCH  17  19
HETATM   19  C15 UNL     1      23.628   5.418  50.150  1.00  0.00     0.159 C 
HETATM   20  O1  UNL     1      24.004   6.152  51.108  1.00  0.00    -0.292 OA
BRANCH  19  21
HETATM   21  C16 UNL     1      24.795   5.147  49.344  1.00  0.00     0.048 C 
BRANCH  21  22
HETATM   22  C17 UNL     1      26.097   4.843  49.153  1.00  0.00    -0.004 C 
BRANCH  22  23
HETATM   23  C18 UNL     1      27.489   4.749  48.764  1.00  0.00     0.138 C 
BRANCH  23  24
HETATM   24  N3  UNL     1      28.190   6.018  48.847  1.00  0.00    -0.427 N 
HETATM   25  H23 UNL     1      29.170   5.987  48.584  1.00  0.00     0.150 HD
HETATM   26  H24 UNL     1      27.635   6.797  48.494  1.00  0.00     0.150 HD
ENDBRANCH  23  24
ENDBRANCH  22  23
ENDBRANCH  21  22
ENDBRANCH  19  21
ENDBRANCH  17  19
ENDBRANCH  10  17
BRANCH   1  27
HETATM   27  C4  UNL     1      27.115   1.071  54.334  1.00  0.00     0.105 C 
BRANCH  27  28
HETATM   28  C3  UNL     1      28.051   0.060  54.922  1.00  0.00    -0.024 C 
BRANCH  28  29
HETATM   29  C2  UNL     1      28.991  -0.375  54.107  1.00  0.00    -0.035 C 
HETATM   30  C1  UNL     1      30.033  -1.131  53.438  1.00  0.00     0.036 C 
ENDBRANCH  28  29
ENDBRANCH  27  28
ENDBRANCH   1  27
TORSDOF 9
ENDMDL
MODEL 4
REMARK VINA RESULT:      -7.6      3.885      8.407
REMARK  9 active torsions:
REMARK  status: ('A' for Active; 'I' for Inactive)
REMARK    1  A    between atoms: C2_2  and  C3_3 
REMARK    2  A    between atoms: C3_3  and  C4_4 
REMARK    3  A    between atoms: C4_4  and  C5_5 
REMARK    4  A    between atoms: C12_14  and  C13_16 
REMARK    5  A    between atoms: C13_16  and  C15_18 
REMARK    6  A    between atoms: C15_18  and  C16_20 
REMARK    7  A    between atoms: C16_20  and  C17_21 
REMARK    8  A    between atoms: C17_21  and  C18_22 
REMARK    9  A    between atoms: C18_22  and  N3_23 
ROOT
HETATM    1  C5  UNL     1      18.485   1.244  49.988  1.00  0.00     0.109 A 
HETATM    2  N1  UNL     1      17.408   2.078  49.951  1.00  0.00    -0.245 NA
HETATM    3  C6  UNL     1      17.981   3.248  49.532  1.00  0.00     0.143 A 
HETATM    4  C7  UNL     1      19.391   3.093  49.330  1.00  0.00     0.030 A 
HETATM    5  N2  UNL     1      19.708   1.817  49.619  1.00  0.00    -0.337 N 
HETATM    6  C8  UNL     1      20.787   0.894  49.705  1.00  0.00     0.130 C 
HETATM    7  C9  UNL     1      21.779   1.172  50.842  1.00  0.00     0.025 C 
HETATM    8  C10 UNL     1      22.776   2.233  50.560  1.00  0.00     0.038 C 
HETATM    9  C11 UNL     1      23.270   3.043  51.694  1.00  0.00    -0.045 C 
HETATM   10  C12 UNL     1      24.321   2.589  52.427  1.00  0.00     0.107 C 
HETATM   11  F1  UNL     1      24.941   3.168  53.512  1.00  0.00    -0.210 F 
HETATM   12  C19 UNL     1      22.960   4.386  52.222  1.00  0.00     0.037 C 
HETATM   13  C20 UNL     1      21.520   4.842  52.227  1.00  0.00     0.004 C 
HETATM   14  C21 UNL     1      21.094   4.640  50.843  1.00  0.00     0.001 C 
HETATM   15  C22 UNL     1      19.913   5.298  50.200  1.00  0.00     0.006 C 
HETATM   16  C23 UNL     1      19.849   4.439  48.881  1.00  0.00     0.059 C 
ENDROOT
BRANCH  10  17
HETATM   17  C13 UNL     1      25.232   1.375  52.310  1.00  0.00     0.118 C 
HETATM   18  C14 UNL     1      25.338   0.601  53.576  1.00  0.00     0.025 C 
BRANCH  17  19
HETATM   19  C15 UNL     1      26.604   1.884  51.933  1.00  0.00     0.159 C 
HETATM   20  O1  UNL     1      27.806   1.971  52.316  1.00  0.00    -0.292 OA
BRANCH  19  21
HETATM   21  C16 UNL     1      26.527   2.519  50.639  1.00  0.00     0.048 C 
BRANCH  21  22
HETATM   22  C17 UNL     1      26.715   3.536  49.770  1.00  0.00    -0.004 C 
BRANCH  22  23
HETATM   23  C18 UNL     1      26.735   4.775  49.020  1.00  0.00     0.138 C 
BRANCH  23  24
HETATM   24  N3  UNL     1      28.042   5.407  48.999  1.00  0.00    -0.427 N 
HETATM   25  H23 UNL     1      28.329   5.832  49.875  1.00  0.00     0.150 HD
HETATM   26  H24 UNL     1      28.737   4.855  48.497  1.00  0.00     0.150 HD
ENDBRANCH  23  24
ENDBRANCH  22  23
ENDBRANCH  21  22
ENDBRANCH  19  21
ENDBRANCH  17  19
ENDBRANCH  10  17
BRANCH   1  27
HETATM   27  C4  UNL     1      17.983  -0.128  50.441  1.00  0.00     0.105 C 
BRANCH  27  28
HETATM   28  C3  UNL     1      17.725  -0.025  51.914  1.00  0.00    -0.024 C 
BRANCH  28  29
HETATM   29  C2  UNL     1      18.697  -0.470  52.686  1.00  0.00    -0.035 C 
HETATM   30  C1  UNL     1      19.901  -0.631  53.479  1.00  0.00     0.036 C 
ENDBRANCH  28  29
ENDBRANCH  27  28
ENDBRANCH   1  27
TORSDOF 9
ENDMDL
MODEL 5
REMARK VINA RESULT:      -7.5      4.348      9.199
REMARK  9 active torsions:
REMARK  status: ('A' for Active; 'I' for Inactive)
REMARK    1  A    between atoms: C2_2  and  C3_3 
REMARK    2  A    between atoms: C3_3  and  C4_4 
REMARK    3  A    between atoms: C4_4  and  C5_5 
REMARK    4  A    between atoms: C12_14  and  C13_16 
REMARK    5  A    between atoms: C13_16  and  C15_18 
REMARK    6  A    between atoms: C15_18  and  C16_20 
REMARK    7  A    between atoms: C16_20  and  C17_21 
REMARK    8  A    between atoms: C17_21  and  C18_22 
REMARK    9  A    between atoms: C18_22  and  N3_23 
ROOT
HETATM    1  C5  UNL     1      22.701   1.002  52.789  1.00  0.00     0.109 A 
HETATM    2  N1  UNL     1      23.372  -0.150  53.072  1.00  0.00    -0.245 NA
HETATM    3  C6  UNL     1      24.638   0.318  53.302  1.00  0.00     0.143 A 
HETATM    4  C7  UNL     1      24.702   1.741  53.148  1.00  0.00     0.030 A 
HETATM    5  N2  UNL     1      23.469   2.173  52.823  1.00  0.00    -0.337 N 
HETATM    6  C8  UNL     1      22.708   3.329  52.494  1.00  0.00     0.130 C 
HETATM    7  C9  UNL     1      23.051   3.957  51.138  1.00  0.00     0.025 C 
HETATM    8  C10 UNL     1      24.261   4.815  51.131  1.00  0.00     0.038 C 
HETATM    9  C11 UNL     1      25.058   4.884  49.888  1.00  0.00    -0.045 C 
HETATM   10  C12 UNL     1      24.714   5.783  48.927  1.00  0.00     0.107 C 
HETATM   11  F1  UNL     1      25.305   6.020  47.705  1.00  0.00    -0.210 F 
HETATM   12  C19 UNL     1      26.306   4.249  49.419  1.00  0.00     0.037 C 
HETATM   13  C20 UNL     1      26.547   2.798  49.763  1.00  0.00     0.004 C 
HETATM   14  C21 UNL     1      26.376   2.759  51.214  1.00  0.00     0.001 C 
HETATM   15  C22 UNL     1      26.897   1.683  52.115  1.00  0.00     0.006 C 
HETATM   16  C23 UNL     1      26.126   2.079  53.431  1.00  0.00     0.059 C 
ENDROOT
BRANCH  10  17
HETATM   17  C13 UNL     1      23.656   6.872  48.844  1.00  0.00     0.118 C 
HETATM   18  C14 UNL     1      23.623   7.556  47.524  1.00  0.00     0.025 C 
BRANCH  17  19
HETATM   19  C15 UNL     1      23.982   7.890  49.913  1.00  0.00     0.159 C 
HETATM   20  O1  UNL     1      23.700   8.274  51.084  1.00  0.00    -0.292 OA
BRANCH  19  21
HETATM   21  C16 UNL     1      25.011   8.773  49.416  1.00  0.00     0.048 C 
BRANCH  21  22
HETATM   22  C17 UNL     1      26.280   9.222  49.309  1.00  0.00    -0.004 C 
BRANCH  22  23
HETATM   23  C18 UNL     1      27.713   9.415  49.215  1.00  0.00     0.138 C 
BRANCH  23  24
HETATM   24  N3  UNL     1      28.357   9.536  50.511  1.00  0.00    -0.427 N 
HETATM   25  H23 UNL     1      28.329   8.700  51.086  1.00  0.00     0.150 HD
HETATM   26  H24 UNL     1      29.241  10.043  50.464  1.00  0.00     0.150 HD
ENDBRANCH  23  24
ENDBRANCH  22  23
ENDBRANCH  21  22
ENDBRANCH  19  21
ENDBRANCH  17  19
ENDBRANCH  10  17
BRANCH   1  27
HETATM   27  C4  UNL     1      21.245   0.626  52.514  1.00  0.00     0.105 C 
BRANCH  27  28
HETATM   28  C3  UNL     1      21.220  -0.040  51.171  1.00  0.00    -0.024 C 
BRANCH  28  29
HETATM   29  C2  UNL     1      21.348   0.772  50.141  1.00  0.00    -0.035 C 
HETATM   30  C1  UNL     1      21.716   1.410  48.891  1.00  0.00     0.036 C 
ENDBRANCH  28  29
ENDBRANCH  27  28
ENDBRANCH   1  27
TORSDOF 9
ENDMDL
MODEL 6
REMARK VINA RESULT:      -7.2      2.540      3.126
REMARK  9 active torsions:
REMARK  status: ('A' for Active; 'I' for Inactive)
REMARK    1  A    between atoms: C2_2  and  C3_3 
REMARK    2  A    between atoms: C3_3  and  C4_4 
REMARK    3  A    between atoms: C4_4  and  C5_5 
REMARK    4  A    between atoms: C12_14  and  C13_16 
REMARK    5  A    between atoms: C13_16  and  C15_18 
REMARK    6  A    between atoms: C15_18  and  C16_20 
REMARK    7  A    between atoms: C16_20  and  C17_21 
REMARK    8  A    between atoms: C17_21  and  C18_22 
REMARK    9  A    between atoms: C18_22  and  N3_23 
ROOT
HETATM    1  C5  UNL     1      25.698   1.219  52.304  1.00  0.00     0.109 A 
HETATM    2  N1  UNL     1      26.751   1.473  51.479  1.00  0.00    -0.245 NA
HETATM    3  C6  UNL     1      26.293   2.552  50.771  1.00  0.00     0.143 A 
HETATM    4  C7  UNL     1      24.972   2.921  51.184  1.00  0.00     0.030 A 
HETATM    5  N2  UNL     1      24.596   2.072  52.160  1.00  0.00    -0.337 N 
HETATM    6  C8  UNL     1      23.528   1.731  53.035  1.00  0.00     0.130 C 
HETATM    7  C9  UNL     1      22.295   1.139  52.342  1.00  0.00     0.025 C 
HETATM    8  C10 UNL     1      21.392   2.132  51.710  1.00  0.00     0.038 C 
HETATM    9  C11 UNL     1      20.643   1.723  50.503  1.00  0.00    -0.045 C 
HETATM   10  C12 UNL     1      19.448   1.090  50.646  1.00  0.00     0.107 C 
HETATM   11  F1  UNL     1      18.588   0.625  49.675  1.00  0.00    -0.210 F 
HETATM   12  C19 UNL     1      20.817   1.934  49.053  1.00  0.00     0.037 C 
HETATM   13  C20 UNL     1      22.215   1.881  48.481  1.00  0.00     0.004 C 
HETATM   14  C21 UNL     1      22.958   2.830  49.309  1.00  0.00     0.001 C 
HETATM   15  C22 UNL     1      24.256   3.471  48.931  1.00  0.00     0.006 C 
HETATM   16  C23 UNL     1      24.632   4.094  50.329  1.00  0.00     0.059 C 
ENDROOT
BRANCH  10  17
HETATM   17  C13 UNL     1      18.592   0.729  51.851  1.00  0.00     0.118 C 
HETATM   18  C14 UNL     1      18.892  -0.622  52.396  1.00  0.00     0.025 C 
BRANCH  17  19
HETATM   19  C15 UNL     1      17.151   0.763  51.399  1.00  0.00     0.159 C 
HETATM   20  O1  UNL     1      16.217   0.075  50.894  1.00  0.00    -0.292 OA
BRANCH  19  21
HETATM   21  C16 UNL     1      16.623   2.088  51.625  1.00  0.00     0.048 C 
BRANCH  21  22
HETATM   22  C17 UNL     1      15.705   2.971  52.076  1.00  0.00    -0.004 C 
BRANCH  22  23
HETATM   23  C18 UNL     1      14.632   3.691  52.731  1.00  0.00     0.138 C 
BRANCH  23  24
HETATM   24  N3  UNL     1      15.079   4.459  53.879  1.00  0.00    -0.427 N 
HETATM   25  H23 UNL     1      14.385   5.084  54.276  1.00  0.00     0.150 HD
HETATM   26  H24 UNL     1      15.637   3.905  54.529  1.00  0.00     0.150 HD
ENDBRANCH  23  24
ENDBRANCH  22  23
ENDBRANCH  21  22
ENDBRANCH  19  21
ENDBRANCH  17  19
ENDBRANCH  10  17
BRANCH   1  27
HETATM   27  C4  UNL     1      26.078   0.020  53.173  1.00  0.00     0.105 C 
BRANCH  27  28
HETATM   28  C3  UNL     1      27.230   0.457  54.026  1.00  0.00    -0.024 C 
BRANCH  28  29
HETATM   29  C2  UNL     1      28.299  -0.310  53.961  1.00  0.00    -0.035 C 
HETATM   30  C1  UNL     1      29.595  -0.895  53.670  1.00  0.00     0.036 C 
ENDBRANCH  28  29
ENDBRANCH  27  28
ENDBRANCH   1  27
TORSDOF 9
ENDMDL
MODEL 7
REMARK VINA RESULT:      -7.1      5.442      9.756
REMARK  9 active torsions:
REMARK  status: ('A' for Active; 'I' for Inactive)
REMARK    1  A    between atoms: C2_2  and  C3_3 
REMARK    2  A    between atoms: C3_3  and  C4_4 
REMARK    3  A    between atoms: C4_4  and  C5_5 
REMARK    4  A    between atoms: C12_14  and  C13_16 
REMARK    5  A    between atoms: C13_16  and  C15_18 
REMARK    6  A    between atoms: C15_18  and  C16_20 
REMARK    7  A    between atoms: C16_20  and  C17_21 
REMARK    8  A    between atoms: C17_21  and  C18_22 
REMARK    9  A    between atoms: C18_22  and  N3_23 
ROOT
HETATM    1  C5  UNL     1      23.346   2.097  51.449  1.00  0.00     0.109 A 
HETATM    2  N1  UNL     1      22.073   1.629  51.324  1.00  0.00    -0.245 NA
HETATM    3  C6  UNL     1      21.858   1.768  49.979  1.00  0.00     0.143 A 
HETATM    4  C7  UNL     1      23.006   2.321  49.325  1.00  0.00     0.030 A 
HETATM    5  N2  UNL     1      23.951   2.528  50.261  1.00  0.00    -0.337 N 
HETATM    6  C8  UNL     1      25.267   3.025  50.473  1.00  0.00     0.130 C 
HETATM    7  C9  UNL     1      25.416   4.541  50.296  1.00  0.00     0.025 C 
HETATM    8  C10 UNL     1      25.523   5.002  48.890  1.00  0.00     0.038 C 
HETATM    9  C11 UNL     1      24.985   6.337  48.553  1.00  0.00    -0.045 C 
HETATM   10  C12 UNL     1      25.774   7.432  48.716  1.00  0.00     0.107 C 
HETATM   11  F1  UNL     1      25.486   8.756  48.469  1.00  0.00    -0.210 F 
HETATM   12  C19 UNL     1      23.740   6.825  47.929  1.00  0.00     0.037 C 
HETATM   13  C20 UNL     1      22.441   6.139  48.283  1.00  0.00     0.004 C 
HETATM   14  C21 UNL     1      22.718   4.728  48.020  1.00  0.00     0.001 C 
HETATM   15  C22 UNL     1      21.680   3.672  47.806  1.00  0.00     0.006 C 
HETATM   16  C23 UNL     1      22.609   2.402  47.890  1.00  0.00     0.059 C 
ENDROOT
BRANCH  10  17
HETATM   17  C13 UNL     1      27.223   7.624  49.136  1.00  0.00     0.118 C 
HETATM   18  C14 UNL     1      27.505   8.991  49.652  1.00  0.00     0.025 C 
BRANCH  17  19
HETATM   19  C15 UNL     1      28.077   7.380  47.913  1.00  0.00     0.159 C 
HETATM   20  O1  UNL     1      28.263   7.715  46.709  1.00  0.00    -0.292 OA
BRANCH  19  21
HETATM   21  C16 UNL     1      29.066   6.376  48.229  1.00  0.00     0.048 C 
BRANCH  21  22
HETATM   22  C17 UNL     1      30.145   5.608  47.966  1.00  0.00    -0.004 C 
BRANCH  22  23
HETATM   23  C18 UNL     1      31.449   5.042  47.684  1.00  0.00     0.138 C 
BRANCH  23  24
HETATM   24  N3  UNL     1      32.281   4.913  48.866  1.00  0.00    -0.427 N 
HETATM   25  H23 UNL     1      32.249   4.006  49.320  1.00  0.00     0.150 HD
HETATM   26  H24 UNL     1      33.198   5.346  48.751  1.00  0.00     0.150 HD
ENDBRANCH  23  24
ENDBRANCH  22  23
ENDBRANCH  21  22
ENDBRANCH  19  21
ENDBRANCH  17  19
ENDBRANCH  10  17
BRANCH   1  27
HETATM   27  C4  UNL     1      23.729   1.993  52.925  1.00  0.00     0.105 C 
BRANCH  27  28
HETATM   28  C3  UNL     1      24.140   0.571  53.162  1.00  0.00    -0.024 C 
BRANCH  28  29
HETATM   29  C2  UNL     1      25.385   0.286  52.838  1.00  0.00    -0.035 C 
HETATM   30  C1  UNL     1      26.601  -0.156  52.182  1.00  0.00     0.036 C 
ENDBRANCH  28  29
ENDBRANCH  27  28
ENDBRANCH   1  27
TORSDOF 9
ENDMDL
MODEL 8
REMARK VINA RESULT:      -7.1     11.296     16.358
REMARK  9 active torsions:
REMARK  status: ('A' for Active; 'I' for Inactive)
REMARK    1  A    between atoms: C2_2  and  C3_3 
REMARK    2  A    between atoms: C3_3  and  C4_4 
REMARK    3  A    between atoms: C4_4  and  C5_5 
REMARK    4  A    between atoms: C12_14  and  C13_16 
REMARK    5  A    between atoms: C13_16  and  C15_18 
REMARK    6  A    between atoms: C15_18  and  C16_20 
REMARK    7  A    between atoms: C16_20  and  C17_21 
REMARK    8  A    between atoms: C17_21  and  C18_22 
REMARK    9  A    between atoms: C18_22  and  N3_23 
ROOT
HETATM    1  C5  UNL     1      30.919   6.535  48.097  1.00  0.00     0.109 A 
HETATM    2  N1  UNL     1      31.015   5.940  49.319  1.00  0.00    -0.245 NA
HETATM    3  C6  UNL     1      32.372   5.832  49.467  1.00  0.00     0.143 A 
HETATM    4  C7  UNL     1      33.062   6.360  48.329  1.00  0.00     0.030 A 
HETATM    5  N2  UNL     1      32.136   6.807  47.460  1.00  0.00    -0.337 N 
HETATM    6  C8  UNL     1      31.957   7.404  46.181  1.00  0.00     0.130 C 
HETATM    7  C9  UNL     1      32.320   6.502  44.995  1.00  0.00     0.025 C 
HETATM    8  C10 UNL     1      33.770   6.415  44.695  1.00  0.00     0.038 C 
HETATM    9  C11 UNL     1      34.289   5.154  44.124  1.00  0.00    -0.045 C 
HETATM   10  C12 UNL     1      34.247   4.966  42.778  1.00  0.00     0.107 C 
HETATM   11  F1  UNL     1      34.668   3.884  42.037  1.00  0.00    -0.210 F 
HETATM   12  C19 UNL     1      35.001   3.983  44.673  1.00  0.00     0.037 C 
HETATM   13  C20 UNL     1      34.595   3.467  46.034  1.00  0.00     0.004 C 
HETATM   14  C21 UNL     1      34.670   4.654  46.884  1.00  0.00     0.001 C 
HETATM   15  C22 UNL     1      34.773   4.639  48.377  1.00  0.00     0.006 C 
HETATM   16  C23 UNL     1      34.505   6.168  48.651  1.00  0.00     0.059 C 
ENDROOT
BRANCH  10  17
HETATM   17  C13 UNL     1      33.818   5.844  41.612  1.00  0.00     0.118 C 
HETATM   18  C14 UNL     1      32.760   5.222  40.771  1.00  0.00     0.025 C 
BRANCH  17  19
HETATM   19  C15 UNL     1      35.043   6.080  40.759  1.00  0.00     0.159 C 
HETATM   20  O1  UNL     1      35.563   5.859  39.628  1.00  0.00    -0.292 OA
BRANCH  19  21
HETATM   21  C16 UNL     1      35.996   6.856  41.517  1.00  0.00     0.048 C 
BRANCH  21  22
HETATM   22  C17 UNL     1      36.419   7.957  42.175  1.00  0.00    -0.004 C 
BRANCH  22  23
HETATM   23  C18 UNL     1      37.059   9.166  42.651  1.00  0.00     0.138 C 
BRANCH  23  24
HETATM   24  N3  UNL     1      36.916   9.361  44.082  1.00  0.00    -0.427 N 
HETATM   25  H23 UNL     1      36.572  10.274  44.361  1.00  0.00     0.150 HD
HETATM   26  H24 UNL     1      36.518   8.547  44.551  1.00  0.00     0.150 HD
ENDBRANCH  23  24
ENDBRANCH  22  23
ENDBRANCH  21  22
ENDBRANCH  19  21
ENDBRANCH  17  19
ENDBRANCH  10  17
BRANCH   1  27
HETATM   27  C4  UNL     1      29.432   6.727  47.799  1.00  0.00     0.105 C 
BRANCH  27  28
HETATM   28  C3  UNL     1      28.745   5.460  48.207  1.00  0.00    -0.024 C 
BRANCH  28  29
HETATM   29  C2  UNL     1      27.508   5.606  48.638  1.00  0.00    -0.035 C 
HETATM   30  C1  UNL     1      26.102   5.445  48.957  1.00  0.00     0.036 C 
ENDBRANCH  28  29
ENDBRANCH  27  28
ENDBRANCH   1  27
TORSDOF 9
ENDMDL
MODEL 9
REMARK VINA RESULT:      -7.0      2.711      3.292
REMARK  9 active torsions:
REMARK  status: ('A' for Active; 'I' for Inactive)
REMARK    1  A    between atoms: C2_2  and  C3_3 
REMARK    2  A    between atoms: C3_3  and  C4_4 
REMARK    3  A    between atoms: C4_4  and  C5_5 
REMARK    4  A    between atoms: C12_14  and  C13_16 
REMARK    5  A    between atoms: C13_16  and  C15_18 
REMARK    6  A    between atoms: C15_18  and  C16_20 
REMARK    7  A    between atoms: C16_20  and  C17_21 
REMARK    8  A    between atoms: C17_21  and  C18_22 
REMARK    9  A    between atoms: C18_22  and  N3_23 
ROOT
HETATM    1  C5  UNL     1      26.160   2.656  51.364  1.00  0.00     0.109 A 
HETATM    2  N1  UNL     1      26.766   2.929  50.175  1.00  0.00    -0.245 NA
HETATM    3  C6  UNL     1      25.768   3.579  49.500  1.00  0.00     0.143 A 
HETATM    4  C7  UNL     1      24.581   3.678  50.296  1.00  0.00     0.030 A 
HETATM    5  N2  UNL     1      24.834   3.092  51.482  1.00  0.00    -0.337 N 
HETATM    6  C8  UNL     1      24.261   2.750  52.738  1.00  0.00     0.130 C 
HETATM    7  C9  UNL     1      23.180   1.664  52.675  1.00  0.00     0.025 C 
HETATM    8  C10 UNL     1      21.840   2.136  52.250  1.00  0.00     0.038 C 
HETATM    9  C11 UNL     1      20.974   1.196  51.507  1.00  0.00    -0.045 C 
HETATM   10  C12 UNL     1      20.182   0.333  52.198  1.00  0.00     0.107 C 
HETATM   11  F1  UNL     1      19.307  -0.617  51.720  1.00  0.00    -0.210 F 
HETATM   12  C19 UNL     1      20.635   1.003  50.083  1.00  0.00     0.037 C 
HETATM   13  C20 UNL     1      21.730   1.166  49.055  1.00  0.00     0.004 C 
HETATM   14  C21 UNL     1      22.286   2.484  49.354  1.00  0.00     0.001 C 
HETATM   15  C22 UNL     1      23.100   3.312  48.410  1.00  0.00     0.006 C 
HETATM   16  C23 UNL     1      23.612   4.402  49.425  1.00  0.00     0.059 C 
ENDROOT
BRANCH  10  17
HETATM   17  C13 UNL     1      19.900   0.130  53.679  1.00  0.00     0.118 C 
HETATM   18  C14 UNL     1      20.624   1.096  54.549  1.00  0.00     0.025 C 
BRANCH  17  19
HETATM   19  C15 UNL     1      20.346  -1.271  54.028  1.00  0.00     0.159 C 
HETATM   20  O1  UNL     1      19.965  -2.471  54.138  1.00  0.00    -0.292 OA
BRANCH  19  21
HETATM   21  C16 UNL     1      21.748  -1.240  54.372  1.00  0.00     0.048 C 
BRANCH  21  22
HETATM   22  C17 UNL     1      22.795  -1.336  55.220  1.00  0.00    -0.004 C 
BRANCH  22  23
HETATM   23  C18 UNL     1      24.077  -1.460  55.882  1.00  0.00     0.138 C 
BRANCH  23  24
HETATM   24  N3  UNL     1      25.185  -0.993  55.068  1.00  0.00    -0.427 N 
HETATM   25  H23 UNL     1      26.104  -1.102  55.486  1.00  0.00     0.150 HD
HETATM   26  H24 UNL     1      25.086  -1.248  54.085  1.00  0.00     0.150 HD
ENDBRANCH  23  24
ENDBRANCH  22  23
ENDBRANCH  21  22
ENDBRANCH  19  21
ENDBRANCH  17  19
ENDBRANCH  10  17
BRANCH   1  27
HETATM   27  C4  UNL     1      27.179   1.924  52.238  1.00  0.00     0.105 C 
BRANCH  27  28
HETATM   28  C3  UNL     1      26.873   0.462  52.120  1.00  0.00    -0.024 C 
BRANCH  28  29
HETATM   29  C2  UNL     1      27.710  -0.339  52.750  1.00  0.00    -0.035 C 
HETATM   30  C1  UNL     1      28.817  -0.915  53.490  1.00  0.00     0.036 C 
ENDBRANCH  28  29
ENDBRANCH  27  28
ENDBRANCH   1  27
TORSDOF 9
ENDMDL
