MODEL 1
REMARK VINA RESULT:      -7.5      0.000      0.000
REMARK  5 active torsions:
REMARK  status: ('A' for Active; 'I' for Inactive)
REMARK    1  A    between atoms: C3_3  and  C4_5 
REMARK    2  A    between atoms: C7_11  and  C8_12 
REMARK    3  A    between atoms: C9_13  and  N2_14 
REMARK    4  A    between atoms: C16_22  and  N3_23 
REMARK    5  A    between atoms: C17_24  and  N4_25 
ROOT
HETATM    1  C4  UNL     1      21.031   1.758  51.998  1.00  0.00     0.237 C 
HETATM    2  O1  UNL     1      20.488   2.831  52.597  1.00  0.00    -0.364 OA
HETATM    3  C5  UNL     1      20.792   4.091  52.306  1.00  0.00     0.272 C 
HETATM    4  C6  UNL     1      22.172   4.496  52.070  1.00  0.00     0.245 C 
HETATM    5  O2  UNL     1      22.336   5.659  51.624  1.00  0.00    -0.271 OA
HETATM    6  N1  UNL     1      23.345   3.717  52.291  1.00  0.00    -0.323 N 
HETATM    7  C7  UNL     1      23.439   2.329  52.594  1.00  0.00     0.064 C 
HETATM    8  C16 UNL     1      22.438   1.468  52.469  1.00  0.00     0.098 C 
HETATM    9  H8  UNL     1      24.266   4.207  52.228  1.00  0.00     0.169 HD
ENDROOT
BRANCH   7  10
HETATM   10  C8  UNL     1      24.730   1.913  53.057  1.00  0.00     0.049 C 
HETATM   11  C9  UNL     1      25.906   1.696  52.499  1.00  0.00     0.093 C 
BRANCH  11  12
HETATM   12  N2  UNL     1      27.178   1.273  53.033  1.00  0.00    -0.356 N 
HETATM   13  C10 UNL     1      28.038   2.272  53.637  1.00  0.00     0.155 A 
HETATM   14  C11 UNL     1      29.285   1.640  54.114  1.00  0.00    -0.005 A 
HETATM   15  C12 UNL     1      29.668   0.392  54.059  1.00  0.00     0.019 A 
HETATM   16  C13 UNL     1      28.744  -0.537  53.438  1.00  0.00     0.033 A 
HETATM   17 BR1  UNL     1      29.219  -2.374  53.315  1.00  0.00    -0.049 Br
HETATM   18  C14 UNL     1      27.584  -0.101  52.965  1.00  0.00     0.025 A 
HETATM   19  C15 UNL     1      26.697  -1.115  52.347  1.00  0.00     0.070 C 
ENDBRANCH  11  12
ENDBRANCH   7  10
BRANCH   8  20
HETATM   20  N3  UNL     1      22.756   0.153  52.824  1.00  0.00    -0.244 NA
HETATM   21  C17 UNL     1      22.006  -0.432  53.704  1.00  0.00     0.200 C 
BRANCH  21  22
HETATM   22  N4  UNL     1      20.950  -0.589  54.633  1.00  0.00    -0.394 N 
HETATM   23  H19 UNL     1      20.871  -1.626  54.825  1.00  0.00     0.156 HD
HETATM   24  H20 UNL     1      20.483   0.318  54.926  1.00  0.00     0.156 HD
ENDBRANCH  21  22
ENDBRANCH   8  20
BRANCH   1  25
HETATM   25  C3  UNL     1      21.045   1.719  50.533  1.00  0.00     0.124 C 
HETATM   26  C2  UNL     1      21.852   1.785  49.478  1.00  0.00     0.010 C 
HETATM   27  C1  UNL     1      21.158   1.665  48.166  1.00  0.00     0.039 C 
HETATM   28  F1  UNL     1      19.763   1.553  50.056  1.00  0.00    -0.208 F 
ENDBRANCH   1  25
TORSDOF 5
ENDMDL
MODEL 2
REMARK VINA RESULT:      -7.2      4.987      6.907
REMARK  5 active torsions:
REMARK  status: ('A' for Active; 'I' for Inactive)
REMARK    1  A    between atoms: C3_3  and  C4_5 
REMARK    2  A    between atoms: C7_11  and  C8_12 
REMARK    3  A    between atoms: C9_13  and  N2_14 
REMARK    4  A    between atoms: C16_22  and  N3_23 
REMARK    5  A    between atoms: C17_24  and  N4_25 
ROOT
HETATM    1  C4  UNL     1      26.193   1.103  53.305  1.00  0.00     0.237 C 
HETATM    2  O1  UNL     1      24.954   1.383  53.743  1.00  0.00    -0.364 OA
HETATM    3  C5  UNL     1      23.844   1.199  53.037  1.00  0.00     0.272 C 
HETATM    4  C6  UNL     1      23.789   1.541  51.622  1.00  0.00     0.245 C 
HETATM    5  O2  UNL     1      22.763   1.162  51.003  1.00  0.00    -0.271 OA
HETATM    6  N1  UNL     1      24.767   2.257  50.873  1.00  0.00    -0.323 N 
HETATM    7  C7  UNL     1      26.087   2.622  51.265  1.00  0.00     0.064 C 
HETATM    8  C16 UNL     1      26.716   2.125  52.322  1.00  0.00     0.098 C 
HETATM    9  H8  UNL     1      24.505   2.564  49.908  1.00  0.00     0.169 HD
ENDROOT
BRANCH   7  10
HETATM   10  C8  UNL     1      26.707   3.594  50.413  1.00  0.00     0.049 C 
HETATM   11  C9  UNL     1      26.281   4.555  49.615  1.00  0.00     0.093 C 
BRANCH  11  12
HETATM   12  N2  UNL     1      26.970   5.505  48.777  1.00  0.00    -0.356 N 
HETATM   13  C10 UNL     1      28.371   5.275  48.480  1.00  0.00     0.155 A 
HETATM   14  C11 UNL     1      28.887   6.357  47.618  1.00  0.00    -0.005 A 
HETATM   15  C12 UNL     1      28.279   7.407  47.134  1.00  0.00     0.019 A 
HETATM   16  C13 UNL     1      26.880   7.557  47.482  1.00  0.00     0.033 A 
HETATM   17 BR1  UNL     1      25.915   9.056  46.822  1.00  0.00    -0.049 Br
HETATM   18  C14 UNL     1      26.289   6.653  48.253  1.00  0.00     0.025 A 
HETATM   19  C15 UNL     1      24.856   6.880  48.561  1.00  0.00     0.070 C 
ENDBRANCH  11  12
ENDBRANCH   7  10
BRANCH   8  20
HETATM   20  N3  UNL     1      28.007   2.627  52.517  1.00  0.00    -0.244 NA
HETATM   21  C17 UNL     1      28.637   2.266  53.591  1.00  0.00     0.200 C 
BRANCH  21  22
HETATM   22  N4  UNL     1      28.860   1.608  54.824  1.00  0.00    -0.394 N 
HETATM   23  H19 UNL     1      29.431   2.271  55.418  1.00  0.00     0.156 HD
HETATM   24  H20 UNL     1      28.430   0.640  54.891  1.00  0.00     0.156 HD
ENDBRANCH  21  22
ENDBRANCH   8  20
BRANCH   1  25
HETATM   25  C3  UNL     1      26.437  -0.222  52.727  1.00  0.00     0.124 C 
HETATM   26  C2  UNL     1      26.433  -1.521  53.012  1.00  0.00     0.010 C 
HETATM   27  C1  UNL     1      26.810  -2.401  51.872  1.00  0.00     0.039 C 
HETATM   28  F1  UNL     1      26.806  -0.096  51.405  1.00  0.00    -0.208 F 
ENDBRANCH   1  25
TORSDOF 5
ENDMDL
MODEL 3
REMARK VINA RESULT:      -7.0      2.164      3.632
REMARK  5 active torsions:
REMARK  status: ('A' for Active; 'I' for Inactive)
REMARK    1  A    between atoms: C3_3  and  C4_5 
REMARK    2  A    between atoms: C7_11  and  C8_12 
REMARK    3  A    between atoms: C9_13  and  N2_14 
REMARK    4  A    between atoms: C16_22  and  N3_23 
REMARK    5  A    between atoms: C17_24  and  N4_25 
ROOT
HETATM    1  C4  UNL     1      22.448   3.917  49.480  1.00  0.00     0.237 C 
HETATM    2  O1  UNL     1      21.447   3.025  49.566  1.00  0.00    -0.364 OA
HETATM    3  C5  UNL     1      20.693   2.839  50.644  1.00  0.00     0.272 C 
HETATM    4  C6  UNL     1      21.280   2.821  51.978  1.00  0.00     0.245 C 
HETATM    5  O2  UNL     1      20.468   2.824  52.937  1.00  0.00    -0.271 OA
HETATM    6  N1  UNL     1      22.667   2.799  52.305  1.00  0.00    -0.323 N 
HETATM    7  C7  UNL     1      23.781   2.990  51.439  1.00  0.00     0.064 C 
HETATM    8  C16 UNL     1      23.696   3.476  50.209  1.00  0.00     0.098 C 
HETATM    9  H8  UNL     1      22.923   2.623  53.303  1.00  0.00     0.169 HD
ENDROOT
BRANCH   7  10
HETATM   10  C8  UNL     1      25.041   2.607  52.008  1.00  0.00     0.049 C 
HETATM   11  C9  UNL     1      25.642   1.464  52.280  1.00  0.00     0.093 C 
BRANCH  11  12
HETATM   12  N2  UNL     1      26.925   1.150  52.860  1.00  0.00    -0.356 N 
HETATM   13  C10 UNL     1      27.696   2.226  53.452  1.00  0.00     0.155 A 
HETATM   14  C11 UNL     1      28.971   1.699  53.982  1.00  0.00    -0.005 A 
HETATM   15  C12 UNL     1      29.441   0.481  53.979  1.00  0.00     0.019 A 
HETATM   16  C13 UNL     1      28.602  -0.531  53.367  1.00  0.00     0.033 A 
HETATM   17 BR1  UNL     1      29.207  -2.332  53.318  1.00  0.00    -0.049 Br
HETATM   18  C14 UNL     1      27.428  -0.193  52.850  1.00  0.00     0.025 A 
HETATM   19  C15 UNL     1      26.631  -1.287  52.244  1.00  0.00     0.070 C 
ENDBRANCH  11  12
ENDBRANCH   7  10
BRANCH   8  20
HETATM   20  N3  UNL     1      24.921   3.576  49.539  1.00  0.00    -0.244 NA
HETATM   21  C17 UNL     1      25.602   4.669  49.691  1.00  0.00     0.200 C 
BRANCH  21  22
HETATM   22  N4  UNL     1      25.916   5.965  50.163  1.00  0.00    -0.394 N 
HETATM   23  H19 UNL     1      25.075   6.296  50.712  1.00  0.00     0.156 HD
HETATM   24  H20 UNL     1      26.878   6.315  49.882  1.00  0.00     0.156 HD
ENDBRANCH  21  22
ENDBRANCH   8  20
BRANCH   1  25
HETATM   25  C3  UNL     1      22.175   5.301  49.882  1.00  0.00     0.124 C 
HETATM   26  C2  UNL     1      22.466   6.215  50.802  1.00  0.00     0.010 C 
HETATM   27  C1  UNL     1      21.791   7.527  50.601  1.00  0.00     0.039 C 
HETATM   28  F1  UNL     1      21.301   5.884  48.990  1.00  0.00    -0.208 F 
ENDBRANCH   1  25
TORSDOF 5
ENDMDL
MODEL 4
REMARK VINA RESULT:      -6.9      9.731     12.200
REMARK  5 active torsions:
REMARK  status: ('A' for Active; 'I' for Inactive)
REMARK    1  A    between atoms: C3_3  and  C4_5 
REMARK    2  A    between atoms: C7_11  and  C8_12 
REMARK    3  A    between atoms: C9_13  and  N2_14 
REMARK    4  A    between atoms: C16_22  and  N3_23 
REMARK    5  A    between atoms: C17_24  and  N4_25 
ROOT
HETATM    1  C4  UNL     1      34.421   4.750  46.524  1.00  0.00     0.237 C 
HETATM    2  O1  UNL     1      34.469   3.548  47.121  1.00  0.00    -0.364 OA
HETATM    3  C5  UNL     1      33.594   2.569  46.918  1.00  0.00     0.272 C 
HETATM    4  C6  UNL     1      32.166   2.846  46.825  1.00  0.00     0.245 C 
HETATM    5  O2  UNL     1      31.443   1.889  46.451  1.00  0.00    -0.271 OA
HETATM    6  N1  UNL     1      31.510   4.077  47.114  1.00  0.00    -0.323 N 
HETATM    7  C7  UNL     1      32.094   5.353  47.359  1.00  0.00     0.064 C 
HETATM    8  C16 UNL     1      33.360   5.656  47.105  1.00  0.00     0.098 C 
HETATM    9  H8  UNL     1      30.465   4.067  47.157  1.00  0.00     0.169 HD
ENDROOT
BRANCH   7  10
HETATM   10  C8  UNL     1      31.191   6.317  47.916  1.00  0.00     0.049 C 
HETATM   11  C9  UNL     1      29.881   6.421  48.035  1.00  0.00     0.093 C 
BRANCH  11  12
HETATM   12  N2  UNL     1      29.030   7.432  48.614  1.00  0.00    -0.356 N 
HETATM   13  C10 UNL     1      29.616   8.714  48.955  1.00  0.00     0.155 A 
HETATM   14  C11 UNL     1      28.586   9.600  49.536  1.00  0.00    -0.005 A 
HETATM   15  C12 UNL     1      27.318   9.380  49.757  1.00  0.00     0.019 A 
HETATM   16  C13 UNL     1      26.818   8.070  49.385  1.00  0.00     0.033 A 
HETATM   17 BR1  UNL     1      24.983   7.662  49.671  1.00  0.00    -0.049 Br
HETATM   18  C14 UNL     1      27.639   7.175  48.851  1.00  0.00     0.025 A 
HETATM   19  C15 UNL     1      27.048   5.862  48.499  1.00  0.00     0.070 C 
ENDBRANCH  11  12
ENDBRANCH   7  10
BRANCH   8  20
HETATM   20  N3  UNL     1      33.717   6.970  47.425  1.00  0.00    -0.244 NA
HETATM   21  C17 UNL     1      34.770   7.145  48.159  1.00  0.00     0.200 C 
BRANCH  21  22
HETATM   22  N4  UNL     1      35.910   6.801  48.924  1.00  0.00    -0.394 N 
HETATM   23  H19 UNL     1      36.753   7.077  48.348  1.00  0.00     0.156 HD
HETATM   24  H20 UNL     1      35.692   6.361  49.866  1.00  0.00     0.156 HD
ENDBRANCH  21  22
ENDBRANCH   8  20
BRANCH   1  25
HETATM   25  C3  UNL     1      34.278   4.791  45.065  1.00  0.00     0.124 C 
HETATM   26  C2  UNL     1      33.429   5.102  44.091  1.00  0.00     0.010 C 
HETATM   27  C1  UNL     1      33.964   4.890  42.718  1.00  0.00     0.039 C 
HETATM   28  F1  UNL     1      35.439   4.351  44.468  1.00  0.00    -0.208 F 
ENDBRANCH   1  25
TORSDOF 5
ENDMDL
MODEL 5
REMARK VINA RESULT:      -6.9      7.915      8.876
REMARK  5 active torsions:
REMARK  status: ('A' for Active; 'I' for Inactive)
REMARK    1  A    between atoms: C3_3  and  C4_5 
REMARK    2  A    between atoms: C7_11  and  C8_12 
REMARK    3  A    between atoms: C9_13  and  N2_14 
REMARK    4  A    between atoms: C16_22  and  N3_23 
REMARK    5  A    between atoms: C17_24  and  N4_25 
ROOT
HETATM    1  C4  UNL     1      26.314   7.111  49.116  1.00  0.00     0.237 C 
HETATM    2  O1  UNL     1      26.547   7.891  50.185  1.00  0.00    -0.364 OA
HETATM    3  C5  UNL     1      27.193   9.050  50.146  1.00  0.00     0.272 C 
HETATM    4  C6  UNL     1      28.396   9.214  49.339  1.00  0.00     0.245 C 
HETATM    5  O2  UNL     1      28.826  10.388  49.223  1.00  0.00    -0.271 OA
HETATM    6  N1  UNL     1      29.128   8.188  48.673  1.00  0.00    -0.323 N 
HETATM    7  C7  UNL     1      28.760   6.827  48.474  1.00  0.00     0.064 C 
HETATM    8  C16 UNL     1      27.538   6.349  48.664  1.00  0.00     0.098 C 
HETATM    9  H8  UNL     1      30.058   8.445  48.271  1.00  0.00     0.169 HD
ENDROOT
BRANCH   7  10
HETATM   10  C8  UNL     1      29.835   5.983  48.042  1.00  0.00     0.049 C 
HETATM   11  C9  UNL     1      31.023   6.175  47.500  1.00  0.00     0.093 C 
BRANCH  11  12
HETATM   12  N2  UNL     1      32.065   5.268  47.085  1.00  0.00    -0.356 N 
HETATM   13  C10 UNL     1      32.408   4.164  47.962  1.00  0.00     0.155 A 
HETATM   14  C11 UNL     1      33.494   3.363  47.361  1.00  0.00    -0.005 A 
HETATM   15  C12 UNL     1      34.125   3.520  46.228  1.00  0.00     0.019 A 
HETATM   16  C13 UNL     1      33.716   4.650  45.416  1.00  0.00     0.033 A 
HETATM   17 BR1  UNL     1      34.581   4.956  43.751  1.00  0.00    -0.049 Br
HETATM   18  C14 UNL     1      32.749   5.454  45.839  1.00  0.00     0.025 A 
HETATM   19  C15 UNL     1      32.391   6.585  44.949  1.00  0.00     0.070 C 
ENDBRANCH  11  12
ENDBRANCH   7  10
BRANCH   8  20
HETATM   20  N3  UNL     1      27.404   4.980  48.408  1.00  0.00    -0.244 NA
HETATM   21  C17 UNL     1      26.911   4.237  49.348  1.00  0.00     0.200 C 
BRANCH  21  22
HETATM   22  N4  UNL     1      26.363   3.908  50.611  1.00  0.00    -0.394 N 
HETATM   23  H19 UNL     1      26.441   2.858  50.707  1.00  0.00     0.156 HD
HETATM   24  H20 UNL     1      26.008   4.740  51.167  1.00  0.00     0.156 HD
ENDBRANCH  21  22
ENDBRANCH   8  20
BRANCH   1  25
HETATM   25  C3  UNL     1      25.722   7.730  47.926  1.00  0.00     0.124 C 
HETATM   26  C2  UNL     1      25.988   8.092  46.675  1.00  0.00     0.010 C 
HETATM   27  C1  UNL     1      24.843   8.720  45.960  1.00  0.00     0.039 C 
HETATM   28  F1  UNL     1      24.409   8.067  48.177  1.00  0.00    -0.208 F 
ENDBRANCH   1  25
TORSDOF 5
ENDMDL
MODEL 6
REMARK VINA RESULT:      -6.8      8.446     10.857
REMARK  5 active torsions:
REMARK  status: ('A' for Active; 'I' for Inactive)
REMARK    1  A    between atoms: C3_3  and  C4_5 
REMARK    2  A    between atoms: C7_11  and  C8_12 
REMARK    3  A    between atoms: C9_13  and  N2_14 
REMARK    4  A    between atoms: C16_22  and  N3_23 
REMARK    5  A    between atoms: C17_24  and  N4_25 
ROOT
HETATM    1  C4  UNL     1      32.221   7.726  47.684  1.00  0.00     0.237 C 
HETATM    2  O1  UNL     1      32.949   6.964  48.517  1.00  0.00    -0.364 OA
HETATM    3  C5  UNL     1      33.175   5.667  48.349  1.00  0.00     0.272 C 
HETATM    4  C6  UNL     1      32.114   4.770  47.908  1.00  0.00     0.245 C 
HETATM    5  O2  UNL     1      32.469   3.604  47.603  1.00  0.00    -0.271 OA
HETATM    6  N1  UNL     1      30.727   5.074  47.790  1.00  0.00    -0.323 N 
HETATM    7  C7  UNL     1      30.091   6.346  47.875  1.00  0.00     0.064 C 
HETATM    8  C16 UNL     1      30.733   7.505  47.830  1.00  0.00     0.098 C 
HETATM    9  H8  UNL     1      30.072   4.277  47.618  1.00  0.00     0.169 HD
ENDROOT
BRANCH   7  10
HETATM   10  C8  UNL     1      28.666   6.284  48.020  1.00  0.00     0.049 C 
HETATM   11  C9  UNL     1      27.815   5.474  48.621  1.00  0.00     0.093 C 
BRANCH  11  12
HETATM   12  N2  UNL     1      26.377   5.472  48.725  1.00  0.00    -0.356 N 
HETATM   13  C10 UNL     1      25.650   6.640  48.266  1.00  0.00     0.155 A 
HETATM   14  C11 UNL     1      24.200   6.440  48.463  1.00  0.00    -0.005 A 
HETATM   15  C12 UNL     1      23.553   5.420  48.960  1.00  0.00     0.019 A 
HETATM   16  C13 UNL     1      24.360   4.296  49.393  1.00  0.00     0.033 A 
HETATM   17 BR1  UNL     1      23.502   2.767  50.128  1.00  0.00    -0.049 Br
HETATM   18  C14 UNL     1      25.681   4.344  49.273  1.00  0.00     0.025 A 
HETATM   19  C15 UNL     1      26.432   3.153  49.739  1.00  0.00     0.070 C 
ENDBRANCH  11  12
ENDBRANCH   7  10
BRANCH   8  20
HETATM   20  N3  UNL     1      29.907   8.630  47.932  1.00  0.00    -0.244 NA
HETATM   21  C17 UNL     1      30.043   9.384  48.978  1.00  0.00     0.200 C 
BRANCH  21  22
HETATM   22  N4  UNL     1      30.563   9.830  50.216  1.00  0.00    -0.394 N 
HETATM   23  H19 UNL     1      29.731   9.991  50.849  1.00  0.00     0.156 HD
HETATM   24  H20 UNL     1      31.621   9.906  50.248  1.00  0.00     0.156 HD
ENDBRANCH  21  22
ENDBRANCH   8  20
BRANCH   1  25
HETATM   25  C3  UNL     1      32.531   7.672  46.251  1.00  0.00     0.124 C 
HETATM   26  C2  UNL     1      31.978   7.522  45.052  1.00  0.00     0.010 C 
HETATM   27  C1  UNL     1      32.944   7.574  43.919  1.00  0.00     0.039 C 
HETATM   28  F1  UNL     1      33.885   7.836  46.059  1.00  0.00    -0.208 F 
ENDBRANCH   1  25
TORSDOF 5
ENDMDL
MODEL 7
REMARK VINA RESULT:      -6.6      5.334      6.386
REMARK  5 active torsions:
REMARK  status: ('A' for Active; 'I' for Inactive)
REMARK    1  A    between atoms: C3_3  and  C4_5 
REMARK    2  A    between atoms: C7_11  and  C8_12 
REMARK    3  A    between atoms: C9_13  and  N2_14 
REMARK    4  A    between atoms: C16_22  and  N3_23 
REMARK    5  A    between atoms: C17_24  and  N4_25 
ROOT
HETATM    1  C4  UNL     1      23.776   2.714  51.452  1.00  0.00     0.237 C 
HETATM    2  O1  UNL     1      23.170   3.404  52.432  1.00  0.00    -0.364 OA
HETATM    3  C5  UNL     1      22.315   4.401  52.234  1.00  0.00     0.272 C 
HETATM    4  C6  UNL     1      22.560   5.410  51.211  1.00  0.00     0.245 C 
HETATM    5  O2  UNL     1      21.612   6.200  50.978  1.00  0.00    -0.271 OA
HETATM    6  N1  UNL     1      23.754   5.591  50.453  1.00  0.00    -0.323 N 
HETATM    7  C7  UNL     1      24.887   4.733  50.372  1.00  0.00     0.064 C 
HETATM    8  C16 UNL     1      24.907   3.479  50.803  1.00  0.00     0.098 C 
HETATM    9  H8  UNL     1      23.830   6.460  49.876  1.00  0.00     0.169 HD
ENDROOT
BRANCH   7  10
HETATM   10  C8  UNL     1      26.042   5.337  49.774  1.00  0.00     0.049 C 
HETATM   11  C9  UNL     1      26.355   6.543  49.340  1.00  0.00     0.093 C 
BRANCH  11  12
HETATM   12  N2  UNL     1      27.550   7.086  48.741  1.00  0.00    -0.356 N 
HETATM   13  C10 UNL     1      28.308   6.247  47.832  1.00  0.00     0.155 A 
HETATM   14  C11 UNL     1      29.489   6.982  47.336  1.00  0.00    -0.005 A 
HETATM   15  C12 UNL     1      29.894   8.196  47.598  1.00  0.00     0.019 A 
HETATM   16  C13 UNL     1      29.074   8.962  48.517  1.00  0.00     0.033 A 
HETATM   17 BR1  UNL     1      29.587  10.740  48.956  1.00  0.00    -0.049 Br
HETATM   18  C14 UNL     1      27.981   8.421  49.039  1.00  0.00     0.025 A 
HETATM   19  C15 UNL     1      27.199   9.271  49.968  1.00  0.00     0.070 C 
ENDBRANCH  11  12
ENDBRANCH   7  10
BRANCH   8  20
HETATM   20  N3  UNL     1      26.128   2.822  50.621  1.00  0.00    -0.244 NA
HETATM   21  C17 UNL     1      26.792   2.482  51.681  1.00  0.00     0.200 C 
BRANCH  21  22
HETATM   22  N4  UNL     1      27.087   2.345  53.059  1.00  0.00    -0.394 N 
HETATM   23  H19 UNL     1      27.549   1.401  53.174  1.00  0.00     0.156 HD
HETATM   24  H20 UNL     1      26.797   3.174  53.655  1.00  0.00     0.156 HD
ENDBRANCH  21  22
ENDBRANCH   8  20
BRANCH   1  25
HETATM   25  C3  UNL     1      22.944   2.170  50.374  1.00  0.00     0.124 C 
HETATM   26  C2  UNL     1      22.568   2.378  49.116  1.00  0.00     0.010 C 
HETATM   27  C1  UNL     1      21.626   1.357  48.579  1.00  0.00     0.039 C 
HETATM   28  F1  UNL     1      22.313   1.022  50.803  1.00  0.00    -0.208 F 
ENDBRANCH   1  25
TORSDOF 5
ENDMDL
MODEL 8
REMARK VINA RESULT:      -6.6      4.647      6.151
REMARK  5 active torsions:
REMARK  status: ('A' for Active; 'I' for Inactive)
REMARK    1  A    between atoms: C3_3  and  C4_5 
REMARK    2  A    between atoms: C7_11  and  C8_12 
REMARK    3  A    between atoms: C9_13  and  N2_14 
REMARK    4  A    between atoms: C16_22  and  N3_23 
REMARK    5  A    between atoms: C17_24  and  N4_25 
ROOT
HETATM    1  C4  UNL     1      21.806   2.699  52.097  1.00  0.00     0.237 C 
HETATM    2  O1  UNL     1      20.748   2.723  51.268  1.00  0.00    -0.364 OA
HETATM    3  C5  UNL     1      20.582   1.905  50.235  1.00  0.00     0.272 C 
HETATM    4  C6  UNL     1      21.695   1.569  49.355  1.00  0.00     0.245 C 
HETATM    5  O2  UNL     1      21.483   0.653  48.524  1.00  0.00    -0.271 OA
HETATM    6  N1  UNL     1      22.988   2.169  49.340  1.00  0.00    -0.323 N 
HETATM    7  C7  UNL     1      23.554   3.072  50.285  1.00  0.00     0.064 C 
HETATM    8  C16 UNL     1      23.047   3.309  51.487  1.00  0.00     0.098 C 
HETATM    9  H8  UNL     1      23.620   1.930  48.542  1.00  0.00     0.169 HD
ENDROOT
BRANCH   7  10
HETATM   10  C8  UNL     1      24.746   3.727  49.832  1.00  0.00     0.049 C 
HETATM   11  C9  UNL     1      25.015   4.816  49.137  1.00  0.00     0.093 C 
BRANCH  11  12
HETATM   12  N2  UNL     1      26.253   5.422  48.712  1.00  0.00    -0.356 N 
HETATM   13  C10 UNL     1      27.471   4.640  48.804  1.00  0.00     0.155 A 
HETATM   14  C11 UNL     1      28.620   5.438  48.329  1.00  0.00    -0.005 A 
HETATM   15  C12 UNL     1      28.660   6.662  47.874  1.00  0.00     0.019 A 
HETATM   16  C13 UNL     1      27.395   7.368  47.817  1.00  0.00     0.033 A 
HETATM   17 BR1  UNL     1      27.359   9.155  47.167  1.00  0.00    -0.049 Br
HETATM   18  C14 UNL     1      26.282   6.767  48.215  1.00  0.00     0.025 A 
HETATM   19  C15 UNL     1      25.031   7.559  48.123  1.00  0.00     0.070 C 
ENDBRANCH  11  12
ENDBRANCH   7  10
BRANCH   8  20
HETATM   20  N3  UNL     1      23.769   4.234  52.249  1.00  0.00    -0.244 NA
HETATM   21  C17 UNL     1      23.468   5.488  52.116  1.00  0.00     0.200 C 
BRANCH  21  22
HETATM   22  N4  UNL     1      22.792   6.632  51.630  1.00  0.00    -0.394 N 
HETATM   23  H19 UNL     1      23.016   7.420  52.299  1.00  0.00     0.156 HD
HETATM   24  H20 UNL     1      22.232   6.468  50.743  1.00  0.00     0.156 HD
ENDBRANCH  21  22
ENDBRANCH   8  20
BRANCH   1  25
HETATM   25  C3  UNL     1      22.195   1.413  52.683  1.00  0.00     0.124 C 
HETATM   26  C2  UNL     1      23.194   0.538  52.754  1.00  0.00     0.010 C 
HETATM   27  C1  UNL     1      22.905  -0.659  53.590  1.00  0.00     0.039 C 
HETATM   28  F1  UNL     1      21.160   0.911  53.441  1.00  0.00    -0.208 F 
ENDBRANCH   1  25
TORSDOF 5
ENDMDL
MODEL 9
REMARK VINA RESULT:      -6.6      2.951      4.202
REMARK  5 active torsions:
REMARK  status: ('A' for Active; 'I' for Inactive)
REMARK    1  A    between atoms: C3_3  and  C4_5 
REMARK    2  A    between atoms: C7_11  and  C8_12 
REMARK    3  A    between atoms: C9_13  and  N2_14 
REMARK    4  A    between atoms: C16_22  and  N3_23 
REMARK    5  A    between atoms: C17_24  and  N4_25 
ROOT
HETATM    1  C4  UNL     1      22.040   6.595  50.407  1.00  0.00     0.237 C 
HETATM    2  O1  UNL     1      22.635   7.721  50.836  1.00  0.00    -0.364 OA
HETATM    3  C5  UNL     1      23.882   8.072  50.545  1.00  0.00     0.272 C 
HETATM    4  C6  UNL     1      24.961   7.092  50.556  1.00  0.00     0.245 C 
HETATM    5  O2  UNL     1      26.062   7.479  50.092  1.00  0.00    -0.271 OA
HETATM    6  N1  UNL     1      24.898   5.751  51.036  1.00  0.00    -0.323 N 
HETATM    7  C7  UNL     1      23.748   5.004  51.420  1.00  0.00     0.064 C 
HETATM    8  C16 UNL     1      22.500   5.363  51.151  1.00  0.00     0.098 C 
HETATM    9  H8  UNL     1      25.799   5.229  51.125  1.00  0.00     0.169 HD
ENDROOT
BRANCH   7  10
HETATM   10  C8  UNL     1      24.042   3.801  52.142  1.00  0.00     0.049 C 
HETATM   11  C9  UNL     1      24.943   2.841  52.045  1.00  0.00     0.093 C 
BRANCH  11  12
HETATM   12  N2  UNL     1      25.182   1.645  52.815  1.00  0.00    -0.356 N 
HETATM   13  C10 UNL     1      24.066   0.755  53.071  1.00  0.00     0.155 A 
HETATM   14  C11 UNL     1      24.516  -0.400  53.875  1.00  0.00    -0.005 A 
HETATM   15  C12 UNL     1      25.703  -0.687  54.340  1.00  0.00     0.019 A 
HETATM   16  C13 UNL     1      26.759   0.259  54.035  1.00  0.00     0.033 A 
HETATM   17 BR1  UNL     1      28.518  -0.078  54.672  1.00  0.00    -0.049 Br
HETATM   18  C14 UNL     1      26.490   1.344  53.319  1.00  0.00     0.025 A 
HETATM   19  C15 UNL     1      27.626   2.259  53.052  1.00  0.00     0.070 C 
ENDBRANCH  11  12
ENDBRANCH   7  10
BRANCH   8  20
HETATM   20  N3  UNL     1      21.527   4.477  51.626  1.00  0.00    -0.244 NA
HETATM   21  C17 UNL     1      21.009   3.643  50.780  1.00  0.00     0.200 C 
BRANCH  21  22
HETATM   22  N4  UNL     1      20.788   2.997  49.540  1.00  0.00    -0.394 N 
HETATM   23  H19 UNL     1      20.381   3.726  48.891  1.00  0.00     0.156 HD
HETATM   24  H20 UNL     1      21.063   1.972  49.523  1.00  0.00     0.156 HD
ENDBRANCH  21  22
ENDBRANCH   8  20
BRANCH   1  25
HETATM   25  C3  UNL     1      22.099   6.286  48.975  1.00  0.00     0.124 C 
HETATM   26  C2  UNL     1      22.809   5.636  48.058  1.00  0.00     0.010 C 
HETATM   27  C1  UNL     1      22.268   5.739  46.675  1.00  0.00     0.039 C 
HETATM   28  F1  UNL     1      21.036   6.877  48.324  1.00  0.00    -0.208 F 
ENDBRANCH   1  25
TORSDOF 5
ENDMDL
