MODEL 1
REMARK VINA RESULT:      -8.0      0.000      0.000
REMARK  8 active torsions:
REMARK  status: ('A' for Active; 'I' for Inactive)
REMARK    1  A    between atoms: C3_3  and  O1_5 
REMARK    2  A    between atoms: O1_5  and  C5_6 
REMARK    3  A    between atoms: C5_6  and  C6_7 
REMARK    4  A    between atoms: C8_9  and  S1_10 
REMARK    5  A    between atoms: S1_10  and  C9_12 
REMARK    6  A    between atoms: C13_16  and  C14_17 
REMARK    7  A    between atoms: C14_17  and  O3_18 
REMARK    8  A    between atoms: O3_18  and  C15_19 
ROOT
HETATM    1  C6  UNL     1      25.511   0.192  52.487  1.00  0.00    -0.024 A 
HETATM    2  C7  UNL     1      24.402  -0.506  52.982  1.00  0.00     0.030 A 
HETATM    3  C8  UNL     1      23.162   0.057  53.228  1.00  0.00     0.032 A 
HETATM    4  C11 UNL     1      23.081   1.404  52.944  1.00  0.00     0.021 A 
HETATM    5  C12 UNL     1      24.147   2.125  52.457  1.00  0.00     0.011 A 
HETATM    6  C13 UNL     1      25.357   1.557  52.220  1.00  0.00    -0.026 A 
ENDROOT
BRANCH   6   7
HETATM    7  C14 UNL     1      26.610   2.163  51.716  1.00  0.00     0.214 C 
BRANCH   7   8
HETATM    8  O3  UNL     1      26.529   2.416  50.337  1.00  0.00    -0.350 OA
BRANCH   8   9
HETATM    9  C15 UNL     1      26.169   3.648  49.813  1.00  0.00     0.058 A 
HETATM   10  C16 UNL     1      25.075   4.490  49.709  1.00  0.00     0.030 A 
HETATM   11  C17 UNL     1      25.410   5.620  49.028  1.00  0.00    -0.012 A 
HETATM   12  C18 UNL     1      26.731   5.580  48.651  1.00  0.00     0.011 A 
HETATM   13  C19 UNL     1      28.065   5.218  48.435  1.00  0.00     0.024 A 
HETATM   14  C20 UNL     1      27.221   4.287  49.169  1.00  0.00     0.041 A 
ENDBRANCH   8   9
ENDBRANCH   7   8
ENDBRANCH   6   7
BRANCH   1  15
HETATM   15  C5  UNL     1      26.772  -0.570  52.276  1.00  0.00     0.214 C 
BRANCH  15  16
HETATM   16  O1  UNL     1      27.449  -0.798  53.503  1.00  0.00    -0.352 OA
BRANCH  16  17
HETATM   17  C3  UNL     1      28.635  -0.198  53.828  1.00  0.00     0.038 C 
HETATM   18  C2  UNL     1      28.591   1.044  54.320  1.00  0.00     0.001 C 
HETATM   19  C1  UNL     1      29.682   1.948  54.760  1.00  0.00     0.038 C 
HETATM   20  C4  UNL     1      29.915  -0.915  53.639  1.00  0.00     0.076 C 
ENDBRANCH  16  17
ENDBRANCH  15  16
ENDBRANCH   1  15
BRANCH   3  21
HETATM   21  S1  UNL     1      21.842  -0.938  53.859  1.00  0.00     0.049 S 
HETATM   22  O2  UNL     1      22.118  -1.334  55.306  1.00  0.00    -0.253 OA
BRANCH  21  23
HETATM   23  C9  UNL     1      20.261  -0.098  53.811  1.00  0.00     0.109 C 
HETATM   24  C10 UNL     1      19.138  -1.033  53.374  1.00  0.00     0.019 C 
ENDBRANCH  21  23
ENDBRANCH   3  21
TORSDOF 8
ENDMDL
MODEL 2
REMARK VINA RESULT:      -8.0      1.559      2.231
REMARK  8 active torsions:
REMARK  status: ('A' for Active; 'I' for Inactive)
REMARK    1  A    between atoms: C3_3  and  O1_5 
REMARK    2  A    between atoms: O1_5  and  C5_6 
REMARK    3  A    between atoms: C5_6  and  C6_7 
REMARK    4  A    between atoms: C8_9  and  S1_10 
REMARK    5  A    between atoms: S1_10  and  C9_12 
REMARK    6  A    between atoms: C13_16  and  C14_17 
REMARK    7  A    between atoms: C14_17  and  O3_18 
REMARK    8  A    between atoms: O3_18  and  C15_19 
ROOT
HETATM    1  C6  UNL     1      24.964   1.988  52.700  1.00  0.00    -0.024 A 
HETATM    2  C7  UNL     1      23.704   1.567  53.147  1.00  0.00     0.030 A 
HETATM    3  C8  UNL     1      22.569   1.504  52.360  1.00  0.00     0.032 A 
HETATM    4  C11 UNL     1      22.759   1.897  51.052  1.00  0.00     0.021 A 
HETATM    5  C12 UNL     1      23.979   2.317  50.574  1.00  0.00     0.011 A 
HETATM    6  C13 UNL     1      25.084   2.373  51.360  1.00  0.00    -0.026 A 
ENDROOT
BRANCH   6   7
HETATM    7  C14 UNL     1      26.463   2.803  51.034  1.00  0.00     0.214 C 
BRANCH   7   8
HETATM    8  O3  UNL     1      26.607   3.037  49.657  1.00  0.00    -0.350 OA
BRANCH   8   9
HETATM    9  C15 UNL     1      26.926   4.278  49.128  1.00  0.00     0.058 A 
HETATM   10  C16 UNL     1      27.991   4.960  48.566  1.00  0.00     0.030 A 
HETATM   11  C17 UNL     1      27.621   6.230  48.241  1.00  0.00    -0.012 A 
HETATM   12  C18 UNL     1      26.305   6.446  48.571  1.00  0.00     0.011 A 
HETATM   13  C19 UNL     1      24.985   6.322  49.020  1.00  0.00     0.024 A 
HETATM   14  C20 UNL     1      25.857   5.164  49.151  1.00  0.00     0.041 A 
ENDBRANCH   8   9
ENDBRANCH   7   8
ENDBRANCH   6   7
BRANCH   1  15
HETATM   15  C5  UNL     1      26.082   1.991  53.681  1.00  0.00     0.214 C 
BRANCH  15  16
HETATM   16  O1  UNL     1      26.361   0.682  54.152  1.00  0.00    -0.352 OA
BRANCH  16  17
HETATM   17  C3  UNL     1      27.243  -0.165  53.538  1.00  0.00     0.038 C 
HETATM   18  C2  UNL     1      28.522  -0.122  53.925  1.00  0.00     0.001 C 
HETATM   19  C1  UNL     1      29.698  -0.899  53.461  1.00  0.00     0.038 C 
HETATM   20  C4  UNL     1      26.781  -1.093  52.482  1.00  0.00     0.076 C 
ENDBRANCH  16  17
ENDBRANCH  15  16
ENDBRANCH   1  15
BRANCH   3  21
HETATM   21  S1  UNL     1      21.035   0.956  53.051  1.00  0.00     0.049 S 
HETATM   22  O2  UNL     1      20.298   0.053  52.066  1.00  0.00    -0.253 OA
BRANCH  21  23
HETATM   23  C9  UNL     1      21.252   0.043  54.576  1.00  0.00     0.109 C 
HETATM   24  C10 UNL     1      21.244  -1.464  54.340  1.00  0.00     0.019 C 
ENDBRANCH  21  23
ENDBRANCH   3  21
TORSDOF 8
ENDMDL
MODEL 3
REMARK VINA RESULT:      -7.9      2.217      6.963
REMARK  8 active torsions:
REMARK  status: ('A' for Active; 'I' for Inactive)
REMARK    1  A    between atoms: C3_3  and  O1_5 
REMARK    2  A    between atoms: O1_5  and  C5_6 
REMARK    3  A    between atoms: C5_6  and  C6_7 
REMARK    4  A    between atoms: C8_9  and  S1_10 
REMARK    5  A    between atoms: S1_10  and  C9_12 
REMARK    6  A    between atoms: C13_16  and  C14_17 
REMARK    7  A    between atoms: C14_17  and  O3_18 
REMARK    8  A    between atoms: O3_18  and  C15_19 
ROOT
HETATM    1  C6  UNL     1      25.170   2.305  51.293  1.00  0.00    -0.024 A 
HETATM    2  C7  UNL     1      26.472   2.186  51.798  1.00  0.00     0.030 A 
HETATM    3  C8  UNL     1      26.825   1.421  52.895  1.00  0.00     0.032 A 
HETATM    4  C11 UNL     1      25.773   0.755  53.488  1.00  0.00     0.021 A 
HETATM    5  C12 UNL     1      24.482   0.846  53.024  1.00  0.00     0.011 A 
HETATM    6  C13 UNL     1      24.152   1.600  51.945  1.00  0.00    -0.026 A 
ENDROOT
BRANCH   6   7
HETATM    7  C14 UNL     1      22.834   1.830  51.311  1.00  0.00     0.214 C 
BRANCH   7   8
HETATM    8  O3  UNL     1      22.170   0.616  51.072  1.00  0.00    -0.350 OA
BRANCH   8   9
HETATM    9  C15 UNL     1      21.001   0.250  51.721  1.00  0.00     0.058 A 
HETATM   10  C16 UNL     1      19.627   0.339  51.584  1.00  0.00     0.030 A 
HETATM   11  C17 UNL     1      19.006  -0.261  52.637  1.00  0.00    -0.012 A 
HETATM   12  C18 UNL     1      19.933  -0.770  53.514  1.00  0.00     0.011 A 
HETATM   13  C19 UNL     1      21.110  -1.152  54.166  1.00  0.00     0.024 A 
HETATM   14  C20 UNL     1      21.236  -0.433  52.908  1.00  0.00     0.041 A 
ENDBRANCH   8   9
ENDBRANCH   7   8
ENDBRANCH   6   7
BRANCH   1  15
HETATM   15  C5  UNL     1      24.966   3.168  50.099  1.00  0.00     0.214 C 
BRANCH  15  16
HETATM   16  O1  UNL     1      26.194   3.440  49.442  1.00  0.00    -0.352 OA
BRANCH  16  17
HETATM   17  C3  UNL     1      26.618   4.705  49.135  1.00  0.00     0.038 C 
HETATM   18  C2  UNL     1      27.830   4.841  48.587  1.00  0.00     0.001 C 
HETATM   19  C1  UNL     1      28.561   6.056  48.148  1.00  0.00     0.038 C 
HETATM   20  C4  UNL     1      25.752   5.873  49.407  1.00  0.00     0.076 C 
ENDBRANCH  16  17
ENDBRANCH  15  16
ENDBRANCH   1  15
BRANCH   3  21
HETATM   21  S1  UNL     1      28.510   1.360  53.432  1.00  0.00     0.049 S 
HETATM   22  O2  UNL     1      28.837   2.571  54.301  1.00  0.00    -0.253 OA
BRANCH  21  23
HETATM   23  C9  UNL     1      28.878  -0.112  54.383  1.00  0.00     0.109 C 
HETATM   24  C10 UNL     1      29.640  -1.143  53.555  1.00  0.00     0.019 C 
ENDBRANCH  21  23
ENDBRANCH   3  21
TORSDOF 8
ENDMDL
MODEL 4
REMARK VINA RESULT:      -7.7      2.010      5.191
REMARK  8 active torsions:
REMARK  status: ('A' for Active; 'I' for Inactive)
REMARK    1  A    between atoms: C3_3  and  O1_5 
REMARK    2  A    between atoms: O1_5  and  C5_6 
REMARK    3  A    between atoms: C5_6  and  C6_7 
REMARK    4  A    between atoms: C8_9  and  S1_10 
REMARK    5  A    between atoms: S1_10  and  C9_12 
REMARK    6  A    between atoms: C13_16  and  C14_17 
REMARK    7  A    between atoms: C14_17  and  O3_18 
REMARK    8  A    between atoms: O3_18  and  C15_19 
ROOT
HETATM    1  C6  UNL     1      23.756   1.327  52.768  1.00  0.00    -0.024 A 
HETATM    2  C7  UNL     1      22.534   1.558  52.123  1.00  0.00     0.030 A 
HETATM    3  C8  UNL     1      21.487   0.655  52.071  1.00  0.00     0.032 A 
HETATM    4  C11 UNL     1      21.730  -0.537  52.720  1.00  0.00     0.021 A 
HETATM    5  C12 UNL     1      22.915  -0.802  53.364  1.00  0.00     0.011 A 
HETATM    6  C13 UNL     1      23.933   0.095  53.407  1.00  0.00    -0.026 A 
ENDROOT
BRANCH   6   7
HETATM    7  C14 UNL     1      25.271  -0.012  54.031  1.00  0.00     0.214 C 
BRANCH   7   8
HETATM    8  O3  UNL     1      26.180  -0.650  53.171  1.00  0.00    -0.350 OA
BRANCH   8   9
HETATM    9  C15 UNL     1      27.555  -0.544  53.309  1.00  0.00     0.058 A 
HETATM   10  C16 UNL     1      28.695  -1.330  53.311  1.00  0.00     0.030 A 
HETATM   11  C17 UNL     1      29.800  -0.560  53.511  1.00  0.00    -0.012 A 
HETATM   12  C18 UNL     1      29.446   0.761  53.650  1.00  0.00     0.011 A 
HETATM   13  C19 UNL     1      28.753   1.973  53.744  1.00  0.00     0.024 A 
HETATM   14  C20 UNL     1      27.976   0.764  53.516  1.00  0.00     0.041 A 
ENDBRANCH   8   9
ENDBRANCH   7   8
ENDBRANCH   6   7
BRANCH   1  15
HETATM   15  C5  UNL     1      24.775   2.411  52.729  1.00  0.00     0.214 C 
BRANCH  15  16
HETATM   16  O1  UNL     1      25.508   2.388  51.514  1.00  0.00    -0.352 OA
BRANCH  16  17
HETATM   17  C3  UNL     1      25.614   3.469  50.682  1.00  0.00     0.038 C 
HETATM   18  C2  UNL     1      26.700   3.555  49.907  1.00  0.00     0.001 C 
HETATM   19  C1  UNL     1      27.101   4.584  48.915  1.00  0.00     0.038 C 
HETATM   20  C4  UNL     1      24.552   4.499  50.650  1.00  0.00     0.076 C 
ENDBRANCH  16  17
ENDBRANCH  15  16
ENDBRANCH   1  15
BRANCH   3  21
HETATM   21  S1  UNL     1      19.994   1.071  51.218  1.00  0.00     0.049 S 
HETATM   22  O2  UNL     1      20.218   1.051  49.709  1.00  0.00    -0.253 OA
BRANCH  21  23
HETATM   23  C9  UNL     1      18.650  -0.053  51.588  1.00  0.00     0.109 C 
HETATM   24  C10 UNL     1      17.592  -0.051  50.490  1.00  0.00     0.019 C 
ENDBRANCH  21  23
ENDBRANCH   3  21
TORSDOF 8
ENDMDL
MODEL 5
REMARK VINA RESULT:      -7.7      3.025      6.777
REMARK  8 active torsions:
REMARK  status: ('A' for Active; 'I' for Inactive)
REMARK    1  A    between atoms: C3_3  and  O1_5 
REMARK    2  A    between atoms: O1_5  and  C5_6 
REMARK    3  A    between atoms: C5_6  and  C6_7 
REMARK    4  A    between atoms: C8_9  and  S1_10 
REMARK    5  A    between atoms: S1_10  and  C9_12 
REMARK    6  A    between atoms: C13_16  and  C14_17 
REMARK    7  A    between atoms: C14_17  and  O3_18 
REMARK    8  A    between atoms: O3_18  and  C15_19 
ROOT
HETATM    1  C6  UNL     1      24.135   1.743  53.020  1.00  0.00    -0.024 A 
HETATM    2  C7  UNL     1      25.524   1.916  53.089  1.00  0.00     0.030 A 
HETATM    3  C8  UNL     1      26.424   0.932  53.455  1.00  0.00     0.032 A 
HETATM    4  C11 UNL     1      25.848  -0.282  53.762  1.00  0.00     0.021 A 
HETATM    5  C12 UNL     1      24.490  -0.493  53.708  1.00  0.00     0.011 A 
HETATM    6  C13 UNL     1      23.619   0.483  53.345  1.00  0.00    -0.026 A 
ENDROOT
BRANCH   6   7
HETATM    7  C14 UNL     1      22.143   0.451  53.241  1.00  0.00     0.214 C 
BRANCH   7   8
HETATM    8  O3  UNL     1      21.734  -0.182  52.055  1.00  0.00    -0.350 OA
BRANCH   8   9
HETATM    9  C15 UNL     1      20.846   0.390  51.158  1.00  0.00     0.058 A 
HETATM   10  C16 UNL     1      19.502   0.700  51.032  1.00  0.00     0.030 A 
HETATM   11  C17 UNL     1      19.263   1.287  49.827  1.00  0.00    -0.012 A 
HETATM   12  C18 UNL     1      20.428   1.390  49.104  1.00  0.00     0.011 A 
HETATM   13  C19 UNL     1      21.754   1.337  48.662  1.00  0.00     0.024 A 
HETATM   14  C20 UNL     1      21.459   0.801  49.982  1.00  0.00     0.041 A 
ENDBRANCH   8   9
ENDBRANCH   7   8
ENDBRANCH   6   7
BRANCH   1  15
HETATM   15  C5  UNL     1      23.310   2.909  52.603  1.00  0.00     0.214 C 
BRANCH  15  16
HETATM   16  O1  UNL     1      23.748   3.433  51.359  1.00  0.00    -0.352 OA
BRANCH  16  17
HETATM   17  C3  UNL     1      22.949   4.178  50.536  1.00  0.00     0.038 C 
HETATM   18  C2  UNL     1      21.692   4.408  50.927  1.00  0.00     0.001 C 
HETATM   19  C1  UNL     1      20.598   5.167  50.270  1.00  0.00     0.038 C 
HETATM   20  C4  UNL     1      23.475   4.708  49.258  1.00  0.00     0.076 C 
ENDBRANCH  16  17
ENDBRANCH  15  16
ENDBRANCH   1  15
BRANCH   3  21
HETATM   21  S1  UNL     1      28.157   1.285  53.505  1.00  0.00     0.049 S 
HETATM   22  O2  UNL     1      28.405   2.655  54.128  1.00  0.00    -0.253 OA
BRANCH  21  23
HETATM   23  C9  UNL     1      29.081   0.076  54.449  1.00  0.00     0.109 C 
HETATM   24  C10 UNL     1      29.807  -0.913  53.543  1.00  0.00     0.019 C 
ENDBRANCH  21  23
ENDBRANCH   3  21
TORSDOF 8
ENDMDL
MODEL 6
REMARK VINA RESULT:      -7.7      2.569      6.498
REMARK  8 active torsions:
REMARK  status: ('A' for Active; 'I' for Inactive)
REMARK    1  A    between atoms: C3_3  and  O1_5 
REMARK    2  A    between atoms: O1_5  and  C5_6 
REMARK    3  A    between atoms: C5_6  and  C6_7 
REMARK    4  A    between atoms: C8_9  and  S1_10 
REMARK    5  A    between atoms: S1_10  and  C9_12 
REMARK    6  A    between atoms: C13_16  and  C14_17 
REMARK    7  A    between atoms: C14_17  and  O3_18 
REMARK    8  A    between atoms: O3_18  and  C15_19 
ROOT
HETATM    1  C6  UNL     1      25.611   2.893  51.217  1.00  0.00    -0.024 A 
HETATM    2  C7  UNL     1      26.818   2.357  51.684  1.00  0.00     0.030 A 
HETATM    3  C8  UNL     1      27.065   1.996  52.997  1.00  0.00     0.032 A 
HETATM    4  C11 UNL     1      26.005   2.206  53.855  1.00  0.00     0.021 A 
HETATM    5  C12 UNL     1      24.805   2.730  53.436  1.00  0.00     0.011 A 
HETATM    6  C13 UNL     1      24.578   3.078  52.143  1.00  0.00    -0.026 A 
ENDROOT
BRANCH   6   7
HETATM    7  C14 UNL     1      23.373   3.661  51.512  1.00  0.00     0.214 C 
BRANCH   7   8
HETATM    8  O3  UNL     1      22.219   3.362  52.255  1.00  0.00    -0.350 OA
BRANCH   8   9
HETATM    9  C15 UNL     1      21.498   2.189  52.095  1.00  0.00     0.058 A 
HETATM   10  C16 UNL     1      20.688   1.324  52.811  1.00  0.00     0.030 A 
HETATM   11  C17 UNL     1      20.277   0.296  52.019  1.00  0.00    -0.012 A 
HETATM   12  C18 UNL     1      20.791   0.432  50.751  1.00  0.00     0.011 A 
HETATM   13  C19 UNL     1      21.463   0.867  49.604  1.00  0.00     0.024 A 
HETATM   14  C20 UNL     1      21.589   1.673  50.809  1.00  0.00     0.041 A 
ENDBRANCH   8   9
ENDBRANCH   7   8
ENDBRANCH   6   7
BRANCH   1  15
HETATM   15  C5  UNL     1      25.513   3.223  49.769  1.00  0.00     0.214 C 
BRANCH  15  16
HETATM   16  O1  UNL     1      26.772   3.613  49.242  1.00  0.00    -0.352 OA
BRANCH  16  17
HETATM   17  C3  UNL     1      27.059   4.893  48.853  1.00  0.00     0.038 C 
HETATM   18  C2  UNL     1      28.299   5.153  48.429  1.00  0.00     0.001 C 
HETATM   19  C1  UNL     1      28.912   6.417  47.948  1.00  0.00     0.038 C 
HETATM   20  C4  UNL     1      26.018   5.943  48.904  1.00  0.00     0.076 C 
ENDBRANCH  16  17
ENDBRANCH  15  16
ENDBRANCH   1  15
BRANCH   3  21
HETATM   21  S1  UNL     1      28.639   1.332  53.457  1.00  0.00     0.049 S 
HETATM   22  O2  UNL     1      29.139   1.986  54.742  1.00  0.00    -0.253 OA
BRANCH  21  23
HETATM   23  C9  UNL     1      28.590  -0.438  53.724  1.00  0.00     0.109 C 
HETATM   24  C10 UNL     1      29.987  -1.050  53.710  1.00  0.00     0.019 C 
ENDBRANCH  21  23
ENDBRANCH   3  21
TORSDOF 8
ENDMDL
MODEL 7
REMARK VINA RESULT:      -7.6      2.156      7.082
REMARK  8 active torsions:
REMARK  status: ('A' for Active; 'I' for Inactive)
REMARK    1  A    between atoms: C3_3  and  O1_5 
REMARK    2  A    between atoms: O1_5  and  C5_6 
REMARK    3  A    between atoms: C5_6  and  C6_7 
REMARK    4  A    between atoms: C8_9  and  S1_10 
REMARK    5  A    between atoms: S1_10  and  C9_12 
REMARK    6  A    between atoms: C13_16  and  C14_17 
REMARK    7  A    between atoms: C14_17  and  O3_18 
REMARK    8  A    between atoms: O3_18  and  C15_19 
ROOT
HETATM    1  C6  UNL     1      24.686   1.696  51.894  1.00  0.00    -0.024 A 
HETATM    2  C7  UNL     1      26.038   1.799  52.246  1.00  0.00     0.030 A 
HETATM    3  C8  UNL     1      26.666   1.017  53.198  1.00  0.00     0.032 A 
HETATM    4  C11 UNL     1      25.846   0.090  53.806  1.00  0.00     0.021 A 
HETATM    5  C12 UNL     1      24.514  -0.043  53.489  1.00  0.00     0.011 A 
HETATM    6  C13 UNL     1      23.912   0.732  52.551  1.00  0.00    -0.026 A 
ENDROOT
BRANCH   6   7
HETATM    7  C14 UNL     1      22.507   0.746  52.088  1.00  0.00     0.214 C 
BRANCH   7   8
HETATM    8  O3  UNL     1      21.631   0.368  53.119  1.00  0.00    -0.350 OA
BRANCH   8   9
HETATM    9  C15 UNL     1      20.336  -0.069  52.891  1.00  0.00     0.058 A 
HETATM   10  C16 UNL     1      19.356  -0.862  53.464  1.00  0.00     0.030 A 
HETATM   11  C17 UNL     1      18.242  -0.877  52.682  1.00  0.00    -0.012 A 
HETATM   12  C18 UNL     1      18.430  -0.103  51.562  1.00  0.00     0.011 A 
HETATM   13  C19 UNL     1      18.948   0.739  50.572  1.00  0.00     0.024 A 
HETATM   14  C20 UNL     1      19.803   0.423  51.706  1.00  0.00     0.041 A 
ENDBRANCH   8   9
ENDBRANCH   7   8
ENDBRANCH   6   7
BRANCH   1  15
HETATM   15  C5  UNL     1      24.171   2.615  50.843  1.00  0.00     0.214 C 
BRANCH  15  16
HETATM   16  O1  UNL     1      24.762   3.901  50.947  1.00  0.00    -0.352 OA
BRANCH  16  17
HETATM   17  C3  UNL     1      25.357   4.541  49.894  1.00  0.00     0.038 C 
HETATM   18  C2  UNL     1      26.648   4.285  49.658  1.00  0.00     0.001 C 
HETATM   19  C1  UNL     1      27.561   4.808  48.611  1.00  0.00     0.038 C 
HETATM   20  C4  UNL     1      24.584   5.481  49.053  1.00  0.00     0.076 C 
ENDBRANCH  16  17
ENDBRANCH  15  16
ENDBRANCH   1  15
BRANCH   3  21
HETATM   21  S1  UNL     1      28.384   1.252  53.551  1.00  0.00     0.049 S 
HETATM   22  O2  UNL     1      28.589   2.516  54.382  1.00  0.00    -0.253 OA
BRANCH  21  23
HETATM   23  C9  UNL     1      29.098  -0.120  54.453  1.00  0.00     0.109 C 
HETATM   24  C10 UNL     1      29.489  -1.265  53.524  1.00  0.00     0.019 C 
ENDBRANCH  21  23
ENDBRANCH   3  21
TORSDOF 8
ENDMDL
MODEL 8
REMARK VINA RESULT:      -7.5      1.909      5.389
REMARK  8 active torsions:
REMARK  status: ('A' for Active; 'I' for Inactive)
REMARK    1  A    between atoms: C3_3  and  O1_5 
REMARK    2  A    between atoms: O1_5  and  C5_6 
REMARK    3  A    between atoms: C5_6  and  C6_7 
REMARK    4  A    between atoms: C8_9  and  S1_10 
REMARK    5  A    between atoms: S1_10  and  C9_12 
REMARK    6  A    between atoms: C13_16  and  C14_17 
REMARK    7  A    between atoms: C14_17  and  O3_18 
REMARK    8  A    between atoms: O3_18  and  C15_19 
ROOT
HETATM    1  C6  UNL     1      23.685   2.037  52.962  1.00  0.00    -0.024 A 
HETATM    2  C7  UNL     1      22.369   1.672  52.648  1.00  0.00     0.030 A 
HETATM    3  C8  UNL     1      21.882   0.378  52.678  1.00  0.00     0.032 A 
HETATM    4  C11 UNL     1      22.809  -0.572  53.052  1.00  0.00     0.021 A 
HETATM    5  C12 UNL     1      24.109  -0.255  53.368  1.00  0.00     0.011 A 
HETATM    6  C13 UNL     1      24.572   1.021  53.334  1.00  0.00    -0.026 A 
ENDROOT
BRANCH   6   7
HETATM    7  C14 UNL     1      25.923   1.552  53.624  1.00  0.00     0.214 C 
BRANCH   7   8
HETATM    8  O3  UNL     1      26.865   1.065  52.703  1.00  0.00    -0.350 OA
BRANCH   8   9
HETATM    9  C15 UNL     1      27.989   0.345  53.077  1.00  0.00     0.058 A 
HETATM   10  C16 UNL     1      29.266   0.537  53.578  1.00  0.00     0.030 A 
HETATM   11  C17 UNL     1      29.900  -0.658  53.727  1.00  0.00    -0.012 A 
HETATM   12  C18 UNL     1      29.080  -1.689  53.335  1.00  0.00     0.011 A 
HETATM   13  C19 UNL     1      28.015  -2.467  52.868  1.00  0.00     0.024 A 
HETATM   14  C20 UNL     1      27.832  -1.025  52.911  1.00  0.00     0.041 A 
ENDBRANCH   8   9
ENDBRANCH   7   8
ENDBRANCH   6   7
BRANCH   1  15
HETATM   15  C5  UNL     1      24.042   3.479  52.881  1.00  0.00     0.214 C 
BRANCH  15  16
HETATM   16  O1  UNL     1      23.738   4.017  51.603  1.00  0.00    -0.352 OA
BRANCH  16  17
HETATM   17  C3  UNL     1      24.412   3.671  50.464  1.00  0.00     0.038 C 
HETATM   18  C2  UNL     1      25.721   3.938  50.408  1.00  0.00     0.001 C 
HETATM   19  C1  UNL     1      26.712   3.690  49.332  1.00  0.00     0.038 C 
HETATM   20  C4  UNL     1      23.702   3.020  49.341  1.00  0.00     0.076 C 
ENDBRANCH  16  17
ENDBRANCH  15  16
ENDBRANCH   1  15
BRANCH   3  21
HETATM   21  S1  UNL     1      20.195   0.052  52.253  1.00  0.00     0.049 S 
HETATM   22  O2  UNL     1      19.439  -0.500  53.458  1.00  0.00    -0.253 OA
BRANCH  21  23
HETATM   23  C9  UNL     1      19.331   1.513  51.684  1.00  0.00     0.109 C 
HETATM   24  C10 UNL     1      19.477   1.705  50.178  1.00  0.00     0.019 C 
ENDBRANCH  21  23
ENDBRANCH   3  21
TORSDOF 8
ENDMDL
MODEL 9
REMARK VINA RESULT:      -7.5      1.896      5.174
REMARK  8 active torsions:
REMARK  status: ('A' for Active; 'I' for Inactive)
REMARK    1  A    between atoms: C3_3  and  O1_5 
REMARK    2  A    between atoms: O1_5  and  C5_6 
REMARK    3  A    between atoms: C5_6  and  C6_7 
REMARK    4  A    between atoms: C8_9  and  S1_10 
REMARK    5  A    between atoms: S1_10  and  C9_12 
REMARK    6  A    between atoms: C13_16  and  C14_17 
REMARK    7  A    between atoms: C14_17  and  O3_18 
REMARK    8  A    between atoms: O3_18  and  C15_19 
ROOT
HETATM    1  C6  UNL     1      24.477   2.121  51.855  1.00  0.00    -0.024 A 
HETATM    2  C7  UNL     1      25.024   1.270  52.823  1.00  0.00     0.030 A 
HETATM    3  C8  UNL     1      26.379   1.091  53.040  1.00  0.00     0.032 A 
HETATM    4  C11 UNL     1      27.192   1.832  52.209  1.00  0.00     0.021 A 
HETATM    5  C12 UNL     1      26.694   2.678  51.246  1.00  0.00     0.011 A 
HETATM    6  C13 UNL     1      25.362   2.844  51.047  1.00  0.00    -0.026 A 
ENDROOT
BRANCH   6   7
HETATM    7  C14 UNL     1      24.644   3.688  50.065  1.00  0.00     0.214 C 
BRANCH   7   8
HETATM    8  O3  UNL     1      25.484   4.047  48.998  1.00  0.00    -0.350 OA
BRANCH   8   9
HETATM    9  C15 UNL     1      26.106   5.282  48.905  1.00  0.00     0.058 A 
HETATM   10  C16 UNL     1      25.835   6.631  49.059  1.00  0.00     0.030 A 
HETATM   11  C17 UNL     1      26.951   7.370  48.802  1.00  0.00    -0.012 A 
HETATM   12  C18 UNL     1      28.002   6.551  48.468  1.00  0.00     0.011 A 
HETATM   13  C19 UNL     1      28.826   5.457  48.180  1.00  0.00     0.024 A 
HETATM   14  C20 UNL     1      27.442   5.186  48.538  1.00  0.00     0.041 A 
ENDBRANCH   8   9
ENDBRANCH   7   8
ENDBRANCH   6   7
BRANCH   1  15
HETATM   15  C5  UNL     1      22.994   2.198  51.758  1.00  0.00     0.214 C 
BRANCH  15  16
HETATM   16  O1  UNL     1      22.414   0.906  51.671  1.00  0.00    -0.352 OA
BRANCH  16  17
HETATM   17  C3  UNL     1      21.628   0.368  52.654  1.00  0.00     0.038 C 
HETATM   18  C2  UNL     1      22.014  -0.791  53.197  1.00  0.00     0.001 C 
HETATM   19  C1  UNL     1      21.391  -1.614  54.264  1.00  0.00     0.038 C 
HETATM   20  C4  UNL     1      20.395   1.059  53.091  1.00  0.00     0.076 C 
ENDBRANCH  16  17
ENDBRANCH  15  16
ENDBRANCH   1  15
BRANCH   3  21
HETATM   21  S1  UNL     1      26.940  -0.020  54.298  1.00  0.00     0.049 S 
HETATM   22  O2  UNL     1      26.723  -1.468  53.866  1.00  0.00    -0.253 OA
BRANCH  21  23
HETATM   23  C9  UNL     1      28.678   0.185  54.675  1.00  0.00     0.109 C 
HETATM   24  C10 UNL     1      29.555  -0.706  53.802  1.00  0.00     0.019 C 
ENDBRANCH  21  23
ENDBRANCH   3  21
TORSDOF 8
ENDMDL
