MODEL 1
REMARK VINA RESULT:      -7.2      0.000      0.000
REMARK  10 active torsions:
REMARK  status: ('A' for Active; 'I' for Inactive)
REMARK    1  A    between atoms: O1_1  and  C1_2 
REMARK    2  A    between atoms: C2_3  and  C17_22 
REMARK    3  A    between atoms: C6_8  and  N2_9 
REMARK    4  A    between atoms: N2_9  and  C7_10 
REMARK    5  A    between atoms: C7_10  and  C8_11 
REMARK    6  A    between atoms: C8_11  and  C9_12 
REMARK    7  A    between atoms: C9_12  and  C10_13 
REMARK    8  A    between atoms: C10_13  and  C11_14 
REMARK    9  A    between atoms: C11_14  and  N3_15 
REMARK   10  A    between atoms: C16_21  and  C17_22 
ROOT
HETATM    1  N2  UNL     1      26.580   2.505  52.020  1.00  0.00    -0.382 N 
HETATM    2  H6  UNL     1      26.690   3.356  52.562  1.00  0.00     0.160 HD
ENDROOT
BRANCH   1   3
HETATM    3  C6  UNL     1      26.935   1.179  52.357  1.00  0.00     0.018 A 
HETATM    4  C5  UNL     1      26.459  -0.082  51.921  1.00  0.00     0.022 A 
HETATM    5  C4  UNL     1      27.297  -0.811  52.717  1.00  0.00    -0.012 A 
HETATM    6  C3  UNL     1      28.176  -0.135  53.539  1.00  0.00     0.011 A 
HETATM    7  N1  UNL     1      28.598   1.202  53.922  1.00  0.00     0.000 N 
HETATM    8  C17 UNL     1      28.956   0.463  54.267  1.00  0.00     0.025 A 
HETATM    9  C16 UNL     1      27.926   1.122  53.291  1.00  0.00     0.046 A 
HETATM   10  C2  UNL     1      29.493   1.709  54.752  1.00  0.00     0.029 A 
HETATM   11  C1  UNL     1      28.520   2.425  53.871  1.00  0.00     0.139 A 
BRANCH  11  12
HETATM   12  O1  UNL     1      29.188   3.167  52.907  1.00  0.00    -0.394 OA
HETATM   13  H1  UNL     1      28.644   3.965  52.653  1.00  0.00     0.210 HD
ENDBRANCH  11  12
ENDBRANCH   1   3
BRANCH   1  14
HETATM   14  C7  UNL     1      26.010   2.474  50.732  1.00  0.00     0.214 C 
BRANCH  14  15
HETATM   15  C8  UNL     1      26.536   3.576  49.931  1.00  0.00    -0.087 C 
BRANCH  15  16
HETATM   16  C9  UNL     1      26.985   4.490  49.241  1.00  0.00    -0.103 C 
BRANCH  16  17
HETATM   17  C10 UNL     1      27.548   5.590  48.425  1.00  0.00     0.113 C 
BRANCH  17  18
HETATM   18  C11 UNL     1      29.058   5.382  48.283  1.00  0.00     0.129 C 
BRANCH  18  19
HETATM   19  N3  UNL     1      29.846   6.508  48.502  1.00  0.00    -0.408 N 
HETATM   20  C12 UNL     1      31.209   6.510  48.682  1.00  0.00     0.143 C 
HETATM   21  C13 UNL     1      31.745   7.625  49.562  1.00  0.00     0.187 C 
HETATM   22  O2  UNL     1      31.003   8.790  49.486  1.00  0.00    -0.388 OA
HETATM   23  C14 UNL     1      30.241   8.870  48.305  1.00  0.00     0.187 C 
HETATM   24  C15 UNL     1      29.216   7.746  48.305  1.00  0.00     0.143 C 
ENDBRANCH  18  19
ENDBRANCH  17  18
ENDBRANCH  16  17
ENDBRANCH  15  16
ENDBRANCH  14  15
ENDBRANCH   1  14
TORSDOF 10
ENDMDL
MODEL 2
REMARK VINA RESULT:      -6.8      1.784      2.132
REMARK  10 active torsions:
REMARK  status: ('A' for Active; 'I' for Inactive)
REMARK    1  A    between atoms: O1_1  and  C1_2 
REMARK    2  A    between atoms: C2_3  and  C17_22 
REMARK    3  A    between atoms: C6_8  and  N2_9 
REMARK    4  A    between atoms: N2_9  and  C7_10 
REMARK    5  A    between atoms: C7_10  and  C8_11 
REMARK    6  A    between atoms: C8_11  and  C9_12 
REMARK    7  A    between atoms: C9_12  and  C10_13 
REMARK    8  A    between atoms: C10_13  and  C11_14 
REMARK    9  A    between atoms: C11_14  and  N3_15 
REMARK   10  A    between atoms: C16_21  and  C17_22 
ROOT
HETATM    1  N2  UNL     1      26.778   2.450  51.880  1.00  0.00    -0.382 N 
HETATM    2  H6  UNL     1      26.853   3.328  52.383  1.00  0.00     0.160 HD
ENDROOT
BRANCH   1   3
HETATM    3  C6  UNL     1      27.060   1.139  52.325  1.00  0.00     0.018 A 
HETATM    4  C5  UNL     1      26.564  -0.132  51.943  1.00  0.00     0.022 A 
HETATM    5  C4  UNL     1      27.322  -0.834  52.836  1.00  0.00    -0.012 A 
HETATM    6  C3  UNL     1      28.173  -0.135  53.668  1.00  0.00     0.011 A 
HETATM    7  N1  UNL     1      28.622   1.210  53.990  1.00  0.00     0.000 N 
HETATM    8  C17 UNL     1      28.929   0.484  54.405  1.00  0.00     0.025 A 
HETATM    9  C16 UNL     1      27.988   1.111  53.323  1.00  0.00     0.046 A 
HETATM   10  C2  UNL     1      29.482   1.741  54.841  1.00  0.00     0.029 A 
HETATM   11  C1  UNL     1      28.594   2.429  53.855  1.00  0.00     0.139 A 
BRANCH  11  12
HETATM   12  O1  UNL     1      29.349   3.081  52.890  1.00  0.00    -0.394 OA
HETATM   13  H1  UNL     1      29.398   2.524  52.062  1.00  0.00     0.210 HD
ENDBRANCH  11  12
ENDBRANCH   1   3
BRANCH   1  14
HETATM   14  C7  UNL     1      26.343   2.357  50.543  1.00  0.00     0.214 C 
BRANCH  14  15
HETATM   15  C8  UNL     1      26.588   3.621  49.854  1.00  0.00    -0.087 C 
BRANCH  15  16
HETATM   16  C9  UNL     1      26.806   4.675  49.258  1.00  0.00    -0.103 C 
BRANCH  16  17
HETATM   17  C10 UNL     1      27.074   5.955  48.563  1.00  0.00     0.113 C 
BRANCH  17  18
HETATM   18  C11 UNL     1      26.359   7.085  49.308  1.00  0.00     0.129 C 
BRANCH  18  19
HETATM   19  N3  UNL     1      26.874   8.362  49.105  1.00  0.00    -0.408 N 
HETATM   20  C12 UNL     1      28.177   8.659  48.785  1.00  0.00     0.143 C 
HETATM   21  C13 UNL     1      28.677  10.003  49.286  1.00  0.00     0.187 C 
HETATM   22  O2  UNL     1      27.688  10.967  49.351  1.00  0.00    -0.388 OA
HETATM   23  C14 UNL     1      26.591  10.676  48.520  1.00  0.00     0.187 C 
HETATM   24  C15 UNL     1      25.930   9.396  49.010  1.00  0.00     0.143 C 
ENDBRANCH  18  19
ENDBRANCH  17  18
ENDBRANCH  16  17
ENDBRANCH  15  16
ENDBRANCH  14  15
ENDBRANCH   1  14
TORSDOF 10
ENDMDL
MODEL 3
REMARK VINA RESULT:      -6.7      3.681      6.219
REMARK  10 active torsions:
REMARK  status: ('A' for Active; 'I' for Inactive)
REMARK    1  A    between atoms: O1_1  and  C1_2 
REMARK    2  A    between atoms: C2_3  and  C17_22 
REMARK    3  A    between atoms: C6_8  and  N2_9 
REMARK    4  A    between atoms: N2_9  and  C7_10 
REMARK    5  A    between atoms: C7_10  and  C8_11 
REMARK    6  A    between atoms: C8_11  and  C9_12 
REMARK    7  A    between atoms: C9_12  and  C10_13 
REMARK    8  A    between atoms: C10_13  and  C11_14 
REMARK    9  A    between atoms: C11_14  and  N3_15 
REMARK   10  A    between atoms: C16_21  and  C17_22 
ROOT
HETATM    1  N2  UNL     1      26.515   2.693  52.060  1.00  0.00    -0.382 N 
HETATM    2  H6  UNL     1      26.238   3.416  52.715  1.00  0.00     0.160 HD
ENDROOT
BRANCH   1   3
HETATM    3  C6  UNL     1      26.810   1.333  52.303  1.00  0.00     0.018 A 
HETATM    4  C5  UNL     1      26.261   0.127  51.801  1.00  0.00     0.022 A 
HETATM    5  C4  UNL     1      27.079  -0.693  52.526  1.00  0.00    -0.012 A 
HETATM    6  C3  UNL     1      28.010  -0.115  53.366  1.00  0.00     0.011 A 
HETATM    7  N1  UNL     1      28.507   1.173  53.823  1.00  0.00     0.000 N 
HETATM    8  C17 UNL     1      28.835   0.396  54.111  1.00  0.00     0.025 A 
HETATM    9  C16 UNL     1      27.818   1.167  53.205  1.00  0.00     0.046 A 
HETATM   10  C2  UNL     1      29.445   1.580  54.660  1.00  0.00     0.029 A 
HETATM   11  C1  UNL     1      28.490   2.399  53.852  1.00  0.00     0.139 A 
BRANCH  11  12
HETATM   12  O1  UNL     1      29.173   3.167  52.920  1.00  0.00    -0.394 OA
HETATM   13  H1  UNL     1      28.787   4.088  52.888  1.00  0.00     0.210 HD
ENDBRANCH  11  12
ENDBRANCH   1   3
BRANCH   1  14
HETATM   14  C7  UNL     1      26.672   2.918  50.677  1.00  0.00     0.214 C 
BRANCH  14  15
HETATM   15  C8  UNL     1      25.364   3.097  50.054  1.00  0.00    -0.087 C 
BRANCH  15  16
HETATM   16  C9  UNL     1      24.271   3.260  49.512  1.00  0.00    -0.103 C 
BRANCH  16  17
HETATM   17  C10 UNL     1      22.962   3.481  48.856  1.00  0.00     0.113 C 
BRANCH  17  18
HETATM   18  C11 UNL     1      21.867   3.510  49.926  1.00  0.00     0.129 C 
BRANCH  18  19
HETATM   19  N3  UNL     1      21.882   2.457  50.834  1.00  0.00    -0.408 N 
HETATM   20  C12 UNL     1      22.097   2.569  52.187  1.00  0.00     0.143 C 
HETATM   21  C13 UNL     1      22.754   1.366  52.841  1.00  0.00     0.187 C 
HETATM   22  O2  UNL     1      22.427   0.166  52.236  1.00  0.00    -0.388 OA
HETATM   23  C14 UNL     1      21.233   0.239  51.496  1.00  0.00     0.187 C 
HETATM   24  C15 UNL     1      21.426   1.221  50.350  1.00  0.00     0.143 C 
ENDBRANCH  18  19
ENDBRANCH  17  18
ENDBRANCH  16  17
ENDBRANCH  15  16
ENDBRANCH  14  15
ENDBRANCH   1  14
TORSDOF 10
ENDMDL
MODEL 4
REMARK VINA RESULT:      -6.6      5.391      8.893
REMARK  10 active torsions:
REMARK  status: ('A' for Active; 'I' for Inactive)
REMARK    1  A    between atoms: O1_1  and  C1_2 
REMARK    2  A    between atoms: C2_3  and  C17_22 
REMARK    3  A    between atoms: C6_8  and  N2_9 
REMARK    4  A    between atoms: N2_9  and  C7_10 
REMARK    5  A    between atoms: C7_10  and  C8_11 
REMARK    6  A    between atoms: C8_11  and  C9_12 
REMARK    7  A    between atoms: C9_12  and  C10_13 
REMARK    8  A    between atoms: C10_13  and  C11_14 
REMARK    9  A    between atoms: C11_14  and  N3_15 
REMARK   10  A    between atoms: C16_21  and  C17_22 
ROOT
HETATM    1  N2  UNL     1      25.732   0.534  52.395  1.00  0.00    -0.382 N 
HETATM    2  H6  UNL     1      25.619   1.248  51.683  1.00  0.00     0.160 HD
ENDROOT
BRANCH   1   3
HETATM    3  C6  UNL     1      26.890  -0.192  52.755  1.00  0.00     0.018 A 
HETATM    4  C5  UNL     1      27.203  -1.573  52.731  1.00  0.00     0.022 A 
HETATM    5  C4  UNL     1      28.465  -1.423  53.231  1.00  0.00    -0.012 A 
HETATM    6  C3  UNL     1      28.904  -0.150  53.534  1.00  0.00     0.011 A 
HETATM    7  N1  UNL     1      28.492   1.245  53.522  1.00  0.00     0.000 N 
HETATM    8  C17 UNL     1      29.295   0.978  53.803  1.00  0.00     0.025 A 
HETATM    9  C16 UNL     1      27.888   0.610  53.223  1.00  0.00     0.046 A 
HETATM   10  C2  UNL     1      29.048   2.397  53.850  1.00  0.00     0.029 A 
HETATM   11  C1  UNL     1      27.672   2.136  53.328  1.00  0.00     0.139 A 
BRANCH  11  12
HETATM   12  O1  UNL     1      27.504   2.723  52.082  1.00  0.00    -0.394 OA
HETATM   13  H1  UNL     1      28.394   2.909  51.669  1.00  0.00     0.210 HD
ENDBRANCH  11  12
ENDBRANCH   1   3
BRANCH   1  14
HETATM   14  C7  UNL     1      24.684   0.095  53.227  1.00  0.00     0.214 C 
BRANCH  14  15
HETATM   15  C8  UNL     1      23.412   0.624  52.741  1.00  0.00    -0.087 C 
BRANCH  15  16
HETATM   16  C9  UNL     1      22.330   1.058  52.347  1.00  0.00    -0.103 C 
BRANCH  16  17
HETATM   17  C10 UNL     1      21.017   1.556  51.881  1.00  0.00     0.113 C 
BRANCH  17  18
HETATM   18  C11 UNL     1      20.278   0.421  51.166  1.00  0.00     0.129 C 
BRANCH  18  19
HETATM   19  N3  UNL     1      19.162  -0.083  51.826  1.00  0.00    -0.408 N 
HETATM   20  C12 UNL     1      19.135  -0.533  53.125  1.00  0.00     0.143 C 
HETATM   21  C13 UNL     1      18.122  -1.628  53.411  1.00  0.00     0.187 C 
HETATM   22  O2  UNL     1      16.985  -1.542  52.629  1.00  0.00    -0.388 OA
HETATM   23  C14 UNL     1      16.782  -0.250  52.109  1.00  0.00     0.187 C 
HETATM   24  C15 UNL     1      17.932   0.089  51.173  1.00  0.00     0.143 C 
ENDBRANCH  18  19
ENDBRANCH  17  18
ENDBRANCH  16  17
ENDBRANCH  15  16
ENDBRANCH  14  15
ENDBRANCH   1  14
TORSDOF 10
ENDMDL
MODEL 5
REMARK VINA RESULT:      -6.5      1.579      1.843
REMARK  10 active torsions:
REMARK  status: ('A' for Active; 'I' for Inactive)
REMARK    1  A    between atoms: O1_1  and  C1_2 
REMARK    2  A    between atoms: C2_3  and  C17_22 
REMARK    3  A    between atoms: C6_8  and  N2_9 
REMARK    4  A    between atoms: N2_9  and  C7_10 
REMARK    5  A    between atoms: C7_10  and  C8_11 
REMARK    6  A    between atoms: C8_11  and  C9_12 
REMARK    7  A    between atoms: C9_12  and  C10_13 
REMARK    8  A    between atoms: C10_13  and  C11_14 
REMARK    9  A    between atoms: C11_14  and  N3_15 
REMARK   10  A    between atoms: C16_21  and  C17_22 
ROOT
HETATM    1  N2  UNL     1      25.139   3.129  52.433  1.00  0.00    -0.382 N 
HETATM    2  H6  UNL     1      25.619   3.852  52.958  1.00  0.00     0.160 HD
ENDROOT
BRANCH   1   3
HETATM    3  C6  UNL     1      24.849   1.798  52.807  1.00  0.00     0.018 A 
HETATM    4  C5  UNL     1      23.682   1.002  52.697  1.00  0.00     0.022 A 
HETATM    5  C4  UNL     1      24.230  -0.104  53.284  1.00  0.00    -0.012 A 
HETATM    6  C3  UNL     1      25.542  -0.039  53.708  1.00  0.00     0.011 A 
HETATM    7  N1  UNL     1      26.689   0.852  53.776  1.00  0.00     0.000 N 
HETATM    8  C17 UNL     1      26.705   0.017  54.084  1.00  0.00     0.025 A 
HETATM    9  C16 UNL     1      25.910   1.174  53.394  1.00  0.00     0.046 A 
HETATM   10  C2  UNL     1      27.929   0.764  54.224  1.00  0.00     0.029 A 
HETATM   11  C1  UNL     1      27.239   1.935  53.600  1.00  0.00     0.139 A 
BRANCH  11  12
HETATM   12  O1  UNL     1      27.838   2.269  52.394  1.00  0.00    -0.394 OA
HETATM   13  H1  UNL     1      28.817   2.077  52.435  1.00  0.00     0.210 HD
ENDBRANCH  11  12
ENDBRANCH   1   3
BRANCH   1  14
HETATM   14  C7  UNL     1      24.628   3.322  51.135  1.00  0.00     0.214 C 
BRANCH  14  15
HETATM   15  C8  UNL     1      25.669   3.870  50.270  1.00  0.00    -0.087 C 
BRANCH  15  16
HETATM   16  C9  UNL     1      26.551   4.310  49.533  1.00  0.00    -0.103 C 
BRANCH  16  17
HETATM   17  C10 UNL     1      27.603   4.824  48.627  1.00  0.00     0.113 C 
BRANCH  17  18
HETATM   18  C11 UNL     1      27.338   6.306  48.346  1.00  0.00     0.129 C 
BRANCH  18  19
HETATM   19  N3  UNL     1      28.435   7.152  48.481  1.00  0.00    -0.408 N 
HETATM   20  C12 UNL     1      29.694   6.917  47.984  1.00  0.00     0.143 C 
HETATM   21  C13 UNL     1      30.832   7.526  48.784  1.00  0.00     0.187 C 
HETATM   22  O2  UNL     1      30.488   8.710  49.412  1.00  0.00    -0.388 OA
HETATM   23  C14 UNL     1      29.378   9.337  48.817  1.00  0.00     0.187 C 
HETATM   24  C15 UNL     1      28.162   8.436  48.977  1.00  0.00     0.143 C 
ENDBRANCH  18  19
ENDBRANCH  17  18
ENDBRANCH  16  17
ENDBRANCH  15  16
ENDBRANCH  14  15
ENDBRANCH   1  14
TORSDOF 10
ENDMDL
MODEL 6
REMARK VINA RESULT:      -6.5      3.779      4.821
REMARK  10 active torsions:
REMARK  status: ('A' for Active; 'I' for Inactive)
REMARK    1  A    between atoms: O1_1  and  C1_2 
REMARK    2  A    between atoms: C2_3  and  C17_22 
REMARK    3  A    between atoms: C6_8  and  N2_9 
REMARK    4  A    between atoms: N2_9  and  C7_10 
REMARK    5  A    between atoms: C7_10  and  C8_11 
REMARK    6  A    between atoms: C8_11  and  C9_12 
REMARK    7  A    between atoms: C9_12  and  C10_13 
REMARK    8  A    between atoms: C10_13  and  C11_14 
REMARK    9  A    between atoms: C11_14  and  N3_15 
REMARK   10  A    between atoms: C16_21  and  C17_22 
ROOT
HETATM    1  N2  UNL     1      25.598   1.156  52.572  1.00  0.00    -0.382 N 
HETATM    2  H6  UNL     1      25.733   2.135  52.339  1.00  0.00     0.160 HD
ENDROOT
BRANCH   1   3
HETATM    3  C6  UNL     1      26.565   0.153  52.805  1.00  0.00     0.018 A 
HETATM    4  C5  UNL     1      26.538  -1.257  52.664  1.00  0.00     0.022 A 
HETATM    5  C4  UNL     1      27.822  -1.448  53.092  1.00  0.00    -0.012 A 
HETATM    6  C3  UNL     1      28.565  -0.342  53.455  1.00  0.00     0.011 A 
HETATM    7  N1  UNL     1      28.496   1.106  53.566  1.00  0.00     0.000 N 
HETATM    8  C17 UNL     1      29.224   0.637  53.776  1.00  0.00     0.025 A 
HETATM    9  C16 UNL     1      27.745   0.657  53.263  1.00  0.00     0.046 A 
HETATM   10  C2  UNL     1      29.325   2.066  53.938  1.00  0.00     0.029 A 
HETATM   11  C1  UNL     1      27.904   2.177  53.488  1.00  0.00     0.139 A 
BRANCH  11  12
HETATM   12  O1  UNL     1      27.823   2.890  52.300  1.00  0.00    -0.394 OA
HETATM   13  H1  UNL     1      26.866   3.029  52.050  1.00  0.00     0.210 HD
ENDBRANCH  11  12
ENDBRANCH   1   3
BRANCH   1  14
HETATM   14  C7  UNL     1      24.329   0.562  52.721  1.00  0.00     0.214 C 
BRANCH  14  15
HETATM   15  C8  UNL     1      23.287   1.560  52.501  1.00  0.00    -0.087 C 
BRANCH  15  16
HETATM   16  C9  UNL     1      22.416   2.405  52.296  1.00  0.00    -0.103 C 
BRANCH  16  17
HETATM   17  C10 UNL     1      21.381   3.430  52.027  1.00  0.00     0.113 C 
BRANCH  17  18
HETATM   18  C11 UNL     1      21.667   4.082  50.671  1.00  0.00     0.129 C 
BRANCH  18  19
HETATM   19  N3  UNL     1      23.011   4.255  50.356  1.00  0.00    -0.408 N 
HETATM   20  C12 UNL     1      23.698   3.579  49.375  1.00  0.00     0.143 C 
HETATM   21  C13 UNL     1      25.179   3.377  49.643  1.00  0.00     0.187 C 
HETATM   22  O2  UNL     1      25.748   4.400  50.380  1.00  0.00    -0.388 OA
HETATM   23  C14 UNL     1      25.006   5.594  50.312  1.00  0.00     0.187 C 
HETATM   24  C15 UNL     1      23.642   5.361  50.945  1.00  0.00     0.143 C 
ENDBRANCH  18  19
ENDBRANCH  17  18
ENDBRANCH  16  17
ENDBRANCH  15  16
ENDBRANCH  14  15
ENDBRANCH   1  14
TORSDOF 10
ENDMDL
MODEL 7
REMARK VINA RESULT:      -6.5      3.095      7.588
REMARK  10 active torsions:
REMARK  status: ('A' for Active; 'I' for Inactive)
REMARK    1  A    between atoms: O1_1  and  C1_2 
REMARK    2  A    between atoms: C2_3  and  C17_22 
REMARK    3  A    between atoms: C6_8  and  N2_9 
REMARK    4  A    between atoms: N2_9  and  C7_10 
REMARK    5  A    between atoms: C7_10  and  C8_11 
REMARK    6  A    between atoms: C8_11  and  C9_12 
REMARK    7  A    between atoms: C9_12  and  C10_13 
REMARK    8  A    between atoms: C10_13  and  C11_14 
REMARK    9  A    between atoms: C11_14  and  N3_15 
REMARK   10  A    between atoms: C16_21  and  C17_22 
ROOT
HETATM    1  N2  UNL     1      24.936   4.128  51.106  1.00  0.00    -0.382 N 
HETATM    2  H6  UNL     1      24.734   4.517  52.021  1.00  0.00     0.160 HD
ENDROOT
BRANCH   1   3
HETATM    3  C6  UNL     1      25.832   4.591  50.117  1.00  0.00     0.018 A 
HETATM    4  C5  UNL     1      26.802   3.937  49.318  1.00  0.00     0.022 A 
HETATM    5  C4  UNL     1      27.209   5.067  48.667  1.00  0.00    -0.012 A 
HETATM    6  C3  UNL     1      26.604   6.265  48.990  1.00  0.00     0.011 A 
HETATM    7  N1  UNL     1      25.587   6.847  49.851  1.00  0.00     0.000 N 
HETATM    8  C17 UNL     1      26.067   7.327  49.275  1.00  0.00     0.025 A 
HETATM    9  C16 UNL     1      25.736   5.935  49.909  1.00  0.00     0.046 A 
HETATM   10  C2  UNL     1      25.096   8.058  50.049  1.00  0.00     0.029 A 
HETATM   11  C1  UNL     1      24.736   6.777  50.732  1.00  0.00     0.139 A 
BRANCH  11  12
HETATM   12  O1  UNL     1      23.419   6.433  50.460  1.00  0.00    -0.394 OA
HETATM   13  H1  UNL     1      23.381   5.840  49.656  1.00  0.00     0.210 HD
ENDBRANCH  11  12
ENDBRANCH   1   3
BRANCH   1  14
HETATM   14  C7  UNL     1      24.319   2.964  50.604  1.00  0.00     0.214 C 
BRANCH  14  15
HETATM   15  C8  UNL     1      24.599   1.836  51.487  1.00  0.00    -0.087 C 
BRANCH  15  16
HETATM   16  C9  UNL     1      24.814   0.878  52.228  1.00  0.00    -0.103 C 
BRANCH  16  17
HETATM   17  C10 UNL     1      25.060  -0.291  53.103  1.00  0.00     0.113 C 
BRANCH  17  18
HETATM   18  C11 UNL     1      25.973   0.133  54.257  1.00  0.00     0.129 C 
BRANCH  18  19
HETATM   19  N3  UNL     1      27.329  -0.124  54.079  1.00  0.00    -0.408 N 
HETATM   20  C12 UNL     1      28.350   0.413  54.826  1.00  0.00     0.143 C 
HETATM   21  C13 UNL     1      29.668   0.589  54.092  1.00  0.00     0.187 C 
HETATM   22  O2  UNL     1      29.883  -0.365  53.114  1.00  0.00    -0.388 OA
HETATM   23  C14 UNL     1      29.122  -1.531  53.319  1.00  0.00     0.187 C 
HETATM   24  C15 UNL     1      27.646  -1.180  53.211  1.00  0.00     0.143 C 
ENDBRANCH  18  19
ENDBRANCH  17  18
ENDBRANCH  16  17
ENDBRANCH  15  16
ENDBRANCH  14  15
ENDBRANCH   1  14
TORSDOF 10
ENDMDL
MODEL 8
REMARK VINA RESULT:      -6.4      4.683      7.661
REMARK  10 active torsions:
REMARK  status: ('A' for Active; 'I' for Inactive)
REMARK    1  A    between atoms: O1_1  and  C1_2 
REMARK    2  A    between atoms: C2_3  and  C17_22 
REMARK    3  A    between atoms: C6_8  and  N2_9 
REMARK    4  A    between atoms: N2_9  and  C7_10 
REMARK    5  A    between atoms: C7_10  and  C8_11 
REMARK    6  A    between atoms: C8_11  and  C9_12 
REMARK    7  A    between atoms: C9_12  and  C10_13 
REMARK    8  A    between atoms: C10_13  and  C11_14 
REMARK    9  A    between atoms: C11_14  and  N3_15 
REMARK   10  A    between atoms: C16_21  and  C17_22 
ROOT
HETATM    1  N2  UNL     1      26.119   1.682  52.205  1.00  0.00    -0.382 N 
HETATM    2  H6  UNL     1      26.213   2.265  51.380  1.00  0.00     0.160 HD
ENDROOT
BRANCH   1   3
HETATM    3  C6  UNL     1      26.828   0.512  52.558  1.00  0.00     0.018 A 
HETATM    4  C5  UNL     1      26.617  -0.860  52.273  1.00  0.00     0.022 A 
HETATM    5  C4  UNL     1      27.707  -1.300  52.970  1.00  0.00    -0.012 A 
HETATM    6  C3  UNL     1      28.499  -0.366  53.607  1.00  0.00     0.011 A 
HETATM    7  N1  UNL     1      28.633   1.063  53.845  1.00  0.00     0.000 N 
HETATM    8  C17 UNL     1      29.203   0.461  54.172  1.00  0.00     0.025 A 
HETATM    9  C16 UNL     1      27.921   0.772  53.330  1.00  0.00     0.046 A 
HETATM   10  C2  UNL     1      29.482   1.837  54.496  1.00  0.00     0.029 A 
HETATM   11  C1  UNL     1      28.254   2.224  53.737  1.00  0.00     0.139 A 
BRANCH  11  12
HETATM   12  O1  UNL     1      28.585   3.009  52.641  1.00  0.00    -0.394 OA
HETATM   13  H1  UNL     1      29.105   2.470  51.981  1.00  0.00     0.210 HD
ENDBRANCH  11  12
ENDBRANCH   1   3
BRANCH   1  14
HETATM   14  C7  UNL     1      25.198   1.945  53.239  1.00  0.00     0.214 C 
BRANCH  14  15
HETATM   15  C8  UNL     1      24.039   1.068  53.103  1.00  0.00    -0.087 C 
BRANCH  15  16
HETATM   16  C9  UNL     1      23.075   0.311  52.989  1.00  0.00    -0.103 C 
BRANCH  16  17
HETATM   17  C10 UNL     1      21.901  -0.582  52.867  1.00  0.00     0.113 C 
BRANCH  17  18
HETATM   18  C11 UNL     1      20.643   0.190  53.276  1.00  0.00     0.129 C 
BRANCH  18  19
HETATM   19  N3  UNL     1      20.127   1.056  52.316  1.00  0.00    -0.408 N 
HETATM   20  C12 UNL     1      20.107   2.427  52.404  1.00  0.00     0.143 C 
HETATM   21  C13 UNL     1      18.953   3.106  51.686  1.00  0.00     0.187 C 
HETATM   22  O2  UNL     1      18.533   2.425  50.557  1.00  0.00    -0.388 OA
HETATM   23  C14 UNL     1      19.520   1.562  50.047  1.00  0.00     0.187 C 
HETATM   24  C15 UNL     1      19.806   0.480  51.078  1.00  0.00     0.143 C 
ENDBRANCH  18  19
ENDBRANCH  17  18
ENDBRANCH  16  17
ENDBRANCH  15  16
ENDBRANCH  14  15
ENDBRANCH   1  14
TORSDOF 10
ENDMDL
MODEL 9
REMARK VINA RESULT:      -6.4      1.788      8.057
REMARK  10 active torsions:
REMARK  status: ('A' for Active; 'I' for Inactive)
REMARK    1  A    between atoms: O1_1  and  C1_2 
REMARK    2  A    between atoms: C2_3  and  C17_22 
REMARK    3  A    between atoms: C6_8  and  N2_9 
REMARK    4  A    between atoms: N2_9  and  C7_10 
REMARK    5  A    between atoms: C7_10  and  C8_11 
REMARK    6  A    between atoms: C8_11  and  C9_12 
REMARK    7  A    between atoms: C9_12  and  C10_13 
REMARK    8  A    between atoms: C10_13  and  C11_14 
REMARK    9  A    between atoms: C11_14  and  N3_15 
REMARK   10  A    between atoms: C16_21  and  C17_22 
ROOT
HETATM    1  N2  UNL     1      29.298   5.841  48.911  1.00  0.00    -0.382 N 
HETATM    2  H6  UNL     1      29.665   5.146  49.553  1.00  0.00     0.160 HD
ENDROOT
BRANCH   1   3
HETATM    3  C6  UNL     1      29.886   7.049  48.471  1.00  0.00     0.018 A 
HETATM    4  C5  UNL     1      29.340   8.250  47.956  1.00  0.00     0.022 A 
HETATM    5  C4  UNL     1      30.546   8.869  47.781  1.00  0.00    -0.012 A 
HETATM    6  C3  UNL     1      31.692   8.182  48.126  1.00  0.00     0.011 A 
HETATM    7  N1  UNL     1      32.158   6.913  48.663  1.00  0.00     0.000 N 
HETATM    8  C17 UNL     1      32.709   7.573  48.431  1.00  0.00     0.025 A 
HETATM    9  C16 UNL     1      31.246   7.033  48.560  1.00  0.00     0.046 A 
HETATM   10  C2  UNL     1      33.334   6.384  48.953  1.00  0.00     0.029 A 
HETATM   11  C1  UNL     1      31.975   5.775  49.081  1.00  0.00     0.139 A 
BRANCH  11  12
HETATM   12  O1  UNL     1      31.679   5.517  50.413  1.00  0.00    -0.394 OA
HETATM   13  H1  UNL     1      31.153   4.672  50.487  1.00  0.00     0.210 HD
ENDBRANCH  11  12
ENDBRANCH   1   3
BRANCH   1  14
HETATM   14  C7  UNL     1      28.040   5.733  48.286  1.00  0.00     0.214 C 
BRANCH  14  15
HETATM   15  C8  UNL     1      27.257   4.682  48.929  1.00  0.00    -0.087 C 
BRANCH  15  16
HETATM   16  C9  UNL     1      26.599   3.783  49.453  1.00  0.00    -0.103 C 
BRANCH  16  17
HETATM   17  C10 UNL     1      25.823   2.703  50.104  1.00  0.00     0.113 C 
BRANCH  17  18
HETATM   18  C11 UNL     1      26.145   2.692  51.601  1.00  0.00     0.129 C 
BRANCH  18  19
HETATM   19  N3  UNL     1      26.195   1.437  52.199  1.00  0.00    -0.408 N 
HETATM   20  C12 UNL     1      27.292   0.888  52.818  1.00  0.00     0.143 C 
HETATM   21  C13 UNL     1      27.380  -0.627  52.760  1.00  0.00     0.187 C 
HETATM   22  O2  UNL     1      26.145  -1.248  52.746  1.00  0.00    -0.388 OA
HETATM   23  C14 UNL     1      25.122  -0.431  53.264  1.00  0.00     0.187 C 
HETATM   24  C15 UNL     1      24.963   0.785  52.364  1.00  0.00     0.143 C 
ENDBRANCH  18  19
ENDBRANCH  17  18
ENDBRANCH  16  17
ENDBRANCH  15  16
ENDBRANCH  14  15
ENDBRANCH   1  14
TORSDOF 10
ENDMDL
