MODEL 1
REMARK VINA RESULT:      -8.9      0.000      0.000
REMARK  2 active torsions:
REMARK  status: ('A' for Active; 'I' for Inactive)
REMARK    1  A    between atoms: C1_2  and  C2_3 
REMARK    2  A    between atoms: C2_3  and  C3_5 
ROOT
HETATM    1  C3  UNL     1      22.138   3.136  51.825  1.00  0.00     0.064 C 
HETATM    2  C4  UNL     1      23.217   3.575  52.704  1.00  0.00    -0.001 C 
HETATM    3  C5  UNL     1      24.073   4.492  52.402  1.00  0.00     0.085 C 
HETATM    4  N1  UNL     1      24.265   5.308  51.265  1.00  0.00    -0.366 N 
HETATM    5  C6  UNL     1      25.288   5.586  50.325  1.00  0.00     0.040 A 
HETATM    6  C7  UNL     1      25.505   6.947  50.259  1.00  0.00     0.053 A 
HETATM    7  C8  UNL     1      26.440   7.543  49.439  1.00  0.00     0.036 A 
HETATM    8 CL1  UNL     1      26.746   9.263  49.327  1.00  0.00    -0.084 Cl
HETATM    9  C9  UNL     1      27.192   6.694  48.640  1.00  0.00     0.024 A 
HETATM   10  C10 UNL     1      26.964   5.343  48.718  1.00  0.00     0.011 A 
HETATM   11  C11 UNL     1      26.030   4.764  49.541  1.00  0.00    -0.028 A 
HETATM   12  C12 UNL     1      25.912   3.283  49.502  1.00  0.00     0.069 C 
HETATM   13  C13 UNL     1      26.507   2.679  50.708  1.00  0.00    -0.007 C 
HETATM   14  C14 UNL     1      26.087   1.887  51.664  1.00  0.00     0.007 A 
HETATM   15  C15 UNL     1      27.057   1.540  52.690  1.00  0.00     0.036 A 
HETATM   16  C16 UNL     1      26.784   0.754  53.697  1.00  0.00     0.032 A 
HETATM   17 CL2  UNL     1      27.958   0.341  54.927  1.00  0.00    -0.087 Cl
HETATM   18  C17 UNL     1      25.455   0.163  53.859  1.00  0.00     0.202 A 
HETATM   19  N2  UNL     1      24.525   0.536  52.818  1.00  0.00    -0.267 NA
HETATM   20  C18 UNL     1      24.772   1.303  51.823  1.00  0.00     0.128 A 
HETATM   21  N3  UNL     1      23.549   1.326  51.112  1.00  0.00    -0.374 N 
HETATM   22  C19 UNL     1      22.219   1.671  51.530  1.00  0.00     0.132 C 
HETATM   23  H7  UNL     1      23.353   5.814  51.165  1.00  0.00     0.165 HD
HETATM   24  H17 UNL     1      24.001   0.998  50.231  1.00  0.00     0.161 HD
ENDROOT
BRANCH   1  25
HETATM   25  C2  UNL     1      20.751   3.552  52.284  1.00  0.00     0.208 C 
HETATM   26  F2  UNL     1      20.091   2.424  52.694  1.00  0.00    -0.246 F 
BRANCH  25  27
HETATM   27  C1  UNL     1      19.968   4.259  51.222  1.00  0.00     0.260 C 
HETATM   28  F1  UNL     1      20.725   5.340  50.814  1.00  0.00    -0.253 F 
ENDBRANCH  25  27
ENDBRANCH   1  25
TORSDOF 2
ENDMDL
MODEL 2
REMARK VINA RESULT:      -8.2      3.564      6.348
REMARK  2 active torsions:
REMARK  status: ('A' for Active; 'I' for Inactive)
REMARK    1  A    between atoms: C1_2  and  C2_3 
REMARK    2  A    between atoms: C2_3  and  C3_5 
ROOT
HETATM    1  C3  UNL     1      23.358   3.934  50.950  1.00  0.00     0.064 C 
HETATM    2  C4  UNL     1      23.549   2.596  50.400  1.00  0.00    -0.001 C 
HETATM    3  C5  UNL     1      22.602   1.736  50.234  1.00  0.00     0.085 C 
HETATM    4  N1  UNL     1      21.211   1.759  50.485  1.00  0.00    -0.366 N 
HETATM    5  C6  UNL     1      20.260   1.019  51.230  1.00  0.00     0.040 A 
HETATM    6  C7  UNL     1      19.223   0.630  50.407  1.00  0.00     0.053 A 
HETATM    7  C8  UNL     1      18.136  -0.108  50.828  1.00  0.00     0.036 A 
HETATM    8 CL1  UNL     1      16.803  -0.621  49.816  1.00  0.00    -0.084 Cl
HETATM    9  C9  UNL     1      18.114  -0.465  52.168  1.00  0.00     0.024 A 
HETATM   10  C10 UNL     1      19.153  -0.071  52.972  1.00  0.00     0.011 A 
HETATM   11  C11 UNL     1      20.229   0.664  52.539  1.00  0.00    -0.028 A 
HETATM   12  C12 UNL     1      21.270   1.006  53.543  1.00  0.00     0.069 C 
HETATM   13  C13 UNL     1      22.480   0.187  53.344  1.00  0.00    -0.007 C 
HETATM   14  C14 UNL     1      23.749   0.428  53.127  1.00  0.00     0.007 A 
HETATM   15  C15 UNL     1      24.613  -0.732  52.985  1.00  0.00     0.036 A 
HETATM   16  C16 UNL     1      25.899  -0.646  52.775  1.00  0.00     0.032 A 
HETATM   17 CL2  UNL     1      26.932  -2.048  52.606  1.00  0.00    -0.087 Cl
HETATM   18  C17 UNL     1      26.564   0.653  52.664  1.00  0.00     0.202 A 
HETATM   19  N2  UNL     1      25.667   1.776  52.810  1.00  0.00    -0.267 NA
HETATM   20  C18 UNL     1      24.405   1.714  53.017  1.00  0.00     0.128 A 
HETATM   21  N3  UNL     1      24.015   3.071  53.095  1.00  0.00    -0.374 N 
HETATM   22  C19 UNL     1      24.190   4.160  52.174  1.00  0.00     0.132 C 
HETATM   23  H7  UNL     1      20.872   2.576  49.924  1.00  0.00     0.165 HD
HETATM   24  H17 UNL     1      23.593   2.946  54.040  1.00  0.00     0.161 HD
ENDROOT
BRANCH   1  25
HETATM   25  C2  UNL     1      23.517   5.054  49.936  1.00  0.00     0.208 C 
HETATM   26  F2  UNL     1      23.155   4.563  48.710  1.00  0.00    -0.246 F 
BRANCH  25  27
HETATM   27  C1  UNL     1      24.907   5.609  49.887  1.00  0.00     0.260 C 
HETATM   28  F1  UNL     1      25.618   4.840  48.986  1.00  0.00    -0.253 F 
ENDBRANCH  25  27
ENDBRANCH   1  25
TORSDOF 2
ENDMDL
MODEL 3
REMARK VINA RESULT:      -8.2      3.322      4.987
REMARK  2 active torsions:
REMARK  status: ('A' for Active; 'I' for Inactive)
REMARK    1  A    between atoms: C1_2  and  C2_3 
REMARK    2  A    between atoms: C2_3  and  C3_5 
ROOT
HETATM    1  C3  UNL     1      26.972   2.397  52.627  1.00  0.00     0.064 C 
HETATM    2  C4  UNL     1      26.358   2.057  51.348  1.00  0.00    -0.001 C 
HETATM    3  C5  UNL     1      26.294   2.855  50.337  1.00  0.00     0.085 C 
HETATM    4  N1  UNL     1      26.734   4.180  50.113  1.00  0.00    -0.366 N 
HETATM    5  C6  UNL     1      26.179   5.427  49.735  1.00  0.00     0.040 A 
HETATM    6  C7  UNL     1      26.875   5.941  48.660  1.00  0.00     0.053 A 
HETATM    7  C8  UNL     1      26.581   7.144  48.052  1.00  0.00     0.036 A 
HETATM    8 CL1  UNL     1      27.437   7.829  46.687  1.00  0.00    -0.084 Cl
HETATM    9  C9  UNL     1      25.514   7.858  48.579  1.00  0.00     0.024 A 
HETATM   10  C10 UNL     1      24.834   7.333  49.648  1.00  0.00     0.011 A 
HETATM   11  C11 UNL     1      25.137   6.133  50.243  1.00  0.00    -0.028 A 
HETATM   12  C12 UNL     1      24.297   5.710  51.393  1.00  0.00     0.069 C 
HETATM   13  C13 UNL     1      23.377   4.627  50.999  1.00  0.00    -0.007 C 
HETATM   14  C14 UNL     1      23.140   3.404  51.407  1.00  0.00     0.007 A 
HETATM   15  C15 UNL     1      22.106   2.673  50.694  1.00  0.00     0.036 A 
HETATM   16  C16 UNL     1      21.756   1.452  50.995  1.00  0.00     0.032 A 
HETATM   17 CL2  UNL     1      20.509   0.579  50.131  1.00  0.00    -0.087 Cl
HETATM   18  C17 UNL     1      22.400   0.726  52.090  1.00  0.00     0.202 A 
HETATM   19  N2  UNL     1      23.421   1.491  52.769  1.00  0.00    -0.267 NA
HETATM   20  C18 UNL     1      23.779   2.688  52.491  1.00  0.00     0.128 A 
HETATM   21  N3  UNL     1      24.784   2.963  53.447  1.00  0.00    -0.374 N 
HETATM   22  C19 UNL     1      26.004   2.272  53.762  1.00  0.00     0.132 C 
HETATM   23  H7  UNL     1      27.765   4.133  50.295  1.00  0.00     0.165 HD
HETATM   24  H17 UNL     1      24.285   3.809  53.799  1.00  0.00     0.161 HD
ENDROOT
BRANCH   1  25
HETATM   25  C2  UNL     1      28.276   1.671  52.906  1.00  0.00     0.208 C 
HETATM   26  F2  UNL     1      28.009   0.329  52.942  1.00  0.00    -0.246 F 
BRANCH  25  27
HETATM   27  C1  UNL     1      28.931   2.108  54.180  1.00  0.00     0.260 C 
HETATM   28  F1  UNL     1      29.037   0.990  54.984  1.00  0.00    -0.253 F 
ENDBRANCH  25  27
ENDBRANCH   1  25
TORSDOF 2
ENDMDL
MODEL 4
REMARK VINA RESULT:      -8.2      3.660      6.062
REMARK  2 active torsions:
REMARK  status: ('A' for Active; 'I' for Inactive)
REMARK    1  A    between atoms: C1_2  and  C2_3 
REMARK    2  A    between atoms: C2_3  and  C3_5 
ROOT
HETATM    1  C3  UNL     1      21.240   0.218  53.548  1.00  0.00     0.064 C 
HETATM    2  C4  UNL     1      21.952  -0.181  52.339  1.00  0.00    -0.001 C 
HETATM    3  C5  UNL     1      23.232  -0.320  52.261  1.00  0.00     0.085 C 
HETATM    4  N1  UNL     1      24.286  -0.164  53.189  1.00  0.00    -0.366 N 
HETATM    5  C6  UNL     1      25.481   0.587  53.314  1.00  0.00     0.040 A 
HETATM    6  C7  UNL     1      26.539  -0.258  53.576  1.00  0.00     0.053 A 
HETATM    7  C8  UNL     1      27.841   0.164  53.749  1.00  0.00     0.036 A 
HETATM    8 CL1  UNL     1      29.210  -0.876  54.081  1.00  0.00    -0.084 Cl
HETATM    9  C9  UNL     1      28.068   1.529  53.650  1.00  0.00     0.024 A 
HETATM   10  C10 UNL     1      27.004   2.355  53.389  1.00  0.00     0.011 A 
HETATM   11  C11 UNL     1      25.712   1.921  53.218  1.00  0.00    -0.028 A 
HETATM   12  C12 UNL     1      24.678   2.951  52.940  1.00  0.00     0.069 C 
HETATM   13  C13 UNL     1      24.269   2.914  51.524  1.00  0.00    -0.007 C 
HETATM   14  C14 UNL     1      23.140   2.757  50.878  1.00  0.00     0.007 A 
HETATM   15  C15 UNL     1      23.214   2.789  49.427  1.00  0.00     0.036 A 
HETATM   16  C16 UNL     1      22.170   2.656  48.654  1.00  0.00     0.032 A 
HETATM   17 CL2  UNL     1      22.268   2.696  46.907  1.00  0.00    -0.087 Cl
HETATM   18  C17 UNL     1      20.832   2.458  49.213  1.00  0.00     0.202 A 
HETATM   19  N2  UNL     1      20.807   2.432  50.658  1.00  0.00    -0.267 NA
HETATM   20  C18 UNL     1      21.817   2.562  51.433  1.00  0.00     0.128 A 
HETATM   21  N3  UNL     1      21.253   2.477  52.728  1.00  0.00    -0.374 N 
HETATM   22  C19 UNL     1      20.438   1.465  53.340  1.00  0.00     0.132 C 
HETATM   23  H7  UNL     1      24.036  -0.826  53.962  1.00  0.00     0.165 HD
HETATM   24  H17 UNL     1      21.645   3.401  53.011  1.00  0.00     0.161 HD
ENDROOT
BRANCH   1  25
HETATM   25  C2  UNL     1      20.419  -0.891  54.183  1.00  0.00     0.208 C 
HETATM   26  F2  UNL     1      21.194  -2.019  54.217  1.00  0.00    -0.246 F 
BRANCH  25  27
HETATM   27  C1  UNL     1      19.136  -1.160  53.459  1.00  0.00     0.260 C 
HETATM   28  F1  UNL     1      18.702  -2.409  53.856  1.00  0.00    -0.253 F 
ENDBRANCH  25  27
ENDBRANCH   1  25
TORSDOF 2
ENDMDL
MODEL 5
REMARK VINA RESULT:      -8.0      3.467      6.886
REMARK  2 active torsions:
REMARK  status: ('A' for Active; 'I' for Inactive)
REMARK    1  A    between atoms: C1_2  and  C2_3 
REMARK    2  A    between atoms: C2_3  and  C3_5 
ROOT
HETATM    1  C3  UNL     1      25.743   2.025  52.118  1.00  0.00     0.064 C 
HETATM    2  C4  UNL     1      24.750   3.015  52.520  1.00  0.00    -0.001 C 
HETATM    3  C5  UNL     1      23.478   2.799  52.550  1.00  0.00     0.085 C 
HETATM    4  N1  UNL     1      22.675   1.676  52.247  1.00  0.00    -0.366 N 
HETATM    5  C6  UNL     1      21.598   1.349  51.386  1.00  0.00     0.040 A 
HETATM    6  C7  UNL     1      20.566   0.798  52.117  1.00  0.00     0.053 A 
HETATM    7  C8  UNL     1      19.372   0.375  51.571  1.00  0.00     0.036 A 
HETATM    8 CL1  UNL     1      18.039  -0.328  52.464  1.00  0.00    -0.084 Cl
HETATM    9  C9  UNL     1      19.231   0.525  50.199  1.00  0.00     0.024 A 
HETATM   10  C10 UNL     1      20.267   1.075  49.488  1.00  0.00     0.011 A 
HETATM   11  C11 UNL     1      21.451   1.493  50.044  1.00  0.00    -0.028 A 
HETATM   12  C12 UNL     1      22.470   2.068  49.128  1.00  0.00     0.069 C 
HETATM   13  C13 UNL     1      22.545   3.533  49.283  1.00  0.00    -0.007 C 
HETATM   14  C14 UNL     1      23.485   4.397  49.577  1.00  0.00     0.007 A 
HETATM   15  C15 UNL     1      23.089   5.795  49.621  1.00  0.00     0.036 A 
HETATM   16  C16 UNL     1      23.918   6.766  49.891  1.00  0.00     0.032 A 
HETATM   17 CL2  UNL     1      23.432   8.447  49.942  1.00  0.00    -0.087 Cl
HETATM   18  C17 UNL     1      25.329   6.501  50.175  1.00  0.00     0.202 A 
HETATM   19  N2  UNL     1      25.677   5.100  50.121  1.00  0.00    -0.267 NA
HETATM   20  C18 UNL     1      24.881   4.133  49.857  1.00  0.00     0.128 A 
HETATM   21  N3  UNL     1      25.714   2.992  49.918  1.00  0.00    -0.374 N 
HETATM   22  C19 UNL     1      26.568   2.499  50.962  1.00  0.00     0.132 C 
HETATM   23  H7  UNL     1      23.043   0.929  52.883  1.00  0.00     0.165 HD
HETATM   24  H17 UNL     1      25.465   2.700  48.948  1.00  0.00     0.161 HD
ENDROOT
BRANCH   1  25
HETATM   25  C2  UNL     1      26.602   1.504  53.258  1.00  0.00     0.208 C 
HETATM   26  F2  UNL     1      26.164   2.093  54.414  1.00  0.00    -0.246 F 
BRANCH  25  27
HETATM   27  C1  UNL     1      28.063   1.765  53.059  1.00  0.00     0.260 C 
HETATM   28  F1  UNL     1      28.387   2.864  53.831  1.00  0.00    -0.253 F 
ENDBRANCH  25  27
ENDBRANCH   1  25
TORSDOF 2
ENDMDL
MODEL 6
REMARK VINA RESULT:      -8.0      5.417      9.013
REMARK  2 active torsions:
REMARK  status: ('A' for Active; 'I' for Inactive)
REMARK    1  A    between atoms: C1_2  and  C2_3 
REMARK    2  A    between atoms: C2_3  and  C3_5 
ROOT
HETATM    1  C3  UNL     1      27.140   7.846  49.361  1.00  0.00     0.064 C 
HETATM    2  C4  UNL     1      27.662   8.042  48.013  1.00  0.00    -0.001 C 
HETATM    3  C5  UNL     1      28.594   7.325  47.482  1.00  0.00     0.085 C 
HETATM    4  N1  UNL     1      29.357   6.227  47.940  1.00  0.00    -0.366 N 
HETATM    5  C6  UNL     1      30.722   5.892  48.123  1.00  0.00     0.040 A 
HETATM    6  C7  UNL     1      31.000   4.702  47.484  1.00  0.00     0.053 A 
HETATM    7  C8  UNL     1      32.243   4.103  47.471  1.00  0.00     0.036 A 
HETATM    8 CL1  UNL     1      32.637   2.596  46.672  1.00  0.00    -0.084 Cl
HETATM    9  C9  UNL     1      33.254   4.763  48.154  1.00  0.00     0.024 A 
HETATM   10  C10 UNL     1      32.960   5.946  48.783  1.00  0.00     0.011 A 
HETATM   11  C11 UNL     1      31.718   6.531  48.788  1.00  0.00    -0.028 A 
HETATM   12  C12 UNL     1      31.571   7.816  49.519  1.00  0.00     0.069 C 
HETATM   13  C13 UNL     1      31.467   8.946  48.578  1.00  0.00    -0.007 C 
HETATM   14  C14 UNL     1      30.597   9.899  48.350  1.00  0.00     0.007 A 
HETATM   15  C15 UNL     1      30.918  10.826  47.278  1.00  0.00     0.036 A 
HETATM   16  C16 UNL     1      30.151  11.829  46.945  1.00  0.00     0.032 A 
HETATM   17 CL2  UNL     1      30.545  12.941  45.652  1.00  0.00    -0.087 Cl
HETATM   18  C17 UNL     1      28.891  12.084  47.643  1.00  0.00     0.202 A 
HETATM   19  N2  UNL     1      28.613  11.138  48.700  1.00  0.00    -0.267 NA
HETATM   20  C18 UNL     1      29.350  10.150  49.043  1.00  0.00     0.128 A 
HETATM   21  N3  UNL     1      28.641   9.564  50.117  1.00  0.00    -0.374 N 
HETATM   22  C19 UNL     1      27.293   9.073  50.204  1.00  0.00     0.132 C 
HETATM   23  H7  UNL     1      28.635   5.508  48.186  1.00  0.00     0.165 HD
HETATM   24  H17 UNL     1      29.453   9.652  50.765  1.00  0.00     0.161 HD
ENDROOT
BRANCH   1  25
HETATM   25  C2  UNL     1      25.727   7.292  49.408  1.00  0.00     0.208 C 
HETATM   26  F2  UNL     1      25.029   8.007  50.345  1.00  0.00    -0.246 F 
BRANCH  25  27
HETATM   27  C1  UNL     1      25.679   5.829  49.725  1.00  0.00     0.260 C 
HETATM   28  F1  UNL     1      26.187   5.161  48.627  1.00  0.00    -0.253 F 
ENDBRANCH  25  27
ENDBRANCH   1  25
TORSDOF 2
ENDMDL
MODEL 7
REMARK VINA RESULT:      -7.8      2.718      5.985
REMARK  2 active torsions:
REMARK  status: ('A' for Active; 'I' for Inactive)
REMARK    1  A    between atoms: C1_2  and  C2_3 
REMARK    2  A    between atoms: C2_3  and  C3_5 
ROOT
HETATM    1  C3  UNL     1      20.405   1.297  52.095  1.00  0.00     0.064 C 
HETATM    2  C4  UNL     1      21.301   1.307  50.943  1.00  0.00    -0.001 C 
HETATM    3  C5  UNL     1      22.555   1.012  50.995  1.00  0.00     0.085 C 
HETATM    4  N1  UNL     1      23.421   0.619  52.042  1.00  0.00    -0.366 N 
HETATM    5  C6  UNL     1      24.628   1.061  52.637  1.00  0.00     0.040 A 
HETATM    6  C7  UNL     1      25.541   0.028  52.667  1.00  0.00     0.053 A 
HETATM    7  C8  UNL     1      26.815   0.136  53.183  1.00  0.00     0.036 A 
HETATM    8 CL1  UNL     1      28.002  -1.150  53.237  1.00  0.00    -0.084 Cl
HETATM    9  C9  UNL     1      27.170   1.374  53.698  1.00  0.00     0.024 A 
HETATM   10  C10 UNL     1      26.250   2.391  53.661  1.00  0.00     0.011 A 
HETATM   11  C11 UNL     1      24.984   2.269  53.143  1.00  0.00    -0.028 A 
HETATM   12  C12 UNL     1      24.113   3.472  53.181  1.00  0.00     0.069 C 
HETATM   13  C13 UNL     1      23.984   4.067  51.838  1.00  0.00    -0.007 C 
HETATM   14  C14 UNL     1      22.991   4.358  51.034  1.00  0.00     0.007 A 
HETATM   15  C15 UNL     1      23.346   4.954  49.756  1.00  0.00     0.036 A 
HETATM   16  C16 UNL     1      22.464   5.305  48.860  1.00  0.00     0.032 A 
HETATM   17 CL2  UNL     1      22.900   6.022  47.324  1.00  0.00    -0.087 Cl
HETATM   18  C17 UNL     1      21.031   5.112  49.089  1.00  0.00     0.202 A 
HETATM   19  N2  UNL     1      20.726   4.517  50.371  1.00  0.00    -0.267 NA
HETATM   20  C18 UNL     1      21.574   4.168  51.263  1.00  0.00     0.128 A 
HETATM   21  N3  UNL     1      20.766   3.664  52.309  1.00  0.00    -0.374 N 
HETATM   22  C19 UNL     1      19.766   2.632  52.318  1.00  0.00     0.132 C 
HETATM   23  H7  UNL     1      22.971  -0.248  52.422  1.00  0.00     0.165 HD
HETATM   24  H17 UNL     1      21.172   4.324  53.006  1.00  0.00     0.161 HD
ENDROOT
BRANCH   1  25
HETATM   25  C2  UNL     1      19.387   0.170  52.083  1.00  0.00     0.208 C 
HETATM   26  F2  UNL     1      18.150   0.726  51.898  1.00  0.00    -0.246 F 
BRANCH  25  27
HETATM   27  C1  UNL     1      19.408  -0.654  53.333  1.00  0.00     0.260 C 
HETATM   28  F1  UNL     1      20.576  -0.343  54.003  1.00  0.00    -0.253 F 
ENDBRANCH  25  27
ENDBRANCH   1  25
TORSDOF 2
ENDMDL
MODEL 8
REMARK VINA RESULT:      -7.7      3.150      5.288
REMARK  2 active torsions:
REMARK  status: ('A' for Active; 'I' for Inactive)
REMARK    1  A    between atoms: C1_2  and  C2_3 
REMARK    2  A    between atoms: C2_3  and  C3_5 
ROOT
HETATM    1  C3  UNL     1      24.425   2.587  51.790  1.00  0.00     0.064 C 
HETATM    2  C4  UNL     1      23.891   2.907  50.471  1.00  0.00    -0.001 C 
HETATM    3  C5  UNL     1      24.468   3.690  49.623  1.00  0.00     0.085 C 
HETATM    4  N1  UNL     1      25.670   4.432  49.645  1.00  0.00    -0.366 N 
HETATM    5  C6  UNL     1      26.082   5.780  49.501  1.00  0.00     0.040 A 
HETATM    6  C7  UNL     1      27.066   5.868  48.538  1.00  0.00     0.053 A 
HETATM    7  C8  UNL     1      27.676   7.046  48.160  1.00  0.00     0.036 A 
HETATM    8 CL1  UNL     1      28.925   7.199  46.944  1.00  0.00    -0.084 Cl
HETATM    9  C9  UNL     1      27.253   8.196  48.810  1.00  0.00     0.024 A 
HETATM   10  C10 UNL     1      26.274   8.091  49.765  1.00  0.00     0.011 A 
HETATM   11  C11 UNL     1      25.675   6.911  50.131  1.00  0.00    -0.028 A 
HETATM   12  C12 UNL     1      24.629   6.975  51.184  1.00  0.00     0.069 C 
HETATM   13  C13 UNL     1      23.286   6.810  50.599  1.00  0.00    -0.007 C 
HETATM   14  C14 UNL     1      22.281   5.987  50.777  1.00  0.00     0.007 A 
HETATM   15  C15 UNL     1      21.110   6.206  49.943  1.00  0.00     0.036 A 
HETATM   16  C16 UNL     1      20.033   5.472  50.016  1.00  0.00     0.032 A 
HETATM   17 CL2  UNL     1      18.628   5.742  49.008  1.00  0.00    -0.087 Cl
HETATM   18  C17 UNL     1      19.936   4.358  50.959  1.00  0.00     0.202 A 
HETATM   19  N2  UNL     1      21.122   4.178  51.766  1.00  0.00    -0.267 NA
HETATM   20  C18 UNL     1      22.187   4.885  51.712  1.00  0.00     0.128 A 
HETATM   21  N3  UNL     1      23.017   4.309  52.701  1.00  0.00    -0.374 N 
HETATM   22  C19 UNL     1      23.473   2.960  52.884  1.00  0.00     0.132 C 
HETATM   23  H7  UNL     1      26.407   3.706  49.815  1.00  0.00     0.165 HD
HETATM   24  H17 UNL     1      23.131   5.217  53.202  1.00  0.00     0.161 HD
ENDROOT
BRANCH   1  25
HETATM   25  C2  UNL     1      24.929   1.161  51.931  1.00  0.00     0.208 C 
HETATM   26  F2  UNL     1      24.457   0.666  53.117  1.00  0.00    -0.246 F 
BRANCH  25  27
HETATM   27  C1  UNL     1      26.422   1.057  51.878  1.00  0.00     0.260 C 
HETATM   28  F1  UNL     1      26.724  -0.231  51.482  1.00  0.00    -0.253 F 
ENDBRANCH  25  27
ENDBRANCH   1  25
TORSDOF 2
ENDMDL
MODEL 9
REMARK VINA RESULT:      -7.7      3.360      5.688
REMARK  2 active torsions:
REMARK  status: ('A' for Active; 'I' for Inactive)
REMARK    1  A    between atoms: C1_2  and  C2_3 
REMARK    2  A    between atoms: C2_3  and  C3_5 
ROOT
HETATM    1  C3  UNL     1      21.934   0.620  52.668  1.00  0.00     0.064 C 
HETATM    2  C4  UNL     1      21.797   0.734  51.220  1.00  0.00    -0.001 C 
HETATM    3  C5  UNL     1      22.585   1.423  50.467  1.00  0.00     0.085 C 
HETATM    4  N1  UNL     1      23.726   2.218  50.722  1.00  0.00    -0.366 N 
HETATM    5  C6  UNL     1      24.152   3.553  50.511  1.00  0.00     0.040 A 
HETATM    6  C7  UNL     1      25.369   3.558  49.861  1.00  0.00     0.053 A 
HETATM    7  C8  UNL     1      26.053   4.703  49.508  1.00  0.00     0.036 A 
HETATM    8 CL1  UNL     1      27.596   4.751  48.684  1.00  0.00    -0.084 Cl
HETATM    9  C9  UNL     1      25.453   5.908  49.842  1.00  0.00     0.024 A 
HETATM   10  C10 UNL     1      24.243   5.885  50.488  1.00  0.00     0.011 A 
HETATM   11  C11 UNL     1      23.573   4.737  50.833  1.00  0.00    -0.028 A 
HETATM   12  C12 UNL     1      22.270   4.891  51.529  1.00  0.00     0.069 C 
HETATM   13  C13 UNL     1      21.151   4.586  50.619  1.00  0.00    -0.007 C 
HETATM   14  C14 UNL     1      20.143   3.748  50.621  1.00  0.00     0.007 A 
HETATM   15  C15 UNL     1      19.258   3.797  49.470  1.00  0.00     0.036 A 
HETATM   16  C16 UNL     1      18.210   3.029  49.339  1.00  0.00     0.032 A 
HETATM   17 CL2  UNL     1      17.149   3.096  47.948  1.00  0.00    -0.087 Cl
HETATM   18  C17 UNL     1      17.856   2.048  50.365  1.00  0.00     0.202 A 
HETATM   19  N2  UNL     1      18.763   2.034  51.489  1.00  0.00    -0.267 NA
HETATM   20  C18 UNL     1      19.794   2.777  51.638  1.00  0.00     0.128 A 
HETATM   21  N3  UNL     1      20.312   2.379  52.892  1.00  0.00    -0.374 N 
HETATM   22  C19 UNL     1      20.707   1.089  53.385  1.00  0.00     0.132 C 
HETATM   23  H7  UNL     1      24.389   1.557  51.193  1.00  0.00     0.165 HD
HETATM   24  H17 UNL     1      20.271   3.349  53.271  1.00  0.00     0.161 HD
ENDROOT
BRANCH   1  25
HETATM   25  C2  UNL     1      22.387  -0.750  53.145  1.00  0.00     0.208 C 
HETATM   26  F2  UNL     1      21.407  -1.255  53.957  1.00  0.00    -0.246 F 
BRANCH  25  27
HETATM   27  C1  UNL     1      23.699  -0.716  53.867  1.00  0.00     0.260 C 
HETATM   28  F1  UNL     1      24.245   0.536  53.656  1.00  0.00    -0.253 F 
ENDBRANCH  25  27
ENDBRANCH   1  25
TORSDOF 2
ENDMDL
