MODEL 1
REMARK VINA RESULT:      -8.2      0.000      0.000
REMARK  1 active torsions:
REMARK  status: ('A' for Active; 'I' for Inactive)
REMARK    1  A    between atoms: C2_2  and  C3_3 
ROOT
HETATM    1  C3  UNL     1      22.290  -0.945  54.142  1.00  0.00    -0.030 C 
HETATM    2  C4  UNL     1      23.072  -1.250  55.226  1.00  0.00     0.010 C 
HETATM    3  C5  UNL     1      24.491  -1.257  55.730  1.00  0.00     0.163 C 
HETATM    4  N1  UNL     1      25.674  -0.912  55.392  1.00  0.00    -0.275 NA
HETATM    5  C6  UNL     1      26.078  -0.286  54.186  1.00  0.00     0.227 C 
HETATM    6  N2  UNL     1      25.102   0.392  53.818  1.00  0.00    -0.245 NA
HETATM    7  C7  UNL     1      24.660   1.232  52.845  1.00  0.00     0.061 C 
HETATM    8  C8  UNL     1      25.594   2.076  52.481  1.00  0.00     0.144 C 
HETATM    9  N3  UNL     1      25.318   3.029  51.476  1.00  0.00    -0.270 NA
HETATM   10  C9  UNL     1      24.371   3.130  50.608  1.00  0.00     0.128 C 
HETATM   11  C10 UNL     1      23.267   2.183  50.466  1.00  0.00    -0.012 A 
HETATM   12  C11 UNL     1      22.706   2.467  49.225  1.00  0.00     0.013 A 
HETATM   13  C12 UNL     1      21.611   1.773  48.760  1.00  0.00     0.001 A 
HETATM   14  C13 UNL     1      21.101   0.783  49.589  1.00  0.00     0.001 A 
HETATM   15  C14 UNL     1      21.701   0.557  50.793  1.00  0.00     0.009 A 
HETATM   16  C15 UNL     1      22.789   1.200  51.328  1.00  0.00    -0.036 A 
HETATM   17  C16 UNL     1      23.218   0.763  52.628  1.00  0.00     0.074 C 
HETATM   18  C17 UNL     1      23.162  -0.678  52.978  1.00  0.00     0.026 C 
ENDROOT
BRANCH   1  19
HETATM   19  C2  UNL     1      20.829  -1.071  54.047  1.00  0.00     0.006 C 
HETATM   20  C1  UNL     1      20.219   0.314  54.198  1.00  0.00     0.006 C 
ENDBRANCH   1  19
TORSDOF 1
ENDMDL
MODEL 2
REMARK VINA RESULT:      -8.2      2.015      4.423
REMARK  1 active torsions:
REMARK  status: ('A' for Active; 'I' for Inactive)
REMARK    1  A    between atoms: C2_2  and  C3_3 
ROOT
HETATM    1  C3  UNL     1      26.371   1.296  52.111  1.00  0.00    -0.030 C 
HETATM    2  C4  UNL     1      27.588   0.838  52.545  1.00  0.00     0.010 C 
HETATM    3  C5  UNL     1      28.304   0.243  53.729  1.00  0.00     0.163 C 
HETATM    4  N1  UNL     1      28.091  -0.186  54.914  1.00  0.00    -0.275 NA
HETATM    5  C6  UNL     1      26.853  -0.242  55.602  1.00  0.00     0.227 C 
HETATM    6  N2  UNL     1      25.988  -0.390  54.721  1.00  0.00    -0.245 NA
HETATM    7  C7  UNL     1      24.650  -0.522  54.514  1.00  0.00     0.061 C 
HETATM    8  C8  UNL     1      24.100  -1.296  55.417  1.00  0.00     0.144 C 
HETATM    9  N3  UNL     1      22.713  -1.550  55.364  1.00  0.00    -0.270 NA
HETATM   10  C9  UNL     1      21.747  -0.981  54.729  1.00  0.00     0.128 C 
HETATM   11  C10 UNL     1      21.899   0.164  53.834  1.00  0.00    -0.012 A 
HETATM   12  C11 UNL     1      20.610   0.658  53.658  1.00  0.00     0.013 A 
HETATM   13  C12 UNL     1      20.365   1.743  52.844  1.00  0.00     0.001 A 
HETATM   14  C13 UNL     1      21.464   2.310  52.213  1.00  0.00     0.001 A 
HETATM   15  C14 UNL     1      22.699   1.775  52.430  1.00  0.00     0.009 A 
HETATM   16  C15 UNL     1      23.027   0.703  53.222  1.00  0.00    -0.036 A 
HETATM   17  C16 UNL     1      24.418   0.343  53.271  1.00  0.00     0.074 C 
HETATM   18  C17 UNL     1      25.455   1.404  53.266  1.00  0.00     0.026 C 
ENDROOT
BRANCH   1  19
HETATM   19  C2  UNL     1      26.054   1.818  50.774  1.00  0.00     0.006 C 
HETATM   20  C1  UNL     1      25.742   3.300  50.901  1.00  0.00     0.006 C 
ENDBRANCH   1  19
TORSDOF 1
ENDMDL
MODEL 3
REMARK VINA RESULT:      -8.1      2.280      5.075
REMARK  1 active torsions:
REMARK  status: ('A' for Active; 'I' for Inactive)
REMARK    1  A    between atoms: C2_2  and  C3_3 
ROOT
HETATM    1  C3  UNL     1      26.143   1.403  52.419  1.00  0.00    -0.030 C 
HETATM    2  C4  UNL     1      26.765   2.310  51.602  1.00  0.00     0.010 C 
HETATM    3  C5  UNL     1      26.554   3.211  50.414  1.00  0.00     0.163 C 
HETATM    4  N1  UNL     1      25.643   3.613  49.613  1.00  0.00    -0.275 NA
HETATM    5  C6  UNL     1      24.273   3.251  49.614  1.00  0.00     0.227 C 
HETATM    6  N2  UNL     1      23.994   3.003  50.801  1.00  0.00    -0.245 NA
HETATM    7  C7  UNL     1      22.989   2.612  51.629  1.00  0.00     0.061 C 
HETATM    8  C8  UNL     1      21.855   3.187  51.310  1.00  0.00     0.144 C 
HETATM    9  N3  UNL     1      20.694   2.901  52.060  1.00  0.00    -0.270 NA
HETATM   10  C9  UNL     1      20.411   1.970  52.904  1.00  0.00     0.128 C 
HETATM   11  C10 UNL     1      21.325   0.904  53.308  1.00  0.00    -0.012 A 
HETATM   12  C11 UNL     1      20.520  -0.046  53.929  1.00  0.00     0.013 A 
HETATM   13  C12 UNL     1      21.056  -1.198  54.462  1.00  0.00     0.001 A 
HETATM   14  C13 UNL     1      22.431  -1.358  54.348  1.00  0.00     0.001 A 
HETATM   15  C14 UNL     1      23.159  -0.387  53.726  1.00  0.00     0.009 A 
HETATM   16  C15 UNL     1      22.705   0.783  53.171  1.00  0.00    -0.036 A 
HETATM   17  C16 UNL     1      23.696   1.638  52.576  1.00  0.00     0.074 C 
HETATM   18  C17 UNL     1      24.834   1.043  51.834  1.00  0.00     0.026 C 
ENDROOT
BRANCH   1  19
HETATM   19  C2  UNL     1      26.733   0.707  53.572  1.00  0.00     0.006 C 
HETATM   20  C1  UNL     1      26.881  -0.764  53.218  1.00  0.00     0.006 C 
ENDBRANCH   1  19
TORSDOF 1
ENDMDL
MODEL 4
REMARK VINA RESULT:      -7.8      1.881      3.679
REMARK  1 active torsions:
REMARK  status: ('A' for Active; 'I' for Inactive)
REMARK    1  A    between atoms: C2_2  and  C3_3 
ROOT
HETATM    1  C3  UNL     1      25.058   0.002  53.818  1.00  0.00    -0.030 C 
HETATM    2  C4  UNL     1      24.542  -0.892  54.720  1.00  0.00     0.010 C 
HETATM    3  C5  UNL     1      23.260  -1.381  55.341  1.00  0.00     0.163 C 
HETATM    4  N1  UNL     1      21.994  -1.228  55.271  1.00  0.00    -0.275 NA
HETATM    5  C6  UNL     1      21.275  -0.370  54.400  1.00  0.00     0.227 C 
HETATM    6  N2  UNL     1      21.971  -0.278  53.374  1.00  0.00    -0.245 NA
HETATM    7  C7  UNL     1      22.033   0.298  52.144  1.00  0.00     0.061 C 
HETATM    8  C8  UNL     1      20.865   0.286  51.550  1.00  0.00     0.144 C 
HETATM    9  N3  UNL     1      20.733   0.843  50.260  1.00  0.00    -0.270 NA
HETATM   10  C9  UNL     1      21.490   1.621  49.566  1.00  0.00     0.128 C 
HETATM   11  C10 UNL     1      22.780   2.143  50.013  1.00  0.00    -0.012 A 
HETATM   12  C11 UNL     1      23.069   3.185  49.137  1.00  0.00     0.013 A 
HETATM   13  C12 UNL     1      24.239   3.906  49.246  1.00  0.00     0.001 A 
HETATM   14  C13 UNL     1      25.106   3.539  50.267  1.00  0.00     0.001 A 
HETATM   15  C14 UNL     1      24.758   2.508  51.089  1.00  0.00     0.009 A 
HETATM   16  C15 UNL     1      23.619   1.744  51.049  1.00  0.00    -0.036 A 
HETATM   17  C16 UNL     1      23.505   0.709  52.041  1.00  0.00     0.074 C 
HETATM   18  C17 UNL     1      23.997   0.952  53.419  1.00  0.00     0.026 C 
ENDROOT
BRANCH   1  19
HETATM   19  C2  UNL     1      26.471   0.166  53.451  1.00  0.00     0.006 C 
HETATM   20  C1  UNL     1      26.799  -0.828  52.349  1.00  0.00     0.006 C 
ENDBRANCH   1  19
TORSDOF 1
ENDMDL
MODEL 5
REMARK VINA RESULT:      -7.8      2.481      5.651
REMARK  1 active torsions:
REMARK  status: ('A' for Active; 'I' for Inactive)
REMARK    1  A    between atoms: C2_2  and  C3_3 
ROOT
HETATM    1  C3  UNL     1      22.688   3.875  51.510  1.00  0.00    -0.030 C 
HETATM    2  C4  UNL     1      21.391   4.314  51.564  1.00  0.00     0.010 C 
HETATM    3  C5  UNL     1      19.968   3.860  51.759  1.00  0.00     0.163 C 
HETATM    4  N1  UNL     1      19.279   2.820  52.035  1.00  0.00    -0.275 NA
HETATM    5  C6  UNL     1      19.759   1.513  52.299  1.00  0.00     0.227 C 
HETATM    6  N2  UNL     1      20.886   1.666  52.803  1.00  0.00    -0.245 NA
HETATM    7  C7  UNL     1      21.958   0.998  53.306  1.00  0.00     0.061 C 
HETATM    8  C8  UNL     1      21.585  -0.019  54.043  1.00  0.00     0.144 C 
HETATM    9  N3  UNL     1      22.563  -0.835  54.651  1.00  0.00    -0.270 NA
HETATM   10  C9  UNL     1      23.830  -0.964  54.459  1.00  0.00     0.128 C 
HETATM   11  C10 UNL     1      24.604  -0.216  53.470  1.00  0.00    -0.012 A 
HETATM   12  C11 UNL     1      25.809  -0.903  53.360  1.00  0.00     0.013 A 
HETATM   13  C12 UNL     1      26.808  -0.464  52.518  1.00  0.00     0.001 A 
HETATM   14  C13 UNL     1      26.549   0.692  51.793  1.00  0.00     0.001 A 
HETATM   15  C14 UNL     1      25.347   1.315  51.951  1.00  0.00     0.009 A 
HETATM   16  C15 UNL     1      24.304   0.944  52.762  1.00  0.00    -0.036 A 
HETATM   17  C16 UNL     1      23.140   1.788  52.739  1.00  0.00     0.074 C 
HETATM   18  C17 UNL     1      22.697   2.397  51.461  1.00  0.00     0.026 C 
ENDROOT
BRANCH   1  19
HETATM   19  C2  UNL     1      23.888   4.699  51.306  1.00  0.00     0.006 C 
HETATM   20  C1  UNL     1      24.499   4.330  49.964  1.00  0.00     0.006 C 
ENDBRANCH   1  19
TORSDOF 1
ENDMDL
MODEL 6
REMARK VINA RESULT:      -7.7      1.847      4.454
REMARK  1 active torsions:
REMARK  status: ('A' for Active; 'I' for Inactive)
REMARK    1  A    between atoms: C2_2  and  C3_3 
ROOT
HETATM    1  C3  UNL     1      25.807   2.520  51.588  1.00  0.00    -0.030 C 
HETATM    2  C4  UNL     1      27.085   2.179  51.948  1.00  0.00     0.010 C 
HETATM    3  C5  UNL     1      27.901   1.505  53.020  1.00  0.00     0.163 C 
HETATM    4  N1  UNL     1      27.774   0.856  54.113  1.00  0.00    -0.275 NA
HETATM    5  C6  UNL     1      26.570   0.504  54.772  1.00  0.00     0.227 C 
HETATM    6  N2  UNL     1      25.720   0.381  53.873  1.00  0.00    -0.245 NA
HETATM    7  C7  UNL     1      24.413   0.091  53.637  1.00  0.00     0.061 C 
HETATM    8  C8  UNL     1      23.998  -0.896  54.391  1.00  0.00     0.144 C 
HETATM    9  N3  UNL     1      22.661  -1.339  54.287  1.00  0.00    -0.270 NA
HETATM   10  C9  UNL     1      21.612  -0.820  53.750  1.00  0.00     0.128 C 
HETATM   11  C10 UNL     1      21.579   0.470  53.062  1.00  0.00    -0.012 A 
HETATM   12  C11 UNL     1      20.229   0.791  52.963  1.00  0.00     0.013 A 
HETATM   13  C12 UNL     1      19.813   1.949  52.343  1.00  0.00     0.001 A 
HETATM   14  C13 UNL     1      20.806   2.770  51.825  1.00  0.00     0.001 A 
HETATM   15  C14 UNL     1      22.110   2.393  51.957  1.00  0.00     0.009 A 
HETATM   16  C15 UNL     1      22.605   1.264  52.558  1.00  0.00    -0.036 A 
HETATM   17  C16 UNL     1      24.035   1.108  52.556  1.00  0.00     0.074 C 
HETATM   18  C17 UNL     1      24.905   2.296  52.739  1.00  0.00     0.026 C 
ENDROOT
BRANCH   1  19
HETATM   19  C2  UNL     1      25.393   3.207  50.357  1.00  0.00     0.006 C 
HETATM   20  C1  UNL     1      26.640   3.558  49.562  1.00  0.00     0.006 C 
ENDBRANCH   1  19
TORSDOF 1
ENDMDL
MODEL 7
REMARK VINA RESULT:      -7.5      1.262      5.018
REMARK  1 active torsions:
REMARK  status: ('A' for Active; 'I' for Inactive)
REMARK    1  A    between atoms: C2_2  and  C3_3 
ROOT
HETATM    1  C3  UNL     1      22.275   2.906  50.159  1.00  0.00    -0.030 C 
HETATM    2  C4  UNL     1      23.089   3.615  49.315  1.00  0.00     0.010 C 
HETATM    3  C5  UNL     1      24.486   4.151  49.148  1.00  0.00     0.163 C 
HETATM    4  N1  UNL     1      25.633   4.146  49.712  1.00  0.00    -0.275 NA
HETATM    5  C6  UNL     1      26.000   3.490  50.914  1.00  0.00     0.227 C 
HETATM    6  N2  UNL     1      25.266   2.489  50.986  1.00  0.00    -0.245 NA
HETATM    7  C7  UNL     1      24.968   1.404  51.749  1.00  0.00     0.061 C 
HETATM    8  C8  UNL     1      26.051   0.849  52.235  1.00  0.00     0.144 C 
HETATM    9  N3  UNL     1      25.940  -0.294  53.057  1.00  0.00    -0.270 NA
HETATM   10  C9  UNL     1      24.944  -0.829  53.674  1.00  0.00     0.128 C 
HETATM   11  C10 UNL     1      23.576  -0.315  53.650  1.00  0.00    -0.012 A 
HETATM   12  C11 UNL     1      22.930  -0.961  54.699  1.00  0.00     0.013 A 
HETATM   13  C12 UNL     1      21.597  -0.733  54.967  1.00  0.00     0.001 A 
HETATM   14  C13 UNL     1      20.940   0.168  54.140  1.00  0.00     0.001 A 
HETATM   15  C14 UNL     1      21.635   0.766  53.130  1.00  0.00     0.009 A 
HETATM   16  C15 UNL     1      22.956   0.595  52.799  1.00  0.00    -0.036 A 
HETATM   17  C16 UNL     1      23.439   1.353  51.676  1.00  0.00     0.074 C 
HETATM   18  C17 UNL     1      22.958   2.739  51.460  1.00  0.00     0.026 C 
ENDROOT
BRANCH   1  19
HETATM   19  C2  UNL     1      20.868   2.548  49.931  1.00  0.00     0.006 C 
HETATM   20  C1  UNL     1      20.827   1.233  49.170  1.00  0.00     0.006 C 
ENDBRANCH   1  19
TORSDOF 1
ENDMDL
MODEL 8
REMARK VINA RESULT:      -7.3      2.230      6.449
REMARK  1 active torsions:
REMARK  status: ('A' for Active; 'I' for Inactive)
REMARK    1  A    between atoms: C2_2  and  C3_3 
ROOT
HETATM    1  C3  UNL     1      24.391   4.258  49.353  1.00  0.00    -0.030 C 
HETATM    2  C4  UNL     1      23.365   4.712  48.567  1.00  0.00     0.010 C 
HETATM    3  C5  UNL     1      22.059   4.313  47.930  1.00  0.00     0.163 C 
HETATM    4  N1  UNL     1      21.232   3.341  47.872  1.00  0.00    -0.275 NA
HETATM    5  C6  UNL     1      21.322   2.090  48.533  1.00  0.00     0.227 C 
HETATM    6  N2  UNL     1      21.948   2.313  49.584  1.00  0.00    -0.245 NA
HETATM    7  C7  UNL     1      22.442   1.726  50.707  1.00  0.00     0.061 C 
HETATM    8  C8  UNL     1      21.601   0.850  51.199  1.00  0.00     0.144 C 
HETATM    9  N3  UNL     1      21.943   0.136  52.368  1.00  0.00    -0.270 NA
HETATM   10  C9  UNL     1      23.059  -0.037  52.987  1.00  0.00     0.128 C 
HETATM   11  C10 UNL     1      24.340   0.529  52.569  1.00  0.00    -0.012 A 
HETATM   12  C11 UNL     1      25.298  -0.180  53.287  1.00  0.00     0.013 A 
HETATM   13  C12 UNL     1      26.641   0.102  53.159  1.00  0.00     0.001 A 
HETATM   14  C13 UNL     1      26.983   1.124  52.283  1.00  0.00     0.001 A 
HETATM   15  C14 UNL     1      25.992   1.777  51.612  1.00  0.00     0.009 A 
HETATM   16  C15 UNL     1      24.639   1.558  51.681  1.00  0.00    -0.036 A 
HETATM   17  C16 UNL     1      23.809   2.399  50.862  1.00  0.00     0.074 C 
HETATM   18  C17 UNL     1      24.268   2.792  49.507  1.00  0.00     0.026 C 
ENDROOT
BRANCH   1  19
HETATM   19  C2  UNL     1      25.562   5.023  49.801  1.00  0.00     0.006 C 
HETATM   20  C1  UNL     1      26.803   4.414  49.168  1.00  0.00     0.006 C 
ENDBRANCH   1  19
TORSDOF 1
ENDMDL
MODEL 9
REMARK VINA RESULT:      -6.7     17.746     20.939
REMARK  1 active torsions:
REMARK  status: ('A' for Active; 'I' for Inactive)
REMARK    1  A    between atoms: C2_2  and  C3_3 
ROOT
HETATM    1  C3  UNL     1      43.740   9.429  51.916  1.00  0.00    -0.030 C 
HETATM    2  C4  UNL     1      43.208  10.190  50.909  1.00  0.00     0.010 C 
HETATM    3  C5  UNL     1      42.062  10.277  49.935  1.00  0.00     0.163 C 
HETATM    4  N1  UNL     1      40.972   9.690  49.618  1.00  0.00    -0.275 NA
HETATM    5  C6  UNL     1      40.404   8.541  50.224  1.00  0.00     0.227 C 
HETATM    6  N2  UNL     1      40.771   8.574  51.412  1.00  0.00    -0.245 NA
HETATM    7  C7  UNL     1      40.694   7.914  52.598  1.00  0.00     0.061 C 
HETATM    8  C8  UNL     1      39.486   7.454  52.812  1.00  0.00     0.144 C 
HETATM    9  N3  UNL     1      39.213   6.737  53.998  1.00  0.00    -0.270 NA
HETATM   10  C9  UNL     1      39.977   6.192  54.880  1.00  0.00     0.128 C 
HETATM   11  C10 UNL     1      41.438   6.203  54.839  1.00  0.00    -0.012 A 
HETATM   12  C11 UNL     1      41.831   5.229  55.752  1.00  0.00     0.013 A 
HETATM   13  C12 UNL     1      43.163   4.973  55.994  1.00  0.00     0.001 A 
HETATM   14  C13 UNL     1      44.084   5.733  55.285  1.00  0.00     0.001 A 
HETATM   15  C14 UNL     1      43.628   6.671  54.406  1.00  0.00     0.009 A 
HETATM   16  C15 UNL     1      42.326   6.986  54.107  1.00  0.00    -0.036 A 
HETATM   17  C16 UNL     1      42.123   8.026  53.137  1.00  0.00     0.074 C 
HETATM   18  C17 UNL     1      43.032   8.132  51.968  1.00  0.00     0.026 C 
ENDROOT
BRANCH   1  19
HETATM   19  C2  UNL     1      44.955   9.719  52.691  1.00  0.00     0.006 C 
HETATM   20  C1  UNL     1      44.915  11.179  53.114  1.00  0.00     0.006 C 
ENDBRANCH   1  19
TORSDOF 1
ENDMDL
