MODEL 1
REMARK VINA RESULT:      -9.7      0.000      0.000
REMARK  7 active torsions:
REMARK  status: ('A' for Active; 'I' for Inactive)
REMARK    1  A    between atoms: C2_2  and  C3_3 
REMARK    2  A    between atoms: C3_3  and  C4_4 
REMARK    3  A    between atoms: C3_3  and  N2_29 
REMARK    4  A    between atoms: C4_4  and  C5_5 
REMARK    5  A    between atoms: C13_13  and  C14_14 
REMARK    6  A    between atoms: N1_17  and  C17_18 
REMARK    7  A    between atoms: N2_29  and  N3_30 
ROOT
HETATM    1  C5  UNL     1      25.855   0.264  53.159  1.00  0.00    -0.049 A 
HETATM    2  C6  UNL     1      26.251   1.631  52.794  1.00  0.00     0.074 A 
HETATM    3  C7  UNL     1      24.831   1.707  52.410  1.00  0.00    -0.060 A 
HETATM    4  C8  UNL     1      24.499   0.491  52.739  1.00  0.00    -0.040 A 
HETATM    5  C9  UNL     1      23.186  -0.143  52.624  1.00  0.00     0.049 A 
HETATM    6  C10 UNL     1      22.788  -0.715  53.978  1.00  0.00     0.020 C 
HETATM    7  C11 UNL     1      22.116   0.759  52.198  1.00  0.00    -0.042 A 
HETATM    8  C12 UNL     1      20.823   0.278  52.174  1.00  0.00     0.015 A 
HETATM    9  C13 UNL     1      19.809   1.151  51.764  1.00  0.00    -0.053 A 
HETATM   10  C22 UNL     1      20.151   2.458  51.401  1.00  0.00     0.008 A 
HETATM   11  C23 UNL     1      21.458   2.893  51.440  1.00  0.00     0.009 A 
HETATM   12  C24 UNL     1      22.471   2.024  51.849  1.00  0.00    -0.043 A 
HETATM   13  C25 UNL     1      23.810   2.619  51.842  1.00  0.00     0.045 A 
HETATM   14  C26 UNL     1      23.738   3.840  52.769  1.00  0.00     0.020 C 
ENDROOT
BRANCH   9  15
HETATM   15  C14 UNL     1      18.438   0.612  51.750  1.00  0.00     0.021 C 
HETATM   16  C15 UNL     1      17.914   0.329  50.376  1.00  0.00     0.029 C 
HETATM   17  C16 UNL     1      16.669  -0.494  50.459  1.00  0.00     0.118 C 
HETATM   18  N1  UNL     1      16.035  -0.499  51.729  1.00  0.00    -0.404 N 
HETATM   19  C20 UNL     1      16.843  -0.837  52.840  1.00  0.00     0.118 C 
HETATM   20  C21 UNL     1      18.341  -0.699  52.540  1.00  0.00     0.029 C 
BRANCH  18  21
HETATM   21  C17 UNL     1      14.943   0.369  51.928  1.00  0.00     0.126 C 
HETATM   22  C18 UNL     1      15.214   1.777  52.356  1.00  0.00     0.194 C 
HETATM   23  O1  UNL     1      14.043   1.709  53.125  1.00  0.00    -0.387 OA
HETATM   24  C19 UNL     1      14.243   0.335  53.256  1.00  0.00     0.194 C 
ENDBRANCH  18  21
ENDBRANCH   9  15
BRANCH   1  25
HETATM   25  C4  UNL     1      26.612  -0.694  53.675  1.00  0.00     0.002 C 
BRANCH  25  26
HETATM   26  C3  UNL     1      27.715  -1.304  52.928  1.00  0.00     0.094 C 
BRANCH  26  27
HETATM   27  C2  UNL     1      29.030  -1.244  53.683  1.00  0.00     0.020 C 
HETATM   28  C1  UNL     1      29.699   0.099  53.491  1.00  0.00     0.007 C 
ENDBRANCH  26  27
BRANCH  26  29
HETATM   29  N2  UNL     1      27.473  -2.713  52.644  1.00  0.00    -0.256 NA
HETATM   30  H35 UNL     1      27.429  -2.890  51.622  1.00  0.00     0.141 HD
BRANCH  29  31
HETATM   31  N3  UNL     1      28.557  -3.435  53.155  1.00  0.00    -0.270 NA
HETATM   32  H36 UNL     1      29.028  -3.971  52.392  1.00  0.00     0.137 HD
HETATM   33  H37 UNL     1      29.278  -2.823  53.580  1.00  0.00     0.137 HD
ENDBRANCH  29  31
ENDBRANCH  26  29
ENDBRANCH  25  26
ENDBRANCH   1  25
TORSDOF 7
ENDMDL
MODEL 2
REMARK VINA RESULT:      -9.6      4.958      7.979
REMARK  7 active torsions:
REMARK  status: ('A' for Active; 'I' for Inactive)
REMARK    1  A    between atoms: C2_2  and  C3_3 
REMARK    2  A    between atoms: C3_3  and  C4_4 
REMARK    3  A    between atoms: C3_3  and  N2_29 
REMARK    4  A    between atoms: C4_4  and  C5_5 
REMARK    5  A    between atoms: C13_13  and  C14_14 
REMARK    6  A    between atoms: N1_17  and  C17_18 
REMARK    7  A    between atoms: N2_29  and  N3_30 
ROOT
HETATM    1  C5  UNL     1      25.248  -0.324  53.331  1.00  0.00    -0.049 A 
HETATM    2  C6  UNL     1      23.813  -0.633  53.407  1.00  0.00     0.074 A 
HETATM    3  C7  UNL     1      23.719   0.664  52.715  1.00  0.00    -0.060 A 
HETATM    4  C8  UNL     1      24.995   0.920  52.658  1.00  0.00    -0.040 A 
HETATM    5  C9  UNL     1      25.650   2.093  52.077  1.00  0.00     0.049 A 
HETATM    6  C10 UNL     1      26.695   1.632  51.070  1.00  0.00     0.020 C 
HETATM    7  C11 UNL     1      24.744   3.007  51.382  1.00  0.00    -0.042 A 
HETATM    8  C12 UNL     1      25.287   4.078  50.704  1.00  0.00     0.015 A 
HETATM    9  C13 UNL     1      24.408   4.945  50.043  1.00  0.00    -0.053 A 
HETATM   10  C22 UNL     1      23.035   4.687  50.101  1.00  0.00     0.008 A 
HETATM   11  C23 UNL     1      22.539   3.603  50.793  1.00  0.00     0.009 A 
HETATM   12  C24 UNL     1      23.413   2.737  51.452  1.00  0.00    -0.043 A 
HETATM   13  C25 UNL     1      22.749   1.629  52.146  1.00  0.00     0.045 A 
HETATM   14  C26 UNL     1      21.947   0.877  51.075  1.00  0.00     0.020 C 
ENDROOT
BRANCH   9  15
HETATM   15  C14 UNL     1      25.015   6.080  49.326  1.00  0.00     0.021 C 
HETATM   16  C15 UNL     1      26.435   5.847  48.916  1.00  0.00     0.029 C 
HETATM   17  C16 UNL     1      26.869   6.892  47.939  1.00  0.00     0.118 C 
HETATM   18  N1  UNL     1      26.057   8.057  47.905  1.00  0.00    -0.404 N 
HETATM   19  C20 UNL     1      24.668   7.857  47.727  1.00  0.00     0.118 C 
HETATM   20  C21 UNL     1      24.235   6.421  48.050  1.00  0.00     0.029 C 
BRANCH  18  21
HETATM   21  C17 UNL     1      26.489   9.186  48.629  1.00  0.00     0.126 C 
HETATM   22  C18 UNL     1      27.807   9.125  49.335  1.00  0.00     0.194 C 
HETATM   23  O1  UNL     1      27.235   9.910  50.348  1.00  0.00    -0.387 OA
HETATM   24  C19 UNL     1      25.993   9.358  50.036  1.00  0.00     0.194 C 
ENDBRANCH  18  21
ENDBRANCH   9  15
BRANCH   1  25
HETATM   25  C4  UNL     1      26.263  -1.051  53.777  1.00  0.00     0.002 C 
BRANCH  25  26
HETATM   26  C3  UNL     1      27.399  -1.410  52.925  1.00  0.00     0.094 C 
BRANCH  26  27
HETATM   27  C2  UNL     1      28.731  -1.018  53.537  1.00  0.00     0.020 C 
HETATM   28  C1  UNL     1      28.585   0.219  54.396  1.00  0.00     0.007 C 
ENDBRANCH  26  27
BRANCH  26  29
HETATM   29  N2  UNL     1      27.470  -2.845  52.682  1.00  0.00    -0.256 NA
HETATM   30  H35 UNL     1      27.573  -3.052  51.670  1.00  0.00     0.141 HD
BRANCH  29  31
HETATM   31  N3  UNL     1      28.612  -3.324  53.333  1.00  0.00    -0.270 NA
HETATM   32  H36 UNL     1      29.125  -3.996  52.718  1.00  0.00     0.137 HD
HETATM   33  H37 UNL     1      29.280  -2.568  53.572  1.00  0.00     0.137 HD
ENDBRANCH  29  31
ENDBRANCH  26  29
ENDBRANCH  25  26
ENDBRANCH   1  25
TORSDOF 7
ENDMDL
MODEL 3
REMARK VINA RESULT:      -9.2      4.780      7.556
REMARK  7 active torsions:
REMARK  status: ('A' for Active; 'I' for Inactive)
REMARK    1  A    between atoms: C2_2  and  C3_3 
REMARK    2  A    between atoms: C3_3  and  C4_4 
REMARK    3  A    between atoms: C3_3  and  N2_29 
REMARK    4  A    between atoms: C4_4  and  C5_5 
REMARK    5  A    between atoms: C13_13  and  C14_14 
REMARK    6  A    between atoms: N1_17  and  C17_18 
REMARK    7  A    between atoms: N2_29  and  N3_30 
ROOT
HETATM    1  C5  UNL     1      25.496  -0.309  53.631  1.00  0.00    -0.049 A 
HETATM    2  C6  UNL     1      24.107  -0.756  53.812  1.00  0.00     0.074 A 
HETATM    3  C7  UNL     1      23.835   0.537  53.163  1.00  0.00    -0.060 A 
HETATM    4  C8  UNL     1      25.072   0.917  53.011  1.00  0.00    -0.040 A 
HETATM    5  C9  UNL     1      25.563   2.157  52.410  1.00  0.00     0.049 A 
HETATM    6  C10 UNL     1      26.561   1.817  51.311  1.00  0.00     0.020 C 
HETATM    7  C11 UNL     1      24.520   2.991  51.812  1.00  0.00    -0.042 A 
HETATM    8  C12 UNL     1      24.902   4.122  51.120  1.00  0.00     0.015 A 
HETATM    9  C13 UNL     1      23.894   4.911  50.553  1.00  0.00    -0.053 A 
HETATM   10  C22 UNL     1      22.561   4.520  50.714  1.00  0.00     0.008 A 
HETATM   11  C23 UNL     1      22.228   3.382  51.416  1.00  0.00     0.009 A 
HETATM   12  C24 UNL     1      23.232   2.593  51.982  1.00  0.00    -0.043 A 
HETATM   13  C25 UNL     1      22.735   1.414  52.698  1.00  0.00     0.045 A 
HETATM   14  C26 UNL     1      21.923   0.606  51.676  1.00  0.00     0.020 C 
ENDROOT
BRANCH   9  15
HETATM   15  C14 UNL     1      24.329   6.111  49.819  1.00  0.00     0.021 C 
HETATM   16  C15 UNL     1      24.266   7.370  50.626  1.00  0.00     0.029 C 
HETATM   17  C16 UNL     1      25.007   8.467  49.931  1.00  0.00     0.118 C 
HETATM   18  N1  UNL     1      25.255   8.243  48.550  1.00  0.00    -0.404 N 
HETATM   19  C20 UNL     1      25.882   7.022  48.207  1.00  0.00     0.118 C 
HETATM   20  C21 UNL     1      25.774   5.974  49.323  1.00  0.00     0.029 C 
BRANCH  18  21
HETATM   21  C17 UNL     1      24.386   8.841  47.616  1.00  0.00     0.126 C 
HETATM   22  C18 UNL     1      24.070   8.103  46.354  1.00  0.00     0.194 C 
HETATM   23  O1  UNL     1      24.047   9.344  45.701  1.00  0.00    -0.387 OA
HETATM   24  C19 UNL     1      24.964   9.822  46.637  1.00  0.00     0.194 C 
ENDBRANCH  18  21
ENDBRANCH   9  15
BRANCH   1  25
HETATM   25  C4  UNL     1      26.608  -0.942  53.976  1.00  0.00     0.002 C 
BRANCH  25  26
HETATM   26  C3  UNL     1      27.618  -1.340  52.992  1.00  0.00     0.094 C 
BRANCH  26  27
HETATM   27  C2  UNL     1      29.031  -1.044  53.457  1.00  0.00     0.020 C 
HETATM   28  C1  UNL     1      29.179   0.414  53.833  1.00  0.00     0.007 C 
ENDBRANCH  26  27
BRANCH  26  29
HETATM   29  N2  UNL     1      27.573  -2.768  52.707  1.00  0.00    -0.256 NA
HETATM   30  H35 UNL     1      27.667  -2.954  51.691  1.00  0.00     0.141 HD
BRANCH  29  31
HETATM   31  N3  UNL     1      28.668  -3.356  53.351  1.00  0.00    -0.270 NA
HETATM   32  H36 UNL     1      28.459  -4.354  53.582  1.00  0.00     0.137 HD
HETATM   33  H37 UNL     1      29.522  -3.357  52.763  1.00  0.00     0.137 HD
ENDBRANCH  29  31
ENDBRANCH  26  29
ENDBRANCH  25  26
ENDBRANCH   1  25
TORSDOF 7
ENDMDL
MODEL 4
REMARK VINA RESULT:      -8.9      4.810      7.119
REMARK  7 active torsions:
REMARK  status: ('A' for Active; 'I' for Inactive)
REMARK    1  A    between atoms: C2_2  and  C3_3 
REMARK    2  A    between atoms: C3_3  and  C4_4 
REMARK    3  A    between atoms: C3_3  and  N2_29 
REMARK    4  A    between atoms: C4_4  and  C5_5 
REMARK    5  A    between atoms: C13_13  and  C14_14 
REMARK    6  A    between atoms: N1_17  and  C17_18 
REMARK    7  A    between atoms: N2_29  and  N3_30 
ROOT
HETATM    1  C5  UNL     1      26.343   0.101  52.920  1.00  0.00    -0.049 A 
HETATM    2  C6  UNL     1      25.165  -0.604  53.447  1.00  0.00     0.074 A 
HETATM    3  C7  UNL     1      24.504   0.646  53.037  1.00  0.00    -0.060 A 
HETATM    4  C8  UNL     1      25.558   1.255  52.574  1.00  0.00    -0.040 A 
HETATM    5  C9  UNL     1      25.637   2.592  51.985  1.00  0.00     0.049 A 
HETATM    6  C10 UNL     1      26.300   2.495  50.617  1.00  0.00     0.020 C 
HETATM    7  C11 UNL     1      24.342   3.246  51.798  1.00  0.00    -0.042 A 
HETATM    8  C12 UNL     1      24.308   4.459  51.143  1.00  0.00     0.015 A 
HETATM    9  C13 UNL     1      23.062   5.074  50.971  1.00  0.00    -0.053 A 
HETATM   10  C22 UNL     1      21.921   4.436  51.468  1.00  0.00     0.008 A 
HETATM   11  C23 UNL     1      22.005   3.223  52.118  1.00  0.00     0.009 A 
HETATM   12  C24 UNL     1      23.247   2.608  52.290  1.00  0.00    -0.043 A 
HETATM   13  C25 UNL     1      23.187   1.325  52.997  1.00  0.00     0.045 A 
HETATM   14  C26 UNL     1      22.248   0.430  52.176  1.00  0.00     0.020 C 
ENDROOT
BRANCH   9  15
HETATM   15  C14 UNL     1      23.055   6.367  50.267  1.00  0.00     0.021 C 
HETATM   16  C15 UNL     1      21.694   6.975  50.131  1.00  0.00     0.029 C 
HETATM   17  C16 UNL     1      21.807   8.401  49.697  1.00  0.00     0.118 C 
HETATM   18  N1  UNL     1      23.061   8.762  49.136  1.00  0.00    -0.404 N 
HETATM   19  C20 UNL     1      24.210   8.458  49.902  1.00  0.00     0.118 C 
HETATM   20  C21 UNL     1      23.934   7.402  50.981  1.00  0.00     0.029 C 
BRANCH  18  21
HETATM   21  C17 UNL     1      23.174   8.789  47.732  1.00  0.00     0.126 C 
HETATM   22  C18 UNL     1      23.140   7.494  46.983  1.00  0.00     0.194 C 
HETATM   23  O1  UNL     1      24.069   8.052  46.091  1.00  0.00    -0.387 OA
HETATM   24  C19 UNL     1      24.550   8.845  47.133  1.00  0.00     0.194 C 
ENDBRANCH  18  21
ENDBRANCH   9  15
BRANCH   1  25
HETATM   25  C4  UNL     1      27.595  -0.330  52.866  1.00  0.00     0.002 C 
BRANCH  25  26
HETATM   26  C3  UNL     1      28.660   0.263  53.680  1.00  0.00     0.094 C 
BRANCH  26  27
HETATM   27  C2  UNL     1      29.868  -0.646  53.806  1.00  0.00     0.020 C 
HETATM   28  C1  UNL     1      29.535  -2.050  53.350  1.00  0.00     0.007 C 
ENDBRANCH  26  27
BRANCH  26  29
HETATM   29  N2  UNL     1      29.149   1.514  53.116  1.00  0.00    -0.256 NA
HETATM   30  H35 UNL     1      28.549   1.835  52.331  1.00  0.00     0.141 HD
BRANCH  29  31
HETATM   31  N3  UNL     1      29.083   2.481  54.125  1.00  0.00    -0.270 NA
HETATM   32  H36 UNL     1      30.019   2.924  54.264  1.00  0.00     0.137 HD
HETATM   33  H37 UNL     1      28.420   3.246  53.901  1.00  0.00     0.137 HD
ENDBRANCH  29  31
ENDBRANCH  26  29
ENDBRANCH  25  26
ENDBRANCH   1  25
TORSDOF 7
ENDMDL
MODEL 5
REMARK VINA RESULT:      -8.8      5.908      9.289
REMARK  7 active torsions:
REMARK  status: ('A' for Active; 'I' for Inactive)
REMARK    1  A    between atoms: C2_2  and  C3_3 
REMARK    2  A    between atoms: C3_3  and  C4_4 
REMARK    3  A    between atoms: C3_3  and  N2_29 
REMARK    4  A    between atoms: C4_4  and  C5_5 
REMARK    5  A    between atoms: C13_13  and  C14_14 
REMARK    6  A    between atoms: N1_17  and  C17_18 
REMARK    7  A    between atoms: N2_29  and  N3_30 
ROOT
HETATM    1  C5  UNL     1      23.931   0.477  52.941  1.00  0.00    -0.049 A 
HETATM    2  C6  UNL     1      22.616   0.266  52.320  1.00  0.00     0.074 A 
HETATM    3  C7  UNL     1      23.014   1.475  51.578  1.00  0.00    -0.060 A 
HETATM    4  C8  UNL     1      24.177   1.646  52.141  1.00  0.00    -0.040 A 
HETATM    5  C9  UNL     1      25.156   2.699  51.875  1.00  0.00     0.049 A 
HETATM    6  C10 UNL     1      26.501   2.060  51.554  1.00  0.00     0.020 C 
HETATM    7  C11 UNL     1      24.810   3.577  50.758  1.00  0.00    -0.042 A 
HETATM    8  C12 UNL     1      25.729   4.525  50.359  1.00  0.00     0.015 A 
HETATM    9  C13 UNL     1      25.385   5.359  49.288  1.00  0.00    -0.053 A 
HETATM   10  C22 UNL     1      24.137   5.192  48.679  1.00  0.00     0.008 A 
HETATM   11  C23 UNL     1      23.251   4.230  49.113  1.00  0.00     0.009 A 
HETATM   12  C24 UNL     1      23.593   3.398  50.180  1.00  0.00    -0.043 A 
HETATM   13  C25 UNL     1      22.557   2.422  50.534  1.00  0.00     0.045 A 
HETATM   14  C26 UNL     1      22.298   1.597  49.266  1.00  0.00     0.020 C 
ENDROOT
BRANCH   9  15
HETATM   15  C14 UNL     1      26.385   6.362  48.883  1.00  0.00     0.021 C 
HETATM   16  C15 UNL     1      27.674   5.771  48.406  1.00  0.00     0.029 C 
HETATM   17  C16 UNL     1      28.502   6.816  47.729  1.00  0.00     0.118 C 
HETATM   18  N1  UNL     1      28.126   8.156  48.013  1.00  0.00    -0.404 N 
HETATM   19  C20 UNL     1      26.767   8.492  47.810  1.00  0.00     0.118 C 
HETATM   20  C21 UNL     1      25.860   7.256  47.753  1.00  0.00     0.029 C 
BRANCH  18  21
HETATM   21  C17 UNL     1      28.853   8.852  49.001  1.00  0.00     0.126 C 
HETATM   22  C18 UNL     1      29.364  10.222  48.684  1.00  0.00     0.194 C 
HETATM   23  O1  UNL     1      30.494   9.917  49.459  1.00  0.00    -0.387 OA
HETATM   24  C19 UNL     1      30.323   8.573  49.127  1.00  0.00     0.194 C 
ENDBRANCH  18  21
ENDBRANCH   9  15
BRANCH   1  25
HETATM   25  C4  UNL     1      24.514  -0.251  53.884  1.00  0.00     0.002 C 
BRANCH  25  26
HETATM   26  C3  UNL     1      25.923  -0.646  53.805  1.00  0.00     0.094 C 
BRANCH  26  27
HETATM   27  C2  UNL     1      26.359  -0.958  52.386  1.00  0.00     0.020 C 
HETATM   28  C1  UNL     1      26.961  -2.343  52.301  1.00  0.00     0.007 C 
ENDBRANCH  26  27
BRANCH  26  29
HETATM   29  N2  UNL     1      26.814   0.403  54.284  1.00  0.00    -0.256 NA
HETATM   30  H35 UNL     1      26.323   1.049  54.932  1.00  0.00     0.141 HD
BRANCH  29  31
HETATM   31  N3  UNL     1      27.843  -0.218  55.000  1.00  0.00    -0.270 NA
HETATM   32  H36 UNL     1      28.721  -0.232  54.434  1.00  0.00     0.137 HD
HETATM   33  H37 UNL     1      28.065   0.273  55.886  1.00  0.00     0.137 HD
ENDBRANCH  29  31
ENDBRANCH  26  29
ENDBRANCH  25  26
ENDBRANCH   1  25
TORSDOF 7
ENDMDL
MODEL 6
REMARK VINA RESULT:      -8.7      3.045      4.548
REMARK  7 active torsions:
REMARK  status: ('A' for Active; 'I' for Inactive)
REMARK    1  A    between atoms: C2_2  and  C3_3 
REMARK    2  A    between atoms: C3_3  and  C4_4 
REMARK    3  A    between atoms: C3_3  and  N2_29 
REMARK    4  A    between atoms: C4_4  and  C5_5 
REMARK    5  A    between atoms: C13_13  and  C14_14 
REMARK    6  A    between atoms: N1_17  and  C17_18 
REMARK    7  A    between atoms: N2_29  and  N3_30 
ROOT
HETATM    1  C5  UNL     1      25.641   2.977  50.655  1.00  0.00    -0.049 A 
HETATM    2  C6  UNL     1      26.491   2.330  51.664  1.00  0.00     0.074 A 
HETATM    3  C7  UNL     1      25.188   1.817  52.118  1.00  0.00    -0.060 A 
HETATM    4  C8  UNL     1      24.450   2.399  51.216  1.00  0.00    -0.040 A 
HETATM    5  C9  UNL     1      22.998   2.326  51.059  1.00  0.00     0.049 A 
HETATM    6  C10 UNL     1      22.671   1.892  49.636  1.00  0.00     0.020 C 
HETATM    7  C11 UNL     1      22.340   1.385  51.966  1.00  0.00    -0.042 A 
HETATM    8  C12 UNL     1      20.988   1.162  51.812  1.00  0.00     0.015 A 
HETATM    9  C13 UNL     1      20.371   0.259  52.687  1.00  0.00    -0.053 A 
HETATM   10  C22 UNL     1      21.148  -0.369  53.666  1.00  0.00     0.008 A 
HETATM   11  C23 UNL     1      22.498  -0.113  53.781  1.00  0.00     0.009 A 
HETATM   12  C24 UNL     1      23.114   0.787  52.910  1.00  0.00    -0.043 A 
HETATM   13  C25 UNL     1      24.551   0.962  53.147  1.00  0.00     0.045 A 
HETATM   14  C26 UNL     1      25.176  -0.434  53.016  1.00  0.00     0.020 C 
ENDROOT
BRANCH   9  15
HETATM   15  C14 UNL     1      18.927   0.039  52.499  1.00  0.00     0.021 C 
HETATM   16  C15 UNL     1      18.474   0.173  51.079  1.00  0.00     0.029 C 
HETATM   17  C16 UNL     1      17.088  -0.364  50.926  1.00  0.00     0.118 C 
HETATM   18  N1  UNL     1      16.361  -0.505  52.138  1.00  0.00    -0.404 N 
HETATM   19  C20 UNL     1      16.989  -1.235  53.174  1.00  0.00     0.118 C 
HETATM   20  C21 UNL     1      18.504  -1.358  52.970  1.00  0.00     0.029 C 
BRANCH  18  21
HETATM   21  C17 UNL     1      15.451   0.514  52.486  1.00  0.00     0.126 C 
HETATM   22  C18 UNL     1      14.088   0.501  51.871  1.00  0.00     0.194 C 
HETATM   23  O1  UNL     1      14.143   1.902  51.856  1.00  0.00    -0.387 OA
HETATM   24  C19 UNL     1      15.531   1.818  51.746  1.00  0.00     0.194 C 
ENDBRANCH  18  21
ENDBRANCH   9  15
BRANCH   1  25
HETATM   25  C4  UNL     1      26.015   3.772  49.662  1.00  0.00     0.002 C 
BRANCH  25  26
HETATM   26  C3  UNL     1      25.467   5.121  49.494  1.00  0.00     0.094 C 
BRANCH  26  27
HETATM   27  C2  UNL     1      24.098   5.114  48.840  1.00  0.00     0.020 C 
HETATM   28  C1  UNL     1      23.885   6.371  48.027  1.00  0.00     0.007 C 
ENDBRANCH  26  27
BRANCH  26  29
HETATM   29  N2  UNL     1      25.306   5.810  50.768  1.00  0.00    -0.256 NA
HETATM   30  H35 UNL     1      25.694   5.250  51.552  1.00  0.00     0.141 HD
BRANCH  29  31
HETATM   31  N3  UNL     1      26.037   7.000  50.694  1.00  0.00    -0.270 NA
HETATM   32  H36 UNL     1      25.998   7.508  51.607  1.00  0.00     0.137 HD
HETATM   33  H37 UNL     1      27.040   6.840  50.485  1.00  0.00     0.137 HD
ENDBRANCH  29  31
ENDBRANCH  26  29
ENDBRANCH  25  26
ENDBRANCH   1  25
TORSDOF 7
ENDMDL
MODEL 7
REMARK VINA RESULT:      -8.5      2.951      4.617
REMARK  7 active torsions:
REMARK  status: ('A' for Active; 'I' for Inactive)
REMARK    1  A    between atoms: C2_2  and  C3_3 
REMARK    2  A    between atoms: C3_3  and  C4_4 
REMARK    3  A    between atoms: C3_3  and  N2_29 
REMARK    4  A    between atoms: C4_4  and  C5_5 
REMARK    5  A    between atoms: C13_13  and  C14_14 
REMARK    6  A    between atoms: N1_17  and  C17_18 
REMARK    7  A    between atoms: N2_29  and  N3_30 
ROOT
HETATM    1  C5  UNL     1      23.936   1.391  52.216  1.00  0.00    -0.049 A 
HETATM    2  C6  UNL     1      24.186   0.688  53.483  1.00  0.00     0.074 A 
HETATM    3  C7  UNL     1      22.753   0.380  53.344  1.00  0.00    -0.060 A 
HETATM    4  C8  UNL     1      22.550   1.008  52.221  1.00  0.00    -0.040 A 
HETATM    5  C9  UNL     1      21.300   1.123  51.470  1.00  0.00     0.049 A 
HETATM    6  C10 UNL     1      21.536   0.664  50.037  1.00  0.00     0.020 C 
HETATM    7  C11 UNL     1      20.198   0.327  52.008  1.00  0.00    -0.042 A 
HETATM    8  C12 UNL     1      19.015   0.280  51.300  1.00  0.00     0.015 A 
HETATM    9  C13 UNL     1      17.968  -0.486  51.827  1.00  0.00    -0.053 A 
HETATM   10  C22 UNL     1      18.168  -1.160  53.035  1.00  0.00     0.008 A 
HETATM   11  C23 UNL     1      19.369  -1.082  53.708  1.00  0.00     0.009 A 
HETATM   12  C24 UNL     1      20.414  -0.320  53.184  1.00  0.00    -0.043 A 
HETATM   13  C25 UNL     1      21.630  -0.328  54.003  1.00  0.00     0.045 A 
HETATM   14  C26 UNL     1      22.046  -1.799  54.133  1.00  0.00     0.020 C 
ENDROOT
BRANCH   9  15
HETATM   15  C14 UNL     1      16.717  -0.519  51.049  1.00  0.00     0.021 C 
HETATM   16  C15 UNL     1      15.566   0.155  51.727  1.00  0.00     0.029 C 
HETATM   17  C16 UNL     1      14.443   0.354  50.761  1.00  0.00     0.118 C 
HETATM   18  N1  UNL     1      14.511  -0.444  49.588  1.00  0.00    -0.404 N 
HETATM   19  C20 UNL     1      15.718  -0.392  48.854  1.00  0.00     0.118 C 
HETATM   20  C21 UNL     1      16.886   0.158  49.683  1.00  0.00     0.029 C 
BRANCH  18  21
HETATM   21  C17 UNL     1      13.747  -1.628  49.548  1.00  0.00     0.126 C 
HETATM   22  C18 UNL     1      14.387  -2.910  49.981  1.00  0.00     0.194 C 
HETATM   23  O1  UNL     1      13.639  -3.553  48.983  1.00  0.00    -0.387 OA
HETATM   24  C19 UNL     1      13.658  -2.370  48.245  1.00  0.00     0.194 C 
ENDBRANCH  18  21
ENDBRANCH   9  15
BRANCH   1  25
HETATM   25  C4  UNL     1      24.799   2.076  51.479  1.00  0.00     0.002 C 
BRANCH  25  26
HETATM   26  C3  UNL     1      24.559   3.469  51.091  1.00  0.00     0.094 C 
BRANCH  26  27
HETATM   27  C2  UNL     1      23.783   4.239  52.142  1.00  0.00     0.020 C 
HETATM   28  C1  UNL     1      22.475   4.749  51.578  1.00  0.00     0.007 C 
ENDBRANCH  26  27
BRANCH  26  29
HETATM   29  N2  UNL     1      25.802   4.201  50.884  1.00  0.00    -0.256 NA
HETATM   30  H35 UNL     1      25.958   4.901  51.634  1.00  0.00     0.141 HD
BRANCH  29  31
HETATM   31  N3  UNL     1      26.848   3.274  50.943  1.00  0.00    -0.270 NA
HETATM   32  H36 UNL     1      27.641   3.657  51.507  1.00  0.00     0.137 HD
HETATM   33  H37 UNL     1      26.566   2.383  51.391  1.00  0.00     0.137 HD
ENDBRANCH  29  31
ENDBRANCH  26  29
ENDBRANCH  25  26
ENDBRANCH   1  25
TORSDOF 7
ENDMDL
MODEL 8
REMARK VINA RESULT:      -8.5      8.201     10.517
REMARK  7 active torsions:
REMARK  status: ('A' for Active; 'I' for Inactive)
REMARK    1  A    between atoms: C2_2  and  C3_3 
REMARK    2  A    between atoms: C3_3  and  C4_4 
REMARK    3  A    between atoms: C3_3  and  N2_29 
REMARK    4  A    between atoms: C4_4  and  C5_5 
REMARK    5  A    between atoms: C13_13  and  C14_14 
REMARK    6  A    between atoms: N1_17  and  C17_18 
REMARK    7  A    between atoms: N2_29  and  N3_30 
ROOT
HETATM    1  C5  UNL     1      33.471   6.312  46.914  1.00  0.00    -0.049 A 
HETATM    2  C6  UNL     1      33.452   7.523  46.081  1.00  0.00     0.074 A 
HETATM    3  C7  UNL     1      32.009   7.425  46.354  1.00  0.00    -0.060 A 
HETATM    4  C8  UNL     1      32.045   6.351  47.090  1.00  0.00    -0.040 A 
HETATM    5  C9  UNL     1      30.924   5.660  47.727  1.00  0.00     0.049 A 
HETATM    6  C10 UNL     1      31.214   5.503  49.214  1.00  0.00     0.020 C 
HETATM    7  C11 UNL     1      29.640   6.351  47.601  1.00  0.00    -0.042 A 
HETATM    8  C12 UNL     1      28.550   5.835  48.269  1.00  0.00     0.015 A 
HETATM    9  C13 UNL     1      27.328   6.506  48.141  1.00  0.00    -0.053 A 
HETATM   10  C22 UNL     1      27.271   7.656  47.348  1.00  0.00     0.008 A 
HETATM   11  C23 UNL     1      28.389   8.134  46.699  1.00  0.00     0.009 A 
HETATM   12  C24 UNL     1      29.608   7.467  46.826  1.00  0.00    -0.043 A 
HETATM   13  C25 UNL     1      30.710   8.085  46.082  1.00  0.00     0.045 A 
HETATM   14  C26 UNL     1      30.823   9.523  46.606  1.00  0.00     0.020 C 
ENDROOT
BRANCH   9  15
HETATM   15  C14 UNL     1      26.180   5.933  48.866  1.00  0.00     0.021 C 
HETATM   16  C15 UNL     1      26.421   4.549  49.382  1.00  0.00     0.029 C 
HETATM   17  C16 UNL     1      25.353   4.169  50.356  1.00  0.00     0.118 C 
HETATM   18  N1  UNL     1      24.176   4.963  50.298  1.00  0.00    -0.404 N 
HETATM   19  C20 UNL     1      24.350   6.364  50.383  1.00  0.00     0.118 C 
HETATM   20  C21 UNL     1      25.789   6.796  50.072  1.00  0.00     0.029 C 
BRANCH  18  21
HETATM   21  C17 UNL     1      23.076   4.462  49.574  1.00  0.00     0.126 C 
HETATM   22  C18 UNL     1      23.190   3.115  48.933  1.00  0.00     0.194 C 
HETATM   23  O1  UNL     1      22.410   3.613  47.879  1.00  0.00    -0.387 OA
HETATM   24  C19 UNL     1      22.918   4.885  48.142  1.00  0.00     0.194 C 
ENDBRANCH  18  21
ENDBRANCH   9  15
BRANCH   1  25
HETATM   25  C4  UNL     1      34.520   5.582  47.268  1.00  0.00     0.002 C 
BRANCH  25  26
HETATM   26  C3  UNL     1      34.404   4.159  47.600  1.00  0.00     0.094 C 
BRANCH  26  27
HETATM   27  C2  UNL     1      35.056   3.267  46.561  1.00  0.00     0.020 C 
HETATM   28  C1  UNL     1      35.108   3.956  45.215  1.00  0.00     0.007 C 
ENDBRANCH  26  27
BRANCH  26  29
HETATM   29  N2  UNL     1      35.041   3.839  48.870  1.00  0.00    -0.256 NA
HETATM   30  H35 UNL     1      35.898   3.269  48.730  1.00  0.00     0.141 HD
BRANCH  29  31
HETATM   31  N3  UNL     1      35.425   5.047  49.461  1.00  0.00    -0.270 NA
HETATM   32  H36 UNL     1      36.066   5.574  48.826  1.00  0.00     0.137 HD
HETATM   33  H37 UNL     1      34.620   5.669  49.656  1.00  0.00     0.137 HD
ENDBRANCH  29  31
ENDBRANCH  26  29
ENDBRANCH  25  26
ENDBRANCH   1  25
TORSDOF 7
ENDMDL
MODEL 9
REMARK VINA RESULT:      -8.4      2.659      4.133
REMARK  7 active torsions:
REMARK  status: ('A' for Active; 'I' for Inactive)
REMARK    1  A    between atoms: C2_2  and  C3_3 
REMARK    2  A    between atoms: C3_3  and  C4_4 
REMARK    3  A    between atoms: C3_3  and  N2_29 
REMARK    4  A    between atoms: C4_4  and  C5_5 
REMARK    5  A    between atoms: C13_13  and  C14_14 
REMARK    6  A    between atoms: N1_17  and  C17_18 
REMARK    7  A    between atoms: N2_29  and  N3_30 
ROOT
HETATM    1  C5  UNL     1      24.066   1.015  52.462  1.00  0.00    -0.049 A 
HETATM    2  C6  UNL     1      24.250   0.205  53.675  1.00  0.00     0.074 A 
HETATM    3  C7  UNL     1      22.796   0.029  53.515  1.00  0.00    -0.060 A 
HETATM    4  C8  UNL     1      22.653   0.751  52.440  1.00  0.00    -0.040 A 
HETATM    5  C9  UNL     1      21.421   1.023  51.700  1.00  0.00     0.049 A 
HETATM    6  C10 UNL     1      21.626   0.650  50.237  1.00  0.00     0.020 C 
HETATM    7  C11 UNL     1      20.253   0.286  52.181  1.00  0.00    -0.042 A 
HETATM    8  C12 UNL     1      19.074   0.390  51.471  1.00  0.00     0.015 A 
HETATM    9  C13 UNL     1      17.964  -0.321  51.943  1.00  0.00    -0.053 A 
HETATM   10  C22 UNL     1      18.100  -1.095  53.100  1.00  0.00     0.008 A 
HETATM   11  C23 UNL     1      19.299  -1.166  53.776  1.00  0.00     0.009 A 
HETATM   12  C24 UNL     1      20.408  -0.459  53.307  1.00  0.00    -0.043 A 
HETATM   13  C25 UNL     1      21.615  -0.627  54.122  1.00  0.00     0.045 A 
HETATM   14  C26 UNL     1      21.905  -2.134  54.147  1.00  0.00     0.020 C 
ENDROOT
BRANCH   9  15
HETATM   15  C14 UNL     1      16.719  -0.193  51.166  1.00  0.00     0.021 C 
HETATM   16  C15 UNL     1      16.927  -0.213  49.684  1.00  0.00     0.029 C 
HETATM   17  C16 UNL     1      15.619  -0.395  48.982  1.00  0.00     0.118 C 
HETATM   18  N1  UNL     1      14.471  -0.116  49.769  1.00  0.00    -0.404 N 
HETATM   19  C20 UNL     1      14.380  -0.778  51.016  1.00  0.00     0.118 C 
HETATM   20  C21 UNL     1      15.733  -1.322  51.492  1.00  0.00     0.029 C 
BRANCH  18  21
HETATM   21  C17 UNL     1      13.864   1.148  49.631  1.00  0.00     0.126 C 
HETATM   22  C18 UNL     1      14.679   2.280  49.090  1.00  0.00     0.194 C 
HETATM   23  O1  UNL     1      13.980   3.126  49.964  1.00  0.00    -0.387 OA
HETATM   24  C19 UNL     1      13.818   2.047  50.833  1.00  0.00     0.194 C 
ENDBRANCH  18  21
ENDBRANCH   9  15
BRANCH   1  25
HETATM   25  C4  UNL     1      24.987   1.676  51.775  1.00  0.00     0.002 C 
BRANCH  25  26
HETATM   26  C3  UNL     1      24.733   3.002  51.204  1.00  0.00     0.094 C 
BRANCH  26  27
HETATM   27  C2  UNL     1      23.964   3.904  52.152  1.00  0.00     0.020 C 
HETATM   28  C1  UNL     1      22.734   4.469  51.477  1.00  0.00     0.007 C 
ENDBRANCH  26  27
BRANCH  26  29
HETATM   29  N2  UNL     1      25.967   3.706  50.882  1.00  0.00    -0.256 NA
HETATM   30  H35 UNL     1      25.977   4.658  51.295  1.00  0.00     0.141 HD
BRANCH  29  31
HETATM   31  N3  UNL     1      27.021   2.983  51.452  1.00  0.00    -0.270 NA
HETATM   32  H36 UNL     1      26.893   1.960  51.281  1.00  0.00     0.137 HD
HETATM   33  H37 UNL     1      27.942   3.241  51.053  1.00  0.00     0.137 HD
ENDBRANCH  29  31
ENDBRANCH  26  29
ENDBRANCH  25  26
ENDBRANCH   1  25
TORSDOF 7
ENDMDL
