MODEL 1
REMARK VINA RESULT:     -10.2      0.000      0.000
REMARK  0 active torsions:
REMARK  status: ('A' for Active; 'I' for Inactive)
ROOT
HETATM    1  C1  UNL     1      21.121   4.191  47.712  1.00  0.00     0.012 C 
HETATM    2  C2  UNL     1      21.169   3.074  48.696  1.00  0.00     0.006 C 
HETATM    3  C3  UNL     1      22.683   3.111  49.146  1.00  0.00     0.010 C 
HETATM    4  C4  UNL     1      22.806   2.131  50.255  1.00  0.00     0.037 C 
HETATM    5  C5  UNL     1      23.981   2.505  51.138  1.00  0.00    -0.051 C 
HETATM    6  C6  UNL     1      25.115   1.754  51.156  1.00  0.00    -0.009 C 
HETATM    7  C7  UNL     1      26.187   2.208  52.052  1.00  0.00     0.076 C 
HETATM    8  C8  UNL     1      25.434   2.408  53.418  1.00  0.00     0.043 C 
HETATM    9  C9  UNL     1      24.340   3.151  53.417  1.00  0.00     0.037 C 
HETATM   10  C10 UNL     1      24.010   3.686  52.038  1.00  0.00     0.177 C 
HETATM   11  O1  UNL     1      23.082   4.599  52.133  1.00  0.00    -0.353 OA
HETATM   12  C11 UNL     1      21.726   4.368  51.992  1.00  0.00     0.339 C 
HETATM   13  O2  UNL     1      21.517   3.893  50.799  1.00  0.00    -0.367 OA
HETATM   14  C12 UNL     1      20.529   3.464  50.080  1.00  0.00     0.174 C 
HETATM   15  N1  UNL     1      26.282   1.633  54.222  1.00  0.00    -0.245 NA
HETATM   16  C13 UNL     1      26.230   0.421  54.575  1.00  0.00     0.250 C 
HETATM   17  N2  UNL     1      27.246  -0.229  55.423  1.00  0.00    -0.174 NA
HETATM   18  N3  UNL     1      28.451  -0.312  54.779  1.00  0.00    -0.096 NA
HETATM   19  C14 UNL     1      28.294   0.304  53.429  1.00  0.00     0.097 A 
HETATM   20  C15 UNL     1      28.921   1.335  54.042  1.00  0.00    -0.012 A 
HETATM   21  C16 UNL     1      28.052   1.889  53.131  1.00  0.00     0.057 A 
HETATM   22  C17 UNL     1      27.227   1.173  52.305  1.00  0.00     0.031 A 
HETATM   23  C18 UNL     1      26.766  -0.004  51.854  1.00  0.00     0.009 A 
HETATM   24  C19 UNL     1      27.613  -0.652  52.756  1.00  0.00     0.038 A 
HETATM   25 CL1  UNL     1      27.700  -2.394  52.888  1.00  0.00    -0.087 Cl
ENDROOT
TORSDOF 0
ENDMDL
MODEL 2
REMARK VINA RESULT:      -9.8      3.814      7.020
REMARK  0 active torsions:
REMARK  status: ('A' for Active; 'I' for Inactive)
ROOT
HETATM    1  C1  UNL     1      29.769  -1.516  53.685  1.00  0.00     0.012 C 
HETATM    2  C2  UNL     1      29.478  -0.068  53.877  1.00  0.00     0.006 C 
HETATM    3  C3  UNL     1      28.490   0.221  52.679  1.00  0.00     0.010 C 
HETATM    4  C4  UNL     1      28.007   1.611  52.871  1.00  0.00     0.037 C 
HETATM    5  C5  UNL     1      26.660   1.782  52.195  1.00  0.00    -0.051 C 
HETATM    6  C6  UNL     1      26.527   2.533  51.070  1.00  0.00    -0.009 C 
HETATM    7  C7  UNL     1      25.173   2.631  50.504  1.00  0.00     0.076 C 
HETATM    8  C8  UNL     1      24.307   3.040  51.751  1.00  0.00     0.043 C 
HETATM    9  C9  UNL     1      24.415   2.306  52.845  1.00  0.00     0.037 C 
HETATM   10  C10 UNL     1      25.398   1.165  52.677  1.00  0.00     0.177 C 
HETATM   11  O1  UNL     1      25.284   0.339  53.681  1.00  0.00    -0.353 OA
HETATM   12  C11 UNL     1      26.052   0.377  54.831  1.00  0.00     0.339 C 
HETATM   13  O2  UNL     1      27.298   0.221  54.491  1.00  0.00    -0.367 OA
HETATM   14  C12 UNL     1      28.465   0.191  55.053  1.00  0.00     0.174 C 
HETATM   15  N1  UNL     1      23.679   4.161  51.189  1.00  0.00    -0.245 NA
HETATM   16  C13 UNL     1      23.971   5.389  51.213  1.00  0.00     0.250 C 
HETATM   17  N2  UNL     1      23.182   6.432  50.534  1.00  0.00    -0.174 NA
HETATM   18  N3  UNL     1      23.240   6.292  49.173  1.00  0.00    -0.096 NA
HETATM   19  C14 UNL     1      24.093   5.106  48.870  1.00  0.00     0.097 A 
HETATM   20  C15 UNL     1      22.884   4.531  48.676  1.00  0.00    -0.012 A 
HETATM   21  C16 UNL     1      23.706   3.553  49.185  1.00  0.00     0.057 A 
HETATM   22  C17 UNL     1      25.022   3.736  49.518  1.00  0.00     0.031 A 
HETATM   23  C18 UNL     1      26.102   4.529  49.605  1.00  0.00     0.009 A 
HETATM   24  C19 UNL     1      25.338   5.583  49.101  1.00  0.00     0.038 A 
HETATM   25 CL1  UNL     1      25.991   7.185  48.842  1.00  0.00    -0.087 Cl
ENDROOT
TORSDOF 0
ENDMDL
MODEL 3
REMARK VINA RESULT:      -9.5      4.009      7.241
REMARK  0 active torsions:
REMARK  status: ('A' for Active; 'I' for Inactive)
ROOT
HETATM    1  C1  UNL     1      29.220  -0.830  53.304  1.00  0.00     0.012 C 
HETATM    2  C2  UNL     1      28.396   0.358  53.659  1.00  0.00     0.006 C 
HETATM    3  C3  UNL     1      27.156   0.186  52.696  1.00  0.00     0.010 C 
HETATM    4  C4  UNL     1      26.185   1.241  53.082  1.00  0.00     0.037 C 
HETATM    5  C5  UNL     1      24.784   0.814  52.690  1.00  0.00    -0.051 C 
HETATM    6  C6  UNL     1      24.121   1.424  51.672  1.00  0.00    -0.009 C 
HETATM    7  C7  UNL     1      22.767   0.931  51.382  1.00  0.00     0.076 C 
HETATM    8  C8  UNL     1      22.084   0.946  52.798  1.00  0.00     0.043 C 
HETATM    9  C9  UNL     1      22.711   0.339  53.792  1.00  0.00     0.037 C 
HETATM   10  C10 UNL     1      24.024  -0.276  53.353  1.00  0.00     0.177 C 
HETATM   11  O1  UNL     1      24.474  -1.061  54.294  1.00  0.00    -0.353 OA
HETATM   12  C11 UNL     1      25.373  -0.686  55.276  1.00  0.00     0.339 C 
HETATM   13  O2  UNL     1      26.472  -0.301  54.696  1.00  0.00    -0.367 OA
HETATM   14  C12 UNL     1      27.632   0.174  55.022  1.00  0.00     0.174 C 
HETATM   15  N1  UNL     1      20.944   1.687  52.454  1.00  0.00    -0.245 NA
HETATM   16  C13 UNL     1      20.694   2.923  52.517  1.00  0.00     0.250 C 
HETATM   17  N2  UNL     1      19.420   3.523  52.082  1.00  0.00    -0.174 NA
HETATM   18  N3  UNL     1      19.252   3.406  50.728  1.00  0.00    -0.096 NA
HETATM   19  C14 UNL     1      20.441   2.692  50.178  1.00  0.00     0.097 A 
HETATM   20  C15 UNL     1      19.572   1.654  50.174  1.00  0.00    -0.012 A 
HETATM   21  C16 UNL     1      20.813   1.126  50.440  1.00  0.00     0.057 A 
HETATM   22  C17 UNL     1      21.969   1.855  50.531  1.00  0.00     0.031 A 
HETATM   23  C18 UNL     1      22.611   3.033  50.472  1.00  0.00     0.009 A 
HETATM   24  C19 UNL     1      21.390   3.656  50.205  1.00  0.00     0.038 A 
HETATM   25 CL1  UNL     1      21.244   5.380  49.951  1.00  0.00    -0.087 Cl
ENDROOT
TORSDOF 0
ENDMDL
MODEL 4
REMARK VINA RESULT:      -9.1      1.683      2.267
REMARK  0 active torsions:
REMARK  status: ('A' for Active; 'I' for Inactive)
ROOT
HETATM    1  C1  UNL     1      19.523   4.424  48.994  1.00  0.00     0.012 C 
HETATM    2  C2  UNL     1      20.185   4.556  50.322  1.00  0.00     0.006 C 
HETATM    3  C3  UNL     1      21.191   3.338  50.299  1.00  0.00     0.010 C 
HETATM    4  C4  UNL     1      22.023   3.469  51.521  1.00  0.00     0.037 C 
HETATM    5  C5  UNL     1      23.355   2.774  51.308  1.00  0.00    -0.051 C 
HETATM    6  C6  UNL     1      23.657   1.618  51.957  1.00  0.00    -0.009 C 
HETATM    7  C7  UNL     1      24.978   1.036  51.678  1.00  0.00     0.076 C 
HETATM    8  C8  UNL     1      25.945   2.257  51.891  1.00  0.00     0.043 C 
HETATM    9  C9  UNL     1      25.671   3.381  51.250  1.00  0.00     0.037 C 
HETATM   10  C10 UNL     1      24.422   3.268  50.401  1.00  0.00     0.177 C 
HETATM   11  O1  UNL     1      24.336   4.304  49.611  1.00  0.00    -0.353 OA
HETATM   12  C11 UNL     1      23.627   5.457  49.890  1.00  0.00     0.339 C 
HETATM   13  O2  UNL     1      22.377   5.137  50.053  1.00  0.00    -0.367 OA
HETATM   14  C12 UNL     1      21.253   5.710  50.349  1.00  0.00     0.174 C 
HETATM   15  N1  UNL     1      26.833   1.645  52.788  1.00  0.00    -0.245 NA
HETATM   16  C13 UNL     1      26.872   1.623  54.050  1.00  0.00     0.250 C 
HETATM   17  N2  UNL     1      27.892   0.894  54.825  1.00  0.00    -0.174 NA
HETATM   18  N3  UNL     1      27.772  -0.459  54.655  1.00  0.00    -0.096 NA
HETATM   19  C14 UNL     1      26.633  -0.706  53.723  1.00  0.00     0.097 A 
HETATM   20  C15 UNL     1      27.647  -0.888  52.845  1.00  0.00    -0.012 A 
HETATM   21  C16 UNL     1      26.609  -0.333  52.136  1.00  0.00     0.057 A 
HETATM   22  C17 UNL     1      25.393   0.005  52.669  1.00  0.00     0.031 A 
HETATM   23  C18 UNL     1      24.559   0.071  53.718  1.00  0.00     0.009 A 
HETATM   24  C19 UNL     1      25.561  -0.483  54.517  1.00  0.00     0.038 A 
HETATM   25 CL1  UNL     1      25.344  -0.799  56.223  1.00  0.00    -0.087 Cl
ENDROOT
TORSDOF 0
ENDMDL
MODEL 5
REMARK VINA RESULT:      -8.7      4.079      7.276
REMARK  0 active torsions:
REMARK  status: ('A' for Active; 'I' for Inactive)
ROOT
HETATM    1  C1  UNL     1      28.287   0.236  55.079  1.00  0.00     0.012 C 
HETATM    2  C2  UNL     1      27.389  -0.440  54.102  1.00  0.00     0.006 C 
HETATM    3  C3  UNL     1      26.087   0.450  54.196  1.00  0.00     0.010 C 
HETATM    4  C4  UNL     1      25.173  -0.045  53.136  1.00  0.00     0.037 C 
HETATM    5  C5  UNL     1      24.218   1.061  52.729  1.00  0.00    -0.051 C 
HETATM    6  C6  UNL     1      22.898   1.004  53.050  1.00  0.00    -0.009 C 
HETATM    7  C7  UNL     1      22.064   2.128  52.601  1.00  0.00     0.076 C 
HETATM    8  C8  UNL     1      22.431   2.241  51.076  1.00  0.00     0.043 C 
HETATM    9  C9  UNL     1      23.711   2.316  50.753  1.00  0.00     0.037 C 
HETATM   10  C10 UNL     1      24.615   2.273  51.969  1.00  0.00     0.177 C 
HETATM   11  O1  UNL     1      25.831   2.595  51.621  1.00  0.00    -0.353 OA
HETATM   12  C11 UNL     1      26.822   1.693  51.279  1.00  0.00     0.339 C 
HETATM   13  O2  UNL     1      27.030   0.912  52.298  1.00  0.00    -0.367 OA
HETATM   14  C12 UNL     1      27.764  -0.108  52.611  1.00  0.00     0.174 C 
HETATM   15  N1  UNL     1      21.127   2.206  50.562  1.00  0.00    -0.245 NA
HETATM   16  C13 UNL     1      20.416   1.253  50.137  1.00  0.00     0.250 C 
HETATM   17  N2  UNL     1      19.036   1.416  49.645  1.00  0.00    -0.174 NA
HETATM   18  N3  UNL     1      18.191   1.795  50.654  1.00  0.00    -0.096 NA
HETATM   19  C14 UNL     1      18.994   1.913  51.906  1.00  0.00     0.097 A 
HETATM   20  C15 UNL     1      18.904   3.230  51.607  1.00  0.00    -0.012 A 
HETATM   21  C16 UNL     1      20.130   3.045  52.202  1.00  0.00     0.057 A 
HETATM   22  C17 UNL     1      20.604   1.842  52.653  1.00  0.00     0.031 A 
HETATM   23  C18 UNL     1      20.441   0.524  52.846  1.00  0.00     0.009 A 
HETATM   24  C19 UNL     1      19.184   0.617  52.246  1.00  0.00     0.038 A 
HETATM   25 CL1  UNL     1      18.127  -0.761  52.043  1.00  0.00    -0.087 Cl
ENDROOT
TORSDOF 0
ENDMDL
MODEL 6
REMARK VINA RESULT:      -8.4      6.716      7.578
REMARK  0 active torsions:
REMARK  status: ('A' for Active; 'I' for Inactive)
ROOT
HETATM    1  C1  UNL     1      22.940   2.301  49.933  1.00  0.00     0.012 C 
HETATM    2  C2  UNL     1      24.192   2.772  50.587  1.00  0.00     0.006 C 
HETATM    3  C3  UNL     1      24.856   3.621  49.432  1.00  0.00     0.010 C 
HETATM    4  C4  UNL     1      26.045   4.274  50.033  1.00  0.00     0.037 C 
HETATM    5  C5  UNL     1      26.384   5.533  49.257  1.00  0.00    -0.051 C 
HETATM    6  C6  UNL     1      27.494   5.599  48.475  1.00  0.00    -0.009 C 
HETATM    7  C7  UNL     1      27.725   6.869  47.771  1.00  0.00     0.076 C 
HETATM    8  C8  UNL     1      27.590   7.931  48.924  1.00  0.00     0.043 C 
HETATM    9  C9  UNL     1      26.506   7.887  49.679  1.00  0.00     0.037 C 
HETATM   10  C10 UNL     1      25.565   6.771  49.271  1.00  0.00     0.177 C 
HETATM   11  O1  UNL     1      24.418   6.924  49.875  1.00  0.00    -0.353 OA
HETATM   12  C11 UNL     1      24.064   6.321  51.068  1.00  0.00     0.339 C 
HETATM   13  O2  UNL     1      24.113   5.032  50.902  1.00  0.00    -0.367 OA
HETATM   14  C12 UNL     1      23.937   3.952  51.596  1.00  0.00     0.174 C 
HETATM   15  N1  UNL     1      28.804   8.600  48.713  1.00  0.00    -0.245 NA
HETATM   16  C13 UNL     1      29.948   8.450  49.227  1.00  0.00     0.250 C 
HETATM   17  N2  UNL     1      31.126   9.253  48.854  1.00  0.00    -0.174 NA
HETATM   18  N3  UNL     1      31.509   9.002  47.563  1.00  0.00    -0.096 NA
HETATM   19  C14 UNL     1      30.570   7.992  46.994  1.00  0.00     0.097 A 
HETATM   20  C15 UNL     1      30.046   9.095  46.411  1.00  0.00    -0.012 A 
HETATM   21  C16 UNL     1      28.995   8.244  46.657  1.00  0.00     0.057 A 
HETATM   22  C17 UNL     1      29.110   7.011  47.243  1.00  0.00     0.031 A 
HETATM   23  C18 UNL     1      29.868   6.045  47.785  1.00  0.00     0.009 A 
HETATM   24  C19 UNL     1      30.992   6.848  47.580  1.00  0.00     0.038 A 
HETATM   25 CL1  UNL     1      32.606   6.347  48.029  1.00  0.00    -0.087 Cl
ENDROOT
TORSDOF 0
ENDMDL
MODEL 7
REMARK VINA RESULT:      -8.4      3.335      4.175
REMARK  0 active torsions:
REMARK  status: ('A' for Active; 'I' for Inactive)
ROOT
HETATM    1  C1  UNL     1      16.277   1.722  51.400  1.00  0.00     0.012 C 
HETATM    2  C2  UNL     1      17.435   1.042  50.757  1.00  0.00     0.006 C 
HETATM    3  C3  UNL     1      18.655   1.741  51.478  1.00  0.00     0.010 C 
HETATM    4  C4  UNL     1      19.870   1.020  51.022  1.00  0.00     0.037 C 
HETATM    5  C5  UNL     1      20.970   1.167  52.056  1.00  0.00    -0.051 C 
HETATM    6  C6  UNL     1      22.067   1.932  51.812  1.00  0.00    -0.009 C 
HETATM    7  C7  UNL     1      23.071   1.999  52.885  1.00  0.00     0.076 C 
HETATM    8  C8  UNL     1      23.309   0.483  53.229  1.00  0.00     0.043 C 
HETATM    9  C9  UNL     1      22.250  -0.265  53.486  1.00  0.00     0.037 C 
HETATM   10  C10 UNL     1      20.956   0.517  53.392  1.00  0.00     0.177 C 
HETATM   11  O1  UNL     1      19.979  -0.192  53.888  1.00  0.00    -0.353 OA
HETATM   12  C11 UNL     1      19.139  -1.008  53.153  1.00  0.00     0.339 C 
HETATM   13  O2  UNL     1      18.521  -0.270  52.277  1.00  0.00    -0.367 OA
HETATM   14  C12 UNL     1      17.666  -0.411  51.314  1.00  0.00     0.174 C 
HETATM   15  N1  UNL     1      24.707   0.478  53.114  1.00  0.00    -0.245 NA
HETATM   16  C13 UNL     1      25.470   0.194  52.149  1.00  0.00     0.250 C 
HETATM   17  N2  UNL     1      26.941   0.268  52.218  1.00  0.00    -0.174 NA
HETATM   18  N3  UNL     1      27.366   1.561  52.370  1.00  0.00    -0.096 NA
HETATM   19  C14 UNL     1      26.161   2.438  52.418  1.00  0.00     0.097 A 
HETATM   20  C15 UNL     1      26.430   2.405  53.744  1.00  0.00    -0.012 A 
HETATM   21  C16 UNL     1      25.063   2.478  53.623  1.00  0.00     0.057 A 
HETATM   22  C17 UNL     1      24.386   2.530  52.433  1.00  0.00     0.031 A 
HETATM   23  C18 UNL     1      24.390   2.557  51.091  1.00  0.00     0.009 A 
HETATM   24  C19 UNL     1      25.784   2.477  51.119  1.00  0.00     0.038 A 
HETATM   25 CL1  UNL     1      26.760   2.454  49.668  1.00  0.00    -0.087 Cl
ENDROOT
TORSDOF 0
ENDMDL
MODEL 8
REMARK VINA RESULT:      -8.4      8.648      9.409
REMARK  0 active torsions:
REMARK  status: ('A' for Active; 'I' for Inactive)
ROOT
HETATM    1  C1  UNL     1      26.111   9.451  47.948  1.00  0.00     0.012 C 
HETATM    2  C2  UNL     1      26.886   8.489  48.779  1.00  0.00     0.006 C 
HETATM    3  C3  UNL     1      27.953   7.958  47.742  1.00  0.00     0.010 C 
HETATM    4  C4  UNL     1      28.887   7.102  48.515  1.00  0.00     0.037 C 
HETATM    5  C5  UNL     1      30.231   7.049  47.813  1.00  0.00    -0.051 C 
HETATM    6  C6  UNL     1      30.658   5.915  47.196  1.00  0.00    -0.009 C 
HETATM    7  C7  UNL     1      31.978   5.977  46.552  1.00  0.00     0.076 C 
HETATM    8  C8  UNL     1      32.890   6.566  47.689  1.00  0.00     0.043 C 
HETATM    9  C9  UNL     1      32.493   7.679  48.284  1.00  0.00     0.037 C 
HETATM   10  C10 UNL     1      31.178   8.189  47.730  1.00  0.00     0.177 C 
HETATM   11  O1  UNL     1      30.959   9.399  48.169  1.00  0.00    -0.353 OA
HETATM   12  C11 UNL     1      30.215   9.713  49.291  1.00  0.00     0.339 C 
HETATM   13  O2  UNL     1      29.006   9.267  49.114  1.00  0.00    -0.367 OA
HETATM   14  C12 UNL     1      27.884   9.208  49.760  1.00  0.00     0.174 C 
HETATM   15  N1  UNL     1      33.891   5.585  47.662  1.00  0.00    -0.245 NA
HETATM   16  C13 UNL     1      34.048   4.525  48.330  1.00  0.00     0.250 C 
HETATM   17  N2  UNL     1      35.176   3.596  48.138  1.00  0.00    -0.174 NA
HETATM   18  N3  UNL     1      35.119   2.991  46.911  1.00  0.00    -0.096 NA
HETATM   19  C14 UNL     1      33.914   3.510  46.200  1.00  0.00     0.097 A 
HETATM   20  C15 UNL     1      34.850   4.254  45.566  1.00  0.00    -0.012 A 
HETATM   21  C16 UNL     1      33.720   5.032  45.648  1.00  0.00     0.057 A 
HETATM   22  C17 UNL     1      32.542   4.638  46.225  1.00  0.00     0.031 A 
HETATM   23  C18 UNL     1      31.807   3.708  46.854  1.00  0.00     0.009 A 
HETATM   24  C19 UNL     1      32.909   2.852  46.822  1.00  0.00     0.038 A 
HETATM   25 CL1  UNL     1      32.871   1.234  47.486  1.00  0.00    -0.087 Cl
ENDROOT
TORSDOF 0
ENDMDL
MODEL 9
REMARK VINA RESULT:      -8.4      7.730      8.344
REMARK  0 active torsions:
REMARK  status: ('A' for Active; 'I' for Inactive)
ROOT
HETATM    1  C1  UNL     1      23.790   7.432  48.218  1.00  0.00     0.012 C 
HETATM    2  C2  UNL     1      24.828   6.764  49.051  1.00  0.00     0.006 C 
HETATM    3  C3  UNL     1      26.088   6.823  48.100  1.00  0.00     0.010 C 
HETATM    4  C4  UNL     1      27.232   6.322  48.902  1.00  0.00     0.037 C 
HETATM    5  C5  UNL     1      28.528   6.885  48.350  1.00  0.00    -0.051 C 
HETATM    6  C6  UNL     1      29.419   6.092  47.697  1.00  0.00    -0.009 C 
HETATM    7  C7  UNL     1      30.642   6.745  47.209  1.00  0.00     0.076 C 
HETATM    8  C8  UNL     1      31.156   7.511  48.483  1.00  0.00     0.043 C 
HETATM    9  C9  UNL     1      30.304   8.299  49.115  1.00  0.00     0.037 C 
HETATM   10  C10 UNL     1      28.936   8.309  48.461  1.00  0.00     0.177 C 
HETATM   11  O1  UNL     1      28.218   9.274  48.967  1.00  0.00    -0.353 OA
HETATM   12  C11 UNL     1      27.334   9.137  50.021  1.00  0.00     0.339 C 
HETATM   13  O2  UNL     1      26.423   8.273  49.677  1.00  0.00    -0.367 OA
HETATM   14  C12 UNL     1      25.379   7.701  50.189  1.00  0.00     0.174 C 
HETATM   15  N1  UNL     1      32.468   7.015  48.489  1.00  0.00    -0.245 NA
HETATM   16  C13 UNL     1      32.993   6.034  49.085  1.00  0.00     0.250 C 
HETATM   17  N2  UNL     1      34.411   5.655  48.947  1.00  0.00    -0.174 NA
HETATM   18  N3  UNL     1      34.689   5.223  47.677  1.00  0.00    -0.096 NA
HETATM   19  C14 UNL     1      33.430   5.302  46.881  1.00  0.00     0.097 A 
HETATM   20  C15 UNL     1      34.027   6.424  46.414  1.00  0.00    -0.012 A 
HETATM   21  C16 UNL     1      32.675   6.677  46.432  1.00  0.00     0.057 A 
HETATM   22  C17 UNL     1      31.720   5.786  46.843  1.00  0.00     0.031 A 
HETATM   23  C18 UNL     1      31.382   4.574  47.312  1.00  0.00     0.009 A 
HETATM   24  C19 UNL     1      32.736   4.233  47.335  1.00  0.00     0.038 A 
HETATM   25 CL1  UNL     1      33.309   2.668  47.863  1.00  0.00    -0.087 Cl
ENDROOT
TORSDOF 0
ENDMDL
