MODEL 1
REMARK VINA RESULT:      -9.6      0.000      0.000
REMARK  3 active torsions:
REMARK  status: ('A' for Active; 'I' for Inactive)
REMARK    1  A    between atoms: O1_2  and  C2_3 
REMARK    2  A    between atoms: C6_7  and  C7_8 
REMARK    3  A    between atoms: C14_17  and  C15_18 
ROOT
HETATM    1  C7  UNL     1      25.450   2.448  51.473  1.00  0.00    -0.024 A 
HETATM    2  C8  UNL     1      26.414   2.421  50.485  1.00  0.00     0.013 A 
HETATM    3  C9  UNL     1      26.512   3.440  49.553  1.00  0.00     0.011 A 
HETATM    4  C10 UNL     1      25.609   4.502  49.634  1.00  0.00    -0.012 A 
HETATM    5  C11 UNL     1      24.640   4.538  50.620  1.00  0.00     0.043 A 
HETATM    6  C12 UNL     1      24.552   3.517  51.543  1.00  0.00     0.042 A 
HETATM    7  N1  UNL     1      23.920   5.753  50.384  1.00  0.00    -0.326 N 
HETATM    8  C13 UNL     1      24.453   6.446  49.263  1.00  0.00     0.236 A 
HETATM    9  O2  UNL     1      24.107   7.528  48.742  1.00  0.00    -0.272 OA
HETATM   10  C14 UNL     1      25.586   5.649  48.725  1.00  0.00     0.162 A 
HETATM   11  H10 UNL     1      23.111   6.102  50.948  1.00  0.00     0.169 HD
ENDROOT
BRANCH  10  12
HETATM   12  C15 UNL     1      26.841   6.398  48.616  1.00  0.00     0.019 C 
HETATM   13  C16 UNL     1      27.944   5.732  48.317  1.00  0.00    -0.001 C 
HETATM   14  C17 UNL     1      29.372   5.994  48.102  1.00  0.00     0.033 C 
HETATM   15  C18 UNL     1      29.745   7.406  47.841  1.00  0.00    -0.013 C 
HETATM   16  C19 UNL     1      30.793   7.413  46.719  1.00  0.00     0.010 C 
HETATM   17  C20 UNL     1      28.622   8.277  47.321  1.00  0.00     0.029 C 
HETATM   18  C21 UNL     1      27.799   8.816  48.446  1.00  0.00     0.077 C 
HETATM   19  C22 UNL     1      28.648   9.291  49.591  1.00  0.00     0.032 C 
HETATM   20  N2  UNL     1      26.837   7.803  48.833  1.00  0.00    -0.388 N 
HETATM   21  H25 UNL     1      25.984   8.150  49.366  1.00  0.00     0.159 HD
ENDBRANCH  10  12
BRANCH   1  22
HETATM   22  C6  UNL     1      25.331   1.383  52.463  1.00  0.00    -0.023 A 
HETATM   23  C5  UNL     1      24.090   0.767  52.650  1.00  0.00     0.012 A 
HETATM   24  C4  UNL     1      24.019  -0.235  53.596  1.00  0.00     0.004 A 
HETATM   25  C3  UNL     1      25.121  -0.629  54.339  1.00  0.00     0.037 A 
HETATM   26  C2  UNL     1      26.332  -0.001  54.132  1.00  0.00     0.069 A 
HETATM   27  C23 UNL     1      26.430   0.996  53.198  1.00  0.00     0.049 A 
BRANCH  26  28
HETATM   28  O1  UNL     1      27.371  -0.487  54.942  1.00  0.00    -0.356 OA
HETATM   29  C1  UNL     1      28.665   0.081  54.905  1.00  0.00     0.210 C 
ENDBRANCH  26  28
ENDBRANCH   1  22
TORSDOF 3
ENDMDL
MODEL 2
REMARK VINA RESULT:      -9.4      1.077      1.325
REMARK  3 active torsions:
REMARK  status: ('A' for Active; 'I' for Inactive)
REMARK    1  A    between atoms: O1_2  and  C2_3 
REMARK    2  A    between atoms: C6_7  and  C7_8 
REMARK    3  A    between atoms: C14_17  and  C15_18 
ROOT
HETATM    1  C7  UNL     1      24.730   2.528  52.127  1.00  0.00    -0.024 A 
HETATM    2  C8  UNL     1      25.368   2.581  50.905  1.00  0.00     0.013 A 
HETATM    3  C9  UNL     1      25.273   3.698  50.093  1.00  0.00     0.011 A 
HETATM    4  C10 UNL     1      24.510   4.779  50.542  1.00  0.00    -0.012 A 
HETATM    5  C11 UNL     1      23.867   4.737  51.765  1.00  0.00     0.043 A 
HETATM    6  C12 UNL     1      23.970   3.617  52.564  1.00  0.00     0.042 A 
HETATM    7  N1  UNL     1      23.201   5.999  51.875  1.00  0.00    -0.326 N 
HETATM    8  C13 UNL     1      23.442   6.798  50.724  1.00  0.00     0.236 A 
HETATM    9  O2  UNL     1      23.043   7.948  50.440  1.00  0.00    -0.272 OA
HETATM   10  C14 UNL     1      24.313   6.027  49.801  1.00  0.00     0.162 A 
HETATM   11  H10 UNL     1      22.613   6.312  52.682  1.00  0.00     0.169 HD
ENDROOT
BRANCH  10  12
HETATM   12  C15 UNL     1      25.537   6.730  49.410  1.00  0.00     0.019 C 
HETATM   13  C16 UNL     1      26.461   6.059  48.742  1.00  0.00    -0.001 C 
HETATM   14  C17 UNL     1      27.785   6.286  48.151  1.00  0.00     0.033 C 
HETATM   15  C18 UNL     1      28.169   7.702  47.933  1.00  0.00    -0.013 C 
HETATM   16  C19 UNL     1      28.856   7.795  46.564  1.00  0.00     0.010 C 
HETATM   17  C20 UNL     1      27.011   8.672  47.847  1.00  0.00     0.029 C 
HETATM   18  C21 UNL     1      26.580   9.111  49.208  1.00  0.00     0.077 C 
HETATM   19  C22 UNL     1      27.749   9.417  50.101  1.00  0.00     0.032 C 
HETATM   20  N2  UNL     1      25.695   8.101  49.755  1.00  0.00    -0.388 N 
HETATM   21  H25 UNL     1      25.054   8.419  50.542  1.00  0.00     0.159 HD
ENDBRANCH  10  12
BRANCH   1  22
HETATM   22  C6  UNL     1      24.820   1.359  52.994  1.00  0.00    -0.023 A 
HETATM   23  C5  UNL     1      23.687   0.558  53.172  1.00  0.00     0.012 A 
HETATM   24  C4  UNL     1      23.814  -0.539  54.000  1.00  0.00     0.004 A 
HETATM   25  C3  UNL     1      25.004  -0.850  54.638  1.00  0.00     0.037 A 
HETATM   26  C2  UNL     1      26.104  -0.039  54.444  1.00  0.00     0.069 A 
HETATM   27  C23 UNL     1      26.006   1.055  53.625  1.00  0.00     0.049 A 
BRANCH  26  28
HETATM   28  O1  UNL     1      27.248  -0.457  55.141  1.00  0.00    -0.356 OA
HETATM   29  C1  UNL     1      28.519   0.109  54.884  1.00  0.00     0.210 C 
ENDBRANCH  26  28
ENDBRANCH   1  22
TORSDOF 3
ENDMDL
MODEL 3
REMARK VINA RESULT:      -9.1      3.880      6.694
REMARK  3 active torsions:
REMARK  status: ('A' for Active; 'I' for Inactive)
REMARK    1  A    between atoms: O1_2  and  C2_3 
REMARK    2  A    between atoms: C6_7  and  C7_8 
REMARK    3  A    between atoms: C14_17  and  C15_18 
ROOT
HETATM    1  C7  UNL     1      26.157   2.208  52.462  1.00  0.00    -0.024 A 
HETATM    2  C8  UNL     1      25.036   2.499  53.213  1.00  0.00     0.013 A 
HETATM    3  C9  UNL     1      23.939   3.127  52.649  1.00  0.00     0.011 A 
HETATM    4  C10 UNL     1      23.991   3.463  51.294  1.00  0.00    -0.012 A 
HETATM    5  C11 UNL     1      25.109   3.175  50.533  1.00  0.00     0.043 A 
HETATM    6  C12 UNL     1      26.196   2.549  51.107  1.00  0.00     0.042 A 
HETATM    7  N1  UNL     1      24.796   3.659  49.223  1.00  0.00    -0.326 N 
HETATM    8  C13 UNL     1      23.496   4.234  49.194  1.00  0.00     0.236 A 
HETATM    9  O2  UNL     1      22.865   4.760  48.252  1.00  0.00    -0.272 OA
HETATM   10  C14 UNL     1      22.915   4.127  50.557  1.00  0.00     0.162 A 
HETATM   11  H10 UNL     1      25.423   3.606  48.386  1.00  0.00     0.169 HD
ENDROOT
BRANCH  10  12
HETATM   12  C15 UNL     1      21.612   3.458  50.597  1.00  0.00     0.019 C 
HETATM   13  C16 UNL     1      21.544   2.193  50.216  1.00  0.00    -0.001 C 
HETATM   14  C17 UNL     1      20.542   1.131  50.078  1.00  0.00     0.033 C 
HETATM   15  C18 UNL     1      19.268   1.334  50.812  1.00  0.00    -0.013 C 
HETATM   16  C19 UNL     1      18.870  -0.009  51.440  1.00  0.00     0.010 C 
HETATM   17  C20 UNL     1      19.351   2.293  51.980  1.00  0.00     0.029 C 
HETATM   18  C21 UNL     1      19.188   3.706  51.523  1.00  0.00     0.077 C 
HETATM   19  C22 UNL     1      18.087   3.851  50.511  1.00  0.00     0.032 C 
HETATM   20  N2  UNL     1      20.470   4.181  51.041  1.00  0.00    -0.388 N 
HETATM   21  H25 UNL     1      20.594   5.237  51.007  1.00  0.00     0.159 HD
ENDBRANCH  10  12
BRANCH   1  22
HETATM   22  C6  UNL     1      27.322   1.548  53.040  1.00  0.00    -0.023 A 
HETATM   23  C5  UNL     1      28.312   2.327  53.646  1.00  0.00     0.012 A 
HETATM   24  C4  UNL     1      29.398   1.664  54.181  1.00  0.00     0.004 A 
HETATM   25  C3  UNL     1      29.520   0.285  54.128  1.00  0.00     0.037 A 
HETATM   26  C2  UNL     1      28.527  -0.457  53.522  1.00  0.00     0.069 A 
HETATM   27  C23 UNL     1      27.438   0.176  52.984  1.00  0.00     0.049 A 
BRANCH  26  28
HETATM   28  O1  UNL     1      28.764  -1.840  53.532  1.00  0.00    -0.356 OA
HETATM   29  C1  UNL     1      27.942  -2.737  52.810  1.00  0.00     0.210 C 
ENDBRANCH  26  28
ENDBRANCH   1  22
TORSDOF 3
ENDMDL
MODEL 4
REMARK VINA RESULT:      -9.1      5.927      9.040
REMARK  3 active torsions:
REMARK  status: ('A' for Active; 'I' for Inactive)
REMARK    1  A    between atoms: O1_2  and  C2_3 
REMARK    2  A    between atoms: C6_7  and  C7_8 
REMARK    3  A    between atoms: C14_17  and  C15_18 
ROOT
HETATM    1  C7  UNL     1      22.964   0.587  52.697  1.00  0.00    -0.024 A 
HETATM    2  C8  UNL     1      22.538   0.747  51.394  1.00  0.00     0.013 A 
HETATM    3  C9  UNL     1      21.228   0.484  51.031  1.00  0.00     0.011 A 
HETATM    4  C10 UNL     1      20.341   0.049  52.020  1.00  0.00    -0.012 A 
HETATM    5  C11 UNL     1      20.758  -0.114  53.327  1.00  0.00     0.043 A 
HETATM    6  C12 UNL     1      22.066   0.152  53.676  1.00  0.00     0.042 A 
HETATM    7  N1  UNL     1      19.595  -0.562  54.031  1.00  0.00    -0.326 N 
HETATM    8  C13 UNL     1      18.483  -0.667  53.153  1.00  0.00     0.236 A 
HETATM    9  O2  UNL     1      17.305  -1.020  53.377  1.00  0.00    -0.272 OA
HETATM   10  C14 UNL     1      18.930  -0.269  51.793  1.00  0.00     0.162 A 
HETATM   11  H10 UNL     1      19.548  -0.786  55.053  1.00  0.00     0.169 HD
ENDROOT
BRANCH  10  12
HETATM   12  C15 UNL     1      18.128   0.799  51.192  1.00  0.00     0.019 C 
HETATM   13  C16 UNL     1      17.366   0.503  50.153  1.00  0.00    -0.001 C 
HETATM   14  C17 UNL     1      16.427   1.167  49.242  1.00  0.00     0.033 C 
HETATM   15  C18 UNL     1      15.889   2.473  49.697  1.00  0.00    -0.013 C 
HETATM   16  C19 UNL     1      14.393   2.507  49.353  1.00  0.00     0.010 C 
HETATM   17  C20 UNL     1      15.943   2.699  51.191  1.00  0.00     0.029 C 
HETATM   18  C21 UNL     1      17.279   3.230  51.603  1.00  0.00     0.077 C 
HETATM   19  C22 UNL     1      17.780   4.291  50.665  1.00  0.00     0.032 C 
HETATM   20  N2  UNL     1      18.192   2.112  51.737  1.00  0.00    -0.388 N 
HETATM   21  H25 UNL     1      19.053   2.283  52.337  1.00  0.00     0.159 HD
ENDBRANCH  10  12
BRANCH   1  22
HETATM   22  C6  UNL     1      24.340   0.859  53.097  1.00  0.00    -0.023 A 
HETATM   23  C5  UNL     1      24.744   2.187  53.273  1.00  0.00     0.012 A 
HETATM   24  C4  UNL     1      26.054   2.402  53.652  1.00  0.00     0.004 A 
HETATM   25  C3  UNL     1      26.946   1.360  53.853  1.00  0.00     0.037 A 
HETATM   26  C2  UNL     1      26.517   0.062  53.670  1.00  0.00     0.069 A 
HETATM   27  C23 UNL     1      25.222  -0.180  53.296  1.00  0.00     0.049 A 
BRANCH  26  28
HETATM   28  O1  UNL     1      27.510  -0.903  53.904  1.00  0.00    -0.356 OA
HETATM   29  C1  UNL     1      28.867  -0.543  54.066  1.00  0.00     0.210 C 
ENDBRANCH  26  28
ENDBRANCH   1  22
TORSDOF 3
ENDMDL
MODEL 5
REMARK VINA RESULT:      -9.1      1.579      2.228
REMARK  3 active torsions:
REMARK  status: ('A' for Active; 'I' for Inactive)
REMARK    1  A    between atoms: O1_2  and  C2_3 
REMARK    2  A    between atoms: C6_7  and  C7_8 
REMARK    3  A    between atoms: C14_17  and  C15_18 
ROOT
HETATM    1  C7  UNL     1      24.565   2.810  52.019  1.00  0.00    -0.024 A 
HETATM    2  C8  UNL     1      25.085   2.935  50.747  1.00  0.00     0.013 A 
HETATM    3  C9  UNL     1      24.752   4.008  49.939  1.00  0.00     0.011 A 
HETATM    4  C10 UNL     1      23.872   4.970  50.443  1.00  0.00    -0.012 A 
HETATM    5  C11 UNL     1      23.346   4.854  51.716  1.00  0.00     0.043 A 
HETATM    6  C12 UNL     1      23.686   3.779  52.511  1.00  0.00     0.042 A 
HETATM    7  N1  UNL     1      22.506   6.002  51.873  1.00  0.00    -0.326 N 
HETATM    8  C13 UNL     1      22.526   6.806  50.701  1.00  0.00     0.236 A 
HETATM    9  O2  UNL     1      21.934   7.876  50.443  1.00  0.00    -0.272 OA
HETATM   10  C14 UNL     1      23.427   6.158  49.713  1.00  0.00     0.162 A 
HETATM   11  H10 UNL     1      21.946   6.237  52.725  1.00  0.00     0.169 HD
ENDROOT
BRANCH  10  12
HETATM   12  C15 UNL     1      24.492   7.032  49.215  1.00  0.00     0.019 C 
HETATM   13  C16 UNL     1      25.391   7.478  50.076  1.00  0.00    -0.001 C 
HETATM   14  C17 UNL     1      26.587   8.328  50.088  1.00  0.00     0.033 C 
HETATM   15  C18 UNL     1      27.222   8.581  48.770  1.00  0.00    -0.013 C 
HETATM   16  C19 UNL     1      28.743   8.485  48.958  1.00  0.00     0.010 C 
HETATM   17  C20 UNL     1      26.904   7.558  47.702  1.00  0.00     0.029 C 
HETATM   18  C21 UNL     1      25.614   7.881  47.020  1.00  0.00     0.077 C 
HETATM   19  C22 UNL     1      25.486   9.347  46.717  1.00  0.00     0.032 C 
HETATM   20  N2  UNL     1      24.527   7.372  47.834  1.00  0.00    -0.388 N 
HETATM   21  H25 UNL     1      23.601   7.222  47.334  1.00  0.00     0.159 HD
ENDBRANCH  10  12
BRANCH   1  22
HETATM   22  C6  UNL     1      24.904   1.685  52.884  1.00  0.00    -0.023 A 
HETATM   23  C5  UNL     1      24.015   0.609  52.976  1.00  0.00     0.012 A 
HETATM   24  C4  UNL     1      24.373  -0.435  53.804  1.00  0.00     0.004 A 
HETATM   25  C3  UNL     1      25.558  -0.436  54.523  1.00  0.00     0.037 A 
HETATM   26  C2  UNL     1      26.414   0.641  54.411  1.00  0.00     0.069 A 
HETATM   27  C23 UNL     1      26.083   1.690  53.595  1.00  0.00     0.049 A 
BRANCH  26  28
HETATM   28  O1  UNL     1      27.579   0.524  55.185  1.00  0.00    -0.356 OA
HETATM   29  C1  UNL     1      28.797   0.076  54.625  1.00  0.00     0.210 C 
ENDBRANCH  26  28
ENDBRANCH   1  22
TORSDOF 3
ENDMDL
MODEL 6
REMARK VINA RESULT:      -9.0      4.076      8.725
REMARK  3 active torsions:
REMARK  status: ('A' for Active; 'I' for Inactive)
REMARK    1  A    between atoms: O1_2  and  C2_3 
REMARK    2  A    between atoms: C6_7  and  C7_8 
REMARK    3  A    between atoms: C14_17  and  C15_18 
ROOT
HETATM    1  C7  UNL     1      24.788   3.760  49.776  1.00  0.00    -0.024 A 
HETATM    2  C8  UNL     1      23.787   3.209  49.002  1.00  0.00     0.013 A 
HETATM    3  C9  UNL     1      22.886   2.302  49.533  1.00  0.00     0.011 A 
HETATM    4  C10 UNL     1      23.015   1.953  50.880  1.00  0.00    -0.012 A 
HETATM    5  C11 UNL     1      24.014   2.499  51.664  1.00  0.00     0.043 A 
HETATM    6  C12 UNL     1      24.905   3.402  51.123  1.00  0.00     0.042 A 
HETATM    7  N1  UNL     1      23.828   1.913  52.957  1.00  0.00    -0.326 N 
HETATM    8  C13 UNL     1      22.723   1.019  52.953  1.00  0.00     0.236 A 
HETATM    9  O2  UNL     1      22.243   0.321  53.871  1.00  0.00    -0.272 OA
HETATM   10  C14 UNL     1      22.143   1.011  51.585  1.00  0.00     0.162 A 
HETATM   11  H10 UNL     1      24.414   2.103  53.804  1.00  0.00     0.169 HD
ENDROOT
BRANCH  10  12
HETATM   12  C15 UNL     1      20.712   1.318  51.543  1.00  0.00     0.019 C 
HETATM   13  C16 UNL     1      20.328   2.557  51.804  1.00  0.00    -0.001 C 
HETATM   14  C17 UNL     1      19.089   3.339  51.888  1.00  0.00     0.033 C 
HETATM   15  C18 UNL     1      17.896   2.743  51.238  1.00  0.00    -0.013 C 
HETATM   16  C19 UNL     1      17.152   3.869  50.505  1.00  0.00     0.010 C 
HETATM   17  C20 UNL     1      18.197   1.722  50.164  1.00  0.00     0.029 C 
HETATM   18  C21 UNL     1      18.413   0.368  50.760  1.00  0.00     0.077 C 
HETATM   19  C22 UNL     1      17.409   0.055  51.833  1.00  0.00     0.032 C 
HETATM   20  N2  UNL     1      19.784   0.288  51.224  1.00  0.00    -0.388 N 
HETATM   21  H25 UNL     1      20.177  -0.693  51.352  1.00  0.00     0.159 HD
ENDBRANCH  10  12
BRANCH   1  22
HETATM   22  C6  UNL     1      25.745   4.717  49.233  1.00  0.00    -0.023 A 
HETATM   23  C5  UNL     1      25.302   5.998  48.890  1.00  0.00     0.012 A 
HETATM   24  C4  UNL     1      26.238   6.874  48.379  1.00  0.00     0.004 A 
HETATM   25  C3  UNL     1      27.566   6.517  48.206  1.00  0.00     0.037 A 
HETATM   26  C2  UNL     1      27.973   5.245  48.552  1.00  0.00     0.069 A 
HETATM   27  C23 UNL     1      27.064   4.356  49.063  1.00  0.00     0.049 A 
BRANCH  26  28
HETATM   28  O1  UNL     1      29.337   5.004  48.331  1.00  0.00    -0.356 OA
HETATM   29  C1  UNL     1      30.230   6.050  48.004  1.00  0.00     0.210 C 
ENDBRANCH  26  28
ENDBRANCH   1  22
TORSDOF 3
ENDMDL
MODEL 7
REMARK VINA RESULT:      -8.8      7.132     10.318
REMARK  3 active torsions:
REMARK  status: ('A' for Active; 'I' for Inactive)
REMARK    1  A    between atoms: O1_2  and  C2_3 
REMARK    2  A    between atoms: C6_7  and  C7_8 
REMARK    3  A    between atoms: C14_17  and  C15_18 
ROOT
HETATM    1  C7  UNL     1      20.640  -0.404  53.073  1.00  0.00    -0.024 A 
HETATM    2  C8  UNL     1      20.451   0.420  51.982  1.00  0.00     0.013 A 
HETATM    3  C9  UNL     1      19.199   0.580  51.414  1.00  0.00     0.011 A 
HETATM    4  C10 UNL     1      18.123  -0.114  51.973  1.00  0.00    -0.012 A 
HETATM    5  C11 UNL     1      18.302  -0.941  53.066  1.00  0.00     0.043 A 
HETATM    6  C12 UNL     1      19.555  -1.093  53.623  1.00  0.00     0.042 A 
HETATM    7  N1  UNL     1      17.001  -1.467  53.347  1.00  0.00    -0.326 N 
HETATM    8  C13 UNL     1      16.042  -0.960  52.428  1.00  0.00     0.236 A 
HETATM    9  O2  UNL     1      14.815  -1.175  52.338  1.00  0.00    -0.272 OA
HETATM   10  C14 UNL     1      16.744  -0.049  51.487  1.00  0.00     0.162 A 
HETATM   11  H10 UNL     1      16.765  -2.135  54.118  1.00  0.00     0.169 HD
ENDROOT
BRANCH  10  12
HETATM   12  C15 UNL     1      16.161   1.294  51.413  1.00  0.00     0.019 C 
HETATM   13  C16 UNL     1      16.338   1.994  50.304  1.00  0.00    -0.001 C 
HETATM   14  C17 UNL     1      15.981   3.306  49.755  1.00  0.00     0.033 C 
HETATM   15  C18 UNL     1      14.872   4.020  50.435  1.00  0.00    -0.013 C 
HETATM   16  C19 UNL     1      13.987   4.650  49.350  1.00  0.00     0.010 C 
HETATM   17  C20 UNL     1      13.935   3.135  51.227  1.00  0.00     0.029 C 
HETATM   18  C21 UNL     1      14.470   2.883  52.599  1.00  0.00     0.077 C 
HETATM   19  C22 UNL     1      15.033   4.128  53.224  1.00  0.00     0.032 C 
HETATM   20  N2  UNL     1      15.430   1.800  52.523  1.00  0.00    -0.388 N 
HETATM   21  H25 UNL     1      15.633   1.291  53.435  1.00  0.00     0.159 HD
ENDBRANCH  10  12
BRANCH   1  22
HETATM   22  C6  UNL     1      21.952  -0.585  53.684  1.00  0.00    -0.023 A 
HETATM   23  C5  UNL     1      22.042  -1.251  54.910  1.00  0.00     0.012 A 
HETATM   24  C4  UNL     1      23.302  -1.402  55.455  1.00  0.00     0.004 A 
HETATM   25  C3  UNL     1      24.440  -0.920  54.828  1.00  0.00     0.037 A 
HETATM   26  C2  UNL     1      24.318  -0.266  53.619  1.00  0.00     0.069 A 
HETATM   27  C23 UNL     1      23.080  -0.104  53.056  1.00  0.00     0.049 A 
BRANCH  26  28
HETATM   28  O1  UNL     1      25.539   0.174  53.085  1.00  0.00    -0.356 OA
HETATM   29  C1  UNL     1      26.371   1.076  53.787  1.00  0.00     0.210 C 
ENDBRANCH  26  28
ENDBRANCH   1  22
TORSDOF 3
ENDMDL
MODEL 8
REMARK VINA RESULT:      -8.8      1.528      2.322
REMARK  3 active torsions:
REMARK  status: ('A' for Active; 'I' for Inactive)
REMARK    1  A    between atoms: O1_2  and  C2_3 
REMARK    2  A    between atoms: C6_7  and  C7_8 
REMARK    3  A    between atoms: C14_17  and  C15_18 
ROOT
HETATM    1  C7  UNL     1      26.024   3.949  50.281  1.00  0.00    -0.024 A 
HETATM    2  C8  UNL     1      26.989   3.771  49.310  1.00  0.00     0.013 A 
HETATM    3  C9  UNL     1      27.381   4.815  48.490  1.00  0.00     0.011 A 
HETATM    4  C10 UNL     1      26.775   6.061  48.667  1.00  0.00    -0.012 A 
HETATM    5  C11 UNL     1      25.808   6.250  49.638  1.00  0.00     0.043 A 
HETATM    6  C12 UNL     1      25.426   5.202  50.449  1.00  0.00     0.042 A 
HETATM    7  N1  UNL     1      25.431   7.626  49.519  1.00  0.00    -0.326 N 
HETATM    8  C13 UNL     1      26.167   8.263  48.483  1.00  0.00     0.236 A 
HETATM    9  O2  UNL     1      26.130   9.443  48.072  1.00  0.00    -0.272 OA
HETATM   10  C14 UNL     1      27.081   7.258  47.882  1.00  0.00     0.162 A 
HETATM   11  H10 UNL     1      24.715   8.116  50.104  1.00  0.00     0.169 HD
ENDROOT
BRANCH  10  12
HETATM   12  C15 UNL     1      28.488   7.665  47.869  1.00  0.00     0.019 C 
HETATM   13  C16 UNL     1      29.160   7.567  46.733  1.00  0.00    -0.001 C 
HETATM   14  C17 UNL     1      30.508   7.829  46.218  1.00  0.00     0.033 C 
HETATM   15  C18 UNL     1      31.362   8.720  47.042  1.00  0.00    -0.013 C 
HETATM   16  C19 UNL     1      32.104   9.668  46.090  1.00  0.00     0.010 C 
HETATM   17  C20 UNL     1      30.607   9.635  47.982  1.00  0.00     0.029 C 
HETATM   18  C21 UNL     1      30.286   8.937  49.264  1.00  0.00     0.077 C 
HETATM   19  C22 UNL     1      31.446   8.129  49.773  1.00  0.00     0.032 C 
HETATM   20  N2  UNL     1      29.086   8.148  49.066  1.00  0.00    -0.388 N 
HETATM   21  H25 UNL     1      28.555   7.879  49.947  1.00  0.00     0.159 HD
ENDBRANCH  10  12
BRANCH   1  22
HETATM   22  C6  UNL     1      25.599   2.861  51.154  1.00  0.00    -0.023 A 
HETATM   23  C5  UNL     1      24.250   2.767  51.512  1.00  0.00     0.012 A 
HETATM   24  C4  UNL     1      23.888   1.723  52.339  1.00  0.00     0.004 A 
HETATM   25  C3  UNL     1      24.808   0.797  52.806  1.00  0.00     0.037 A 
HETATM   26  C2  UNL     1      26.132   0.917  52.436  1.00  0.00     0.069 A 
HETATM   27  C23 UNL     1      26.518   1.944  51.614  1.00  0.00     0.049 A 
BRANCH  26  28
HETATM   28  O1  UNL     1      26.964  -0.078  52.971  1.00  0.00    -0.356 OA
HETATM   29  C1  UNL     1      27.612   0.091  54.217  1.00  0.00     0.210 C 
ENDBRANCH  26  28
ENDBRANCH   1  22
TORSDOF 3
ENDMDL
MODEL 9
REMARK VINA RESULT:      -8.6      3.449      7.734
REMARK  3 active torsions:
REMARK  status: ('A' for Active; 'I' for Inactive)
REMARK    1  A    between atoms: O1_2  and  C2_3 
REMARK    2  A    between atoms: C6_7  and  C7_8 
REMARK    3  A    between atoms: C14_17  and  C15_18 
ROOT
HETATM    1  C7  UNL     1      28.002   5.977  48.398  1.00  0.00    -0.024 A 
HETATM    2  C8  UNL     1      27.716   4.654  48.671  1.00  0.00     0.013 A 
HETATM    3  C9  UNL     1      26.551   4.292  49.325  1.00  0.00     0.011 A 
HETATM    4  C10 UNL     1      25.664   5.303  49.706  1.00  0.00    -0.012 A 
HETATM    5  C11 UNL     1      25.941   6.630  49.437  1.00  0.00     0.043 A 
HETATM    6  C12 UNL     1      27.105   6.977  48.784  1.00  0.00     0.042 A 
HETATM    7  N1  UNL     1      24.824   7.353  49.967  1.00  0.00    -0.326 N 
HETATM    8  C13 UNL     1      23.880   6.466  50.552  1.00  0.00     0.236 A 
HETATM    9  O2  UNL     1      22.789   6.701  51.113  1.00  0.00    -0.272 OA
HETATM   10  C14 UNL     1      24.396   5.081  50.403  1.00  0.00     0.162 A 
HETATM   11  H10 UNL     1      24.700   8.392  49.938  1.00  0.00     0.169 HD
ENDROOT
BRANCH  10  12
HETATM   12  C15 UNL     1      23.462   4.165  49.742  1.00  0.00     0.019 C 
HETATM   13  C16 UNL     1      23.285   2.963  50.266  1.00  0.00    -0.001 C 
HETATM   14  C17 UNL     1      22.509   1.746  50.007  1.00  0.00     0.033 C 
HETATM   15  C18 UNL     1      21.350   1.892  49.091  1.00  0.00    -0.013 C 
HETATM   16  C19 UNL     1      20.186   1.081  49.678  1.00  0.00     0.010 C 
HETATM   17  C20 UNL     1      20.810   3.299  48.965  1.00  0.00     0.029 C 
HETATM   18  C21 UNL     1      21.577   4.076  47.944  1.00  0.00     0.077 C 
HETATM   19  C22 UNL     1      21.855   3.266  46.709  1.00  0.00     0.032 C 
HETATM   20  N2  UNL     1      22.779   4.591  48.569  1.00  0.00    -0.388 N 
HETATM   21  H25 UNL     1      23.236   5.421  48.087  1.00  0.00     0.159 HD
ENDBRANCH  10  12
BRANCH   1  22
HETATM   22  C6  UNL     1      29.224   6.375  47.710  1.00  0.00    -0.023 A 
HETATM   23  C5  UNL     1      29.206   7.517  46.902  1.00  0.00     0.012 A 
HETATM   24  C4  UNL     1      30.383   7.861  46.268  1.00  0.00     0.004 A 
HETATM   25  C3  UNL     1      31.544   7.118  46.414  1.00  0.00     0.037 A 
HETATM   26  C2  UNL     1      31.530   5.996  47.217  1.00  0.00     0.069 A 
HETATM   27  C23 UNL     1      30.375   5.634  47.859  1.00  0.00     0.049 A 
BRANCH  26  28
HETATM   28  O1  UNL     1      32.764   5.330  47.284  1.00  0.00    -0.356 OA
HETATM   29  C1  UNL     1      32.873   4.028  47.826  1.00  0.00     0.210 C 
ENDBRANCH  26  28
ENDBRANCH   1  22
TORSDOF 3
ENDMDL
