MODEL 1
REMARK VINA RESULT:      -7.5      0.000      0.000
REMARK  6 active torsions:
REMARK  status: ('A' for Active; 'I' for Inactive)
REMARK    1  A    between atoms: O1_2  and  C2_3 
REMARK    2  A    between atoms: C6_9  and  N3_10 
REMARK    3  A    between atoms: N3_10  and  C7_11 
REMARK    4  A    between atoms: C9_13  and  C10_14 
REMARK    5  A    between atoms: C10_14  and  C11_15 
REMARK    6  A    between atoms: C18_23  and  O2_24 
ROOT
HETATM    1  C2  UNL     1      27.438   0.026  53.706  1.00  0.00     0.103 A 
HETATM    2  C3  UNL     1      27.720   0.882  52.665  1.00  0.00     0.072 A 
HETATM    3  C4  UNL     1      26.748   1.711  52.176  1.00  0.00     0.075 A 
HETATM    4  N1  UNL     1      27.048   2.553  51.144  1.00  0.00    -0.241 NA
HETATM    5  C5  UNL     1      26.090   3.383  50.649  1.00  0.00     0.235 A 
HETATM    6  N2  UNL     1      24.871   3.353  51.190  1.00  0.00    -0.224 NA
HETATM    7  C6  UNL     1      24.454   2.585  52.192  1.00  0.00     0.138 A 
HETATM    8  C16 UNL     1      25.456   1.763  52.659  1.00  0.00     0.041 A 
HETATM    9  C17 UNL     1      25.225   0.888  53.700  1.00  0.00     0.057 A 
HETATM   10  C18 UNL     1      26.164   0.031  54.233  1.00  0.00     0.102 A 
ENDROOT
BRANCH   7  11
HETATM   11  N3  UNL     1      23.141   2.597  52.727  1.00  0.00    -0.369 N 
HETATM   12  H6  UNL     1      22.947   2.955  53.686  1.00  0.00     0.161 HD
BRANCH  11  13
HETATM   13  C7  UNL     1      21.999   2.133  52.022  1.00  0.00     0.088 A 
HETATM   14  C8  UNL     1      21.085   1.245  52.918  1.00  0.00     0.032 A 
HETATM   15  C9  UNL     1      21.675   0.763  51.641  1.00  0.00     0.014 A 
BRANCH  15  16
HETATM   16  C10 UNL     1      20.752   0.512  50.494  1.00  0.00     0.042 C 
BRANCH  16  17
HETATM   17  C11 UNL     1      20.938   1.306  49.264  1.00  0.00    -0.064 C 
HETATM   18  C12 UNL     1      19.899   2.104  49.046  1.00  0.00    -0.008 C 
HETATM   19  P1  UNL     1      20.100   3.058  47.728  1.00  0.00    -0.022 P 
HETATM   20  C13 UNL     1      21.777   3.873  47.756  1.00  0.00     0.013 C 
HETATM   21  C14 UNL     1      22.543   2.791  48.022  1.00  0.00    -0.021 C 
HETATM   22  C15 UNL     1      21.917   1.483  48.185  1.00  0.00     0.062 C 
ENDBRANCH  16  17
ENDBRANCH  15  16
ENDBRANCH  11  13
ENDBRANCH   7  11
BRANCH  10  23
HETATM   23  O2  UNL     1      25.878  -0.833  55.285  1.00  0.00    -0.353 OA
HETATM   24  C19 UNL     1      24.521  -1.194  55.500  1.00  0.00     0.210 C 
ENDBRANCH  10  23
BRANCH   1  25
HETATM   25  O1  UNL     1      28.389  -0.830  54.234  1.00  0.00    -0.353 OA
HETATM   26  C1  UNL     1      29.714  -0.898  53.795  1.00  0.00     0.210 C 
ENDBRANCH   1  25
TORSDOF 6
ENDMDL
MODEL 2
REMARK VINA RESULT:      -7.3      2.940      4.669
REMARK  6 active torsions:
REMARK  status: ('A' for Active; 'I' for Inactive)
REMARK    1  A    between atoms: O1_2  and  C2_3 
REMARK    2  A    between atoms: C6_9  and  N3_10 
REMARK    3  A    between atoms: N3_10  and  C7_11 
REMARK    4  A    between atoms: C9_13  and  C10_14 
REMARK    5  A    between atoms: C10_14  and  C11_15 
REMARK    6  A    between atoms: C18_23  and  O2_24 
ROOT
HETATM    1  C2  UNL     1      27.420   0.672  53.676  1.00  0.00     0.103 A 
HETATM    2  C3  UNL     1      26.750  -0.180  54.524  1.00  0.00     0.072 A 
HETATM    3  C4  UNL     1      25.394  -0.327  54.419  1.00  0.00     0.075 A 
HETATM    4  N1  UNL     1      24.748  -1.177  55.269  1.00  0.00    -0.241 NA
HETATM    5  C5  UNL     1      23.399  -1.332  55.174  1.00  0.00     0.235 A 
HETATM    6  N2  UNL     1      22.737  -0.642  54.244  1.00  0.00    -0.224 NA
HETATM    7  C6  UNL     1      23.245   0.213  53.362  1.00  0.00     0.138 A 
HETATM    8  C16 UNL     1      24.611   0.336  53.496  1.00  0.00     0.041 A 
HETATM    9  C17 UNL     1      25.328   1.177  52.671  1.00  0.00     0.057 A 
HETATM   10  C18 UNL     1      26.693   1.364  52.730  1.00  0.00     0.102 A 
ENDROOT
BRANCH   7  11
HETATM   11  N3  UNL     1      22.488   0.920  52.393  1.00  0.00    -0.369 N 
HETATM   12  H6  UNL     1      22.665   1.927  52.193  1.00  0.00     0.161 HD
BRANCH  11  13
HETATM   13  C7  UNL     1      21.445   0.334  51.629  1.00  0.00     0.088 A 
HETATM   14  C8  UNL     1      21.537   0.727  50.124  1.00  0.00     0.032 A 
HETATM   15  C9  UNL     1      20.338   1.006  50.957  1.00  0.00     0.014 A 
BRANCH  15  16
HETATM   16  C10 UNL     1      19.086   0.250  50.658  1.00  0.00     0.042 C 
BRANCH  16  17
HETATM   17  C11 UNL     1      18.350  -0.354  51.785  1.00  0.00    -0.064 C 
HETATM   18  C12 UNL     1      17.095  -0.629  51.447  1.00  0.00    -0.008 C 
HETATM   19  P1  UNL     1      16.264  -1.371  52.649  1.00  0.00    -0.022 P 
HETATM   20  C13 UNL     1      17.256  -2.780  53.362  1.00  0.00     0.013 C 
HETATM   21  C14 UNL     1      18.436  -2.146  53.547  1.00  0.00    -0.021 C 
HETATM   22  C15 UNL     1      18.567  -0.739  53.185  1.00  0.00     0.062 C 
ENDBRANCH  16  17
ENDBRANCH  15  16
ENDBRANCH  11  13
ENDBRANCH   7  11
BRANCH  10  23
HETATM   23  O2  UNL     1      27.369   2.226  51.873  1.00  0.00    -0.353 OA
HETATM   24  C19 UNL     1      26.616   2.897  50.873  1.00  0.00     0.210 C 
ENDBRANCH  10  23
BRANCH   1  25
HETATM   25  O1  UNL     1      28.791   0.852  53.744  1.00  0.00    -0.353 OA
HETATM   26  C1  UNL     1      29.727  -0.176  53.597  1.00  0.00     0.210 C 
ENDBRANCH   1  25
TORSDOF 6
ENDMDL
MODEL 3
REMARK VINA RESULT:      -7.1      2.746      4.121
REMARK  6 active torsions:
REMARK  status: ('A' for Active; 'I' for Inactive)
REMARK    1  A    between atoms: O1_2  and  C2_3 
REMARK    2  A    between atoms: C6_9  and  N3_10 
REMARK    3  A    between atoms: N3_10  and  C7_11 
REMARK    4  A    between atoms: C9_13  and  C10_14 
REMARK    5  A    between atoms: C10_14  and  C11_15 
REMARK    6  A    between atoms: C18_23  and  O2_24 
ROOT
HETATM    1  C2  UNL     1      27.470   0.740  53.656  1.00  0.00     0.103 A 
HETATM    2  C3  UNL     1      26.866  -0.060  54.600  1.00  0.00     0.072 A 
HETATM    3  C4  UNL     1      25.528  -0.334  54.512  1.00  0.00     0.075 A 
HETATM    4  N1  UNL     1      24.949  -1.130  55.457  1.00  0.00    -0.241 NA
HETATM    5  C5  UNL     1      23.619  -1.411  55.381  1.00  0.00     0.235 A 
HETATM    6  N2  UNL     1      22.910  -0.897  54.374  1.00  0.00    -0.224 NA
HETATM    7  C6  UNL     1      23.353  -0.113  53.397  1.00  0.00     0.138 A 
HETATM    8  C16 UNL     1      24.701   0.144  53.516  1.00  0.00     0.041 A 
HETATM    9  C17 UNL     1      25.353   0.939  52.597  1.00  0.00     0.057 A 
HETATM   10  C18 UNL     1      26.696   1.249  52.634  1.00  0.00     0.102 A 
ENDROOT
BRANCH   7  11
HETATM   11  N3  UNL     1      22.549   0.406  52.350  1.00  0.00    -0.369 N 
HETATM   12  H6  UNL     1      22.394  -0.127  51.467  1.00  0.00     0.161 HD
BRANCH  11  13
HETATM   13  C7  UNL     1      21.898   1.666  52.407  1.00  0.00     0.088 A 
HETATM   14  C8  UNL     1      21.274   2.060  51.035  1.00  0.00     0.032 A 
HETATM   15  C9  UNL     1      22.278   2.903  51.734  1.00  0.00     0.014 A 
BRANCH  15  16
HETATM   16  C10 UNL     1      21.827   4.215  52.289  1.00  0.00     0.042 C 
BRANCH  16  17
HETATM   17  C11 UNL     1      22.285   5.449  51.621  1.00  0.00    -0.064 C 
HETATM   18  C12 UNL     1      23.609   5.550  51.655  1.00  0.00    -0.008 C 
HETATM   19  P1  UNL     1      24.163   6.870  50.856  1.00  0.00    -0.022 P 
HETATM   20  C13 UNL     1      23.366   7.005  49.176  1.00  0.00     0.013 C 
HETATM   21  C14 UNL     1      22.073   6.831  49.531  1.00  0.00    -0.021 C 
HETATM   22  C15 UNL     1      21.729   6.620  50.933  1.00  0.00     0.062 C 
ENDBRANCH  16  17
ENDBRANCH  15  16
ENDBRANCH  11  13
ENDBRANCH   7  11
BRANCH  10  23
HETATM   23  O2  UNL     1      27.305   2.057  51.680  1.00  0.00    -0.353 OA
HETATM   24  C19 UNL     1      26.470   2.850  50.848  1.00  0.00     0.210 C 
ENDBRANCH  10  23
BRANCH   1  25
HETATM   25  O1  UNL     1      28.819   1.045  53.703  1.00  0.00    -0.353 OA
HETATM   26  C1  UNL     1      29.841   0.091  53.678  1.00  0.00     0.210 C 
ENDBRANCH   1  25
TORSDOF 6
ENDMDL
MODEL 4
REMARK VINA RESULT:      -7.1      2.458      4.646
REMARK  6 active torsions:
REMARK  status: ('A' for Active; 'I' for Inactive)
REMARK    1  A    between atoms: O1_2  and  C2_3 
REMARK    2  A    between atoms: C6_9  and  N3_10 
REMARK    3  A    between atoms: N3_10  and  C7_11 
REMARK    4  A    between atoms: C9_13  and  C10_14 
REMARK    5  A    between atoms: C10_14  and  C11_15 
REMARK    6  A    between atoms: C18_23  and  O2_24 
ROOT
HETATM    1  C2  UNL     1      23.376  -0.291  53.304  1.00  0.00     0.103 A 
HETATM    2  C3  UNL     1      24.555  -0.680  53.900  1.00  0.00     0.072 A 
HETATM    3  C4  UNL     1      25.709   0.013  53.657  1.00  0.00     0.075 A 
HETATM    4  N1  UNL     1      26.866  -0.388  54.258  1.00  0.00    -0.241 NA
HETATM    5  C5  UNL     1      28.021   0.295  54.025  1.00  0.00     0.235 A 
HETATM    6  N2  UNL     1      27.990   1.348  53.207  1.00  0.00    -0.224 NA
HETATM    7  C6  UNL     1      26.935   1.837  52.564  1.00  0.00     0.138 A 
HETATM    8  C16 UNL     1      25.792   1.116  52.830  1.00  0.00     0.041 A 
HETATM    9  C17 UNL     1      24.587   1.465  52.258  1.00  0.00     0.057 A 
HETATM   10  C18 UNL     1      23.394   0.804  52.466  1.00  0.00     0.102 A 
ENDROOT
BRANCH   7  11
HETATM   11  N3  UNL     1      26.964   2.965  51.704  1.00  0.00    -0.369 N 
HETATM   12  H6  UNL     1      27.635   3.748  51.856  1.00  0.00     0.161 HD
BRANCH  11  13
HETATM   13  C7  UNL     1      26.103   3.126  50.587  1.00  0.00     0.088 A 
HETATM   14  C8  UNL     1      26.836   3.781  49.379  1.00  0.00     0.032 A 
HETATM   15  C9  UNL     1      25.620   4.370  49.998  1.00  0.00     0.014 A 
BRANCH  15  16
HETATM   16  C10 UNL     1      24.357   4.368  49.201  1.00  0.00     0.042 C 
BRANCH  16  17
HETATM   17  C11 UNL     1      23.121   4.846  49.851  1.00  0.00    -0.064 C 
HETATM   18  C12 UNL     1      22.081   4.757  49.029  1.00  0.00    -0.008 C 
HETATM   19  P1  UNL     1      20.674   5.208  49.739  1.00  0.00    -0.022 P 
HETATM   20  C13 UNL     1      20.485   4.388  51.403  1.00  0.00     0.013 C 
HETATM   21  C14 UNL     1      21.705   4.657  51.920  1.00  0.00    -0.021 C 
HETATM   22  C15 UNL     1      22.676   5.408  51.132  1.00  0.00     0.062 C 
ENDBRANCH  16  17
ENDBRANCH  15  16
ENDBRANCH  11  13
ENDBRANCH   7  11
BRANCH  10  23
HETATM   23  O2  UNL     1      22.205   1.198  51.864  1.00  0.00    -0.353 OA
HETATM   24  C19 UNL     1      22.176   1.295  50.447  1.00  0.00     0.210 C 
ENDBRANCH  10  23
BRANCH   1  25
HETATM   25  O1  UNL     1      22.185  -0.961  53.521  1.00  0.00    -0.353 OA
HETATM   26  C1  UNL     1      21.499  -0.971  54.739  1.00  0.00     0.210 C 
ENDBRANCH   1  25
TORSDOF 6
ENDMDL
MODEL 5
REMARK VINA RESULT:      -7.1      2.470      3.568
REMARK  6 active torsions:
REMARK  status: ('A' for Active; 'I' for Inactive)
REMARK    1  A    between atoms: O1_2  and  C2_3 
REMARK    2  A    between atoms: C6_9  and  N3_10 
REMARK    3  A    between atoms: N3_10  and  C7_11 
REMARK    4  A    between atoms: C9_13  and  C10_14 
REMARK    5  A    between atoms: C10_14  and  C11_15 
REMARK    6  A    between atoms: C18_23  and  O2_24 
ROOT
HETATM    1  C2  UNL     1      27.287   0.043  53.728  1.00  0.00     0.103 A 
HETATM    2  C3  UNL     1      27.562   0.915  52.699  1.00  0.00     0.072 A 
HETATM    3  C4  UNL     1      26.550   1.624  52.112  1.00  0.00     0.075 A 
HETATM    4  N1  UNL     1      26.843   2.485  51.094  1.00  0.00    -0.241 NA
HETATM    5  C5  UNL     1      25.845   3.197  50.503  1.00  0.00     0.235 A 
HETATM    6  N2  UNL     1      24.595   3.033  50.937  1.00  0.00    -0.224 NA
HETATM    7  C6  UNL     1      24.180   2.232  51.913  1.00  0.00     0.138 A 
HETATM    8  C16 UNL     1      25.223   1.533  52.481  1.00  0.00     0.041 A 
HETATM    9  C17 UNL     1      25.001   0.647  53.514  1.00  0.00     0.057 A 
HETATM   10  C18 UNL     1      25.979  -0.093  54.143  1.00  0.00     0.102 A 
ENDROOT
BRANCH   7  11
HETATM   11  N3  UNL     1      22.832   2.100  52.332  1.00  0.00    -0.369 N 
HETATM   12  H6  UNL     1      22.504   2.488  53.241  1.00  0.00     0.161 HD
BRANCH  11  13
HETATM   13  C7  UNL     1      21.831   1.442  51.569  1.00  0.00     0.088 A 
HETATM   14  C8  UNL     1      20.859   2.453  50.892  1.00  0.00     0.032 A 
HETATM   15  C9  UNL     1      20.396   1.391  51.824  1.00  0.00     0.014 A 
BRANCH  15  16
HETATM   16  C10 UNL     1      19.584   0.271  51.262  1.00  0.00     0.042 C 
BRANCH  16  17
HETATM   17  C11 UNL     1      18.519  -0.309  52.103  1.00  0.00    -0.064 C 
HETATM   18  C12 UNL     1      17.325  -0.148  51.545  1.00  0.00    -0.008 C 
HETATM   19  P1  UNL     1      16.122  -0.846  52.413  1.00  0.00    -0.022 P 
HETATM   20  C13 UNL     1      16.583  -2.587  52.894  1.00  0.00     0.013 C 
HETATM   21  C14 UNL     1      17.824  -2.361  53.380  1.00  0.00    -0.021 C 
HETATM   22  C15 UNL     1      18.362  -1.004  53.386  1.00  0.00     0.062 C 
ENDBRANCH  16  17
ENDBRANCH  15  16
ENDBRANCH  11  13
ENDBRANCH   7  11
BRANCH  10  23
HETATM   23  O2  UNL     1      25.700  -0.974  55.182  1.00  0.00    -0.353 OA
HETATM   24  C19 UNL     1      24.338  -1.254  55.470  1.00  0.00     0.210 C 
ENDBRANCH  10  23
BRANCH   1  25
HETATM   25  O1  UNL     1      28.278  -0.695  54.352  1.00  0.00    -0.353 OA
HETATM   26  C1  UNL     1      29.575  -0.850  53.853  1.00  0.00     0.210 C 
ENDBRANCH   1  25
TORSDOF 6
ENDMDL
MODEL 6
REMARK VINA RESULT:      -7.0      2.588      4.054
REMARK  6 active torsions:
REMARK  status: ('A' for Active; 'I' for Inactive)
REMARK    1  A    between atoms: O1_2  and  C2_3 
REMARK    2  A    between atoms: C6_9  and  N3_10 
REMARK    3  A    between atoms: N3_10  and  C7_11 
REMARK    4  A    between atoms: C9_13  and  C10_14 
REMARK    5  A    between atoms: C10_14  and  C11_15 
REMARK    6  A    between atoms: C18_23  and  O2_24 
ROOT
HETATM    1  C2  UNL     1      26.629   0.163  54.166  1.00  0.00     0.103 A 
HETATM    2  C3  UNL     1      25.514  -0.582  53.852  1.00  0.00     0.072 A 
HETATM    3  C4  UNL     1      24.389   0.034  53.377  1.00  0.00     0.075 A 
HETATM    4  N1  UNL     1      23.295  -0.722  53.071  1.00  0.00    -0.241 NA
HETATM    5  C5  UNL     1      22.170  -0.120  52.595  1.00  0.00     0.235 A 
HETATM    6  N2  UNL     1      22.166   1.204  52.440  1.00  0.00    -0.224 NA
HETATM    7  C6  UNL     1      23.160   2.048  52.700  1.00  0.00     0.138 A 
HETATM    8  C16 UNL     1      24.275   1.395  53.177  1.00  0.00     0.041 A 
HETATM    9  C17 UNL     1      25.417   2.095  53.506  1.00  0.00     0.057 A 
HETATM   10  C18 UNL     1      26.578   1.529  53.988  1.00  0.00     0.102 A 
ENDROOT
BRANCH   7  11
HETATM   11  N3  UNL     1      23.096   3.453  52.514  1.00  0.00    -0.369 N 
HETATM   12  H6  UNL     1      22.901   4.099  53.307  1.00  0.00     0.161 HD
BRANCH  11  13
HETATM   13  C7  UNL     1      23.287   4.090  51.259  1.00  0.00     0.088 A 
HETATM   14  C8  UNL     1      22.025   4.889  50.817  1.00  0.00     0.032 A 
HETATM   15  C9  UNL     1      22.618   3.802  49.995  1.00  0.00     0.014 A 
BRANCH  15  16
HETATM   16  C10 UNL     1      23.277   4.176  48.708  1.00  0.00     0.042 C 
BRANCH  16  17
HETATM   17  C11 UNL     1      24.184   5.340  48.702  1.00  0.00    -0.064 C 
HETATM   18  C12 UNL     1      23.659   6.353  48.022  1.00  0.00    -0.008 C 
HETATM   19  P1  UNL     1      24.603   7.693  48.054  1.00  0.00    -0.022 P 
HETATM   20  C13 UNL     1      25.159   8.064  49.795  1.00  0.00     0.013 C 
HETATM   21  C14 UNL     1      25.590   6.834  50.156  1.00  0.00    -0.021 C 
HETATM   22  C15 UNL     1      25.506   5.731  49.205  1.00  0.00     0.062 C 
ENDBRANCH  16  17
ENDBRANCH  15  16
ENDBRANCH  11  13
ENDBRANCH   7  11
BRANCH  10  23
HETATM   23  O2  UNL     1      27.703   2.282  54.305  1.00  0.00    -0.353 OA
HETATM   24  C19 UNL     1      28.635   2.555  53.268  1.00  0.00     0.210 C 
ENDBRANCH  10  23
BRANCH   1  25
HETATM   25  O1  UNL     1      27.789  -0.416  54.649  1.00  0.00    -0.353 OA
HETATM   26  C1  UNL     1      28.773  -0.996  53.843  1.00  0.00     0.210 C 
ENDBRANCH   1  25
TORSDOF 6
ENDMDL
MODEL 7
REMARK VINA RESULT:      -6.8      1.450      2.044
REMARK  6 active torsions:
REMARK  status: ('A' for Active; 'I' for Inactive)
REMARK    1  A    between atoms: O1_2  and  C2_3 
REMARK    2  A    between atoms: C6_9  and  N3_10 
REMARK    3  A    between atoms: N3_10  and  C7_11 
REMARK    4  A    between atoms: C9_13  and  C10_14 
REMARK    5  A    between atoms: C10_14  and  C11_15 
REMARK    6  A    between atoms: C18_23  and  O2_24 
ROOT
HETATM    1  C2  UNL     1      27.273  -0.185  53.430  1.00  0.00     0.103 A 
HETATM    2  C3  UNL     1      27.576   0.768  52.483  1.00  0.00     0.072 A 
HETATM    3  C4  UNL     1      26.611   1.636  52.050  1.00  0.00     0.075 A 
HETATM    4  N1  UNL     1      26.930   2.574  51.112  1.00  0.00    -0.241 NA
HETATM    5  C5  UNL     1      25.979   3.444  50.675  1.00  0.00     0.235 A 
HETATM    6  N2  UNL     1      24.747   3.356  51.178  1.00  0.00    -0.224 NA
HETATM    7  C6  UNL     1      24.311   2.493  52.090  1.00  0.00     0.138 A 
HETATM    8  C16 UNL     1      25.306   1.635  52.502  1.00  0.00     0.041 A 
HETATM    9  C17 UNL     1      25.054   0.663  53.448  1.00  0.00     0.057 A 
HETATM   10  C18 UNL     1      25.986  -0.237  53.921  1.00  0.00     0.102 A 
ENDROOT
BRANCH   7  11
HETATM   11  N3  UNL     1      22.984   2.448  52.589  1.00  0.00    -0.369 N 
HETATM   12  H6  UNL     1      22.762   2.711  53.573  1.00  0.00     0.161 HD
BRANCH  11  13
HETATM   13  C7  UNL     1      21.864   2.047  51.813  1.00  0.00     0.088 A 
HETATM   14  C8  UNL     1      21.071   0.891  52.492  1.00  0.00     0.032 A 
HETATM   15  C9  UNL     1      21.654   0.776  51.129  1.00  0.00     0.014 A 
BRANCH  15  16
HETATM   16  C10 UNL     1      20.715   0.707  49.970  1.00  0.00     0.042 C 
BRANCH  16  17
HETATM   17  C11 UNL     1      19.486   1.520  50.018  1.00  0.00    -0.064 C 
HETATM   18  C12 UNL     1      18.410   0.756  50.166  1.00  0.00    -0.008 C 
HETATM   19  P1  UNL     1      17.028   1.628  50.300  1.00  0.00    -0.022 P 
HETATM   20  C13 UNL     1      17.238   3.008  51.536  1.00  0.00     0.013 C 
HETATM   21  C14 UNL     1      18.409   3.522  51.096  1.00  0.00    -0.021 C 
HETATM   22  C15 UNL     1      19.071   2.927  49.939  1.00  0.00     0.062 C 
ENDBRANCH  16  17
ENDBRANCH  15  16
ENDBRANCH  11  13
ENDBRANCH   7  11
BRANCH  10  23
HETATM   23  O2  UNL     1      25.679  -1.200  54.877  1.00  0.00    -0.353 OA
HETATM   24  C19 UNL     1      24.366  -1.205  55.418  1.00  0.00     0.210 C 
ENDBRANCH  10  23
BRANCH   1  25
HETATM   25  O1  UNL     1      28.216  -1.083  53.898  1.00  0.00    -0.353 OA
HETATM   26  C1  UNL     1      29.597  -0.866  53.856  1.00  0.00     0.210 C 
ENDBRANCH   1  25
TORSDOF 6
ENDMDL
MODEL 8
REMARK VINA RESULT:      -6.6      3.946      6.406
REMARK  6 active torsions:
REMARK  status: ('A' for Active; 'I' for Inactive)
REMARK    1  A    between atoms: O1_2  and  C2_3 
REMARK    2  A    between atoms: C6_9  and  N3_10 
REMARK    3  A    between atoms: N3_10  and  C7_11 
REMARK    4  A    between atoms: C9_13  and  C10_14 
REMARK    5  A    between atoms: C10_14  and  C11_15 
REMARK    6  A    between atoms: C18_23  and  O2_24 
ROOT
HETATM    1  C2  UNL     1      23.058   0.041  53.438  1.00  0.00     0.103 A 
HETATM    2  C3  UNL     1      22.105   1.001  53.179  1.00  0.00     0.072 A 
HETATM    3  C4  UNL     1      22.424   2.099  52.427  1.00  0.00     0.075 A 
HETATM    4  N1  UNL     1      21.466   3.038  52.181  1.00  0.00    -0.241 NA
HETATM    5  C5  UNL     1      21.771   4.134  51.433  1.00  0.00     0.235 A 
HETATM    6  N2  UNL     1      23.010   4.264  50.957  1.00  0.00    -0.224 NA
HETATM    7  C6  UNL     1      24.028   3.425  51.125  1.00  0.00     0.138 A 
HETATM    8  C16 UNL     1      23.672   2.333  51.886  1.00  0.00     0.041 A 
HETATM    9  C17 UNL     1      24.589   1.344  52.175  1.00  0.00     0.057 A 
HETATM   10  C18 UNL     1      24.325   0.218  52.925  1.00  0.00     0.102 A 
ENDROOT
BRANCH   7  11
HETATM   11  N3  UNL     1      25.328   3.616  50.593  1.00  0.00    -0.369 N 
HETATM   12  H6  UNL     1      26.162   3.150  51.010  1.00  0.00     0.161 HD
BRANCH  11  13
HETATM   13  C7  UNL     1      25.606   4.442  49.471  1.00  0.00     0.088 A 
HETATM   14  C8  UNL     1      27.097   4.338  49.031  1.00  0.00     0.032 A 
HETATM   15  C9  UNL     1      26.459   5.624  49.416  1.00  0.00     0.014 A 
BRANCH  15  16
HETATM   16  C10 UNL     1      26.238   6.645  48.349  1.00  0.00     0.042 C 
BRANCH  16  17
HETATM   17  C11 UNL     1      27.377   7.496  47.952  1.00  0.00    -0.064 C 
HETATM   18  C12 UNL     1      27.726   8.319  48.934  1.00  0.00    -0.008 C 
HETATM   19  P1  UNL     1      29.038   9.229  48.560  1.00  0.00    -0.022 P 
HETATM   20  C13 UNL     1      30.395   8.166  47.849  1.00  0.00     0.013 C 
HETATM   21  C14 UNL     1      29.677   7.474  46.936  1.00  0.00    -0.021 C 
HETATM   22  C15 UNL     1      28.248   7.730  46.794  1.00  0.00     0.062 C 
ENDBRANCH  16  17
ENDBRANCH  15  16
ENDBRANCH  11  13
ENDBRANCH   7  11
BRANCH  10  23
HETATM   23  O2  UNL     1      25.288  -0.751  53.187  1.00  0.00    -0.353 OA
HETATM   24  C19 UNL     1      26.582  -0.571  52.629  1.00  0.00     0.210 C 
ENDBRANCH  10  23
BRANCH   1  25
HETATM   25  O1  UNL     1      22.781  -1.085  54.193  1.00  0.00    -0.353 OA
HETATM   26  C1  UNL     1      21.496  -1.595  54.403  1.00  0.00     0.210 C 
ENDBRANCH   1  25
TORSDOF 6
ENDMDL
MODEL 9
REMARK VINA RESULT:      -6.5      3.261      6.124
REMARK  6 active torsions:
REMARK  status: ('A' for Active; 'I' for Inactive)
REMARK    1  A    between atoms: O1_2  and  C2_3 
REMARK    2  A    between atoms: C6_9  and  N3_10 
REMARK    3  A    between atoms: N3_10  and  C7_11 
REMARK    4  A    between atoms: C9_13  and  C10_14 
REMARK    5  A    between atoms: C10_14  and  C11_15 
REMARK    6  A    between atoms: C18_23  and  O2_24 
ROOT
HETATM    1  C2  UNL     1      19.950   0.038  51.935  1.00  0.00     0.103 A 
HETATM    2  C3  UNL     1      20.148  -0.471  53.199  1.00  0.00     0.072 A 
HETATM    3  C4  UNL     1      21.417  -0.606  53.693  1.00  0.00     0.075 A 
HETATM    4  N1  UNL     1      21.592  -1.111  54.949  1.00  0.00    -0.241 NA
HETATM    5  C5  UNL     1      22.849  -1.248  55.453  1.00  0.00     0.235 A 
HETATM    6  N2  UNL     1      23.887  -0.883  54.699  1.00  0.00    -0.224 NA
HETATM    7  C6  UNL     1      23.851  -0.381  53.468  1.00  0.00     0.138 A 
HETATM    8  C16 UNL     1      22.560  -0.260  53.002  1.00  0.00     0.041 A 
HETATM    9  C17 UNL     1      22.309   0.243  51.743  1.00  0.00     0.057 A 
HETATM   10  C18 UNL     1      21.054   0.402  51.193  1.00  0.00     0.102 A 
ENDROOT
BRANCH   7  11
HETATM   11  N3  UNL     1      24.993  -0.010  52.714  1.00  0.00    -0.369 N 
HETATM   12  H6  UNL     1      25.849  -0.603  52.694  1.00  0.00     0.161 HD
BRANCH  11  13
HETATM   13  C7  UNL     1      25.071   1.176  51.937  1.00  0.00     0.088 A 
HETATM   14  C8  UNL     1      26.302   2.047  52.331  1.00  0.00     0.032 A 
HETATM   15  C9  UNL     1      24.906   2.555  52.385  1.00  0.00     0.014 A 
BRANCH  15  16
HETATM   16  C10 UNL     1      24.505   3.607  51.404  1.00  0.00     0.042 C 
BRANCH  16  17
HETATM   17  C11 UNL     1      23.179   4.236  51.559  1.00  0.00    -0.064 C 
HETATM   18  C12 UNL     1      22.882   4.993  50.509  1.00  0.00    -0.008 C 
HETATM   19  P1  UNL     1      21.382   5.649  50.607  1.00  0.00    -0.022 P 
HETATM   20  C13 UNL     1      20.126   4.353  51.075  1.00  0.00     0.013 C 
HETATM   21  C14 UNL     1      20.769   3.792  52.124  1.00  0.00    -0.021 C 
HETATM   22  C15 UNL     1      22.077   4.298  52.527  1.00  0.00     0.062 C 
ENDBRANCH  16  17
ENDBRANCH  15  16
ENDBRANCH  11  13
ENDBRANCH   7  11
BRANCH  10  23
HETATM   23  O2  UNL     1      20.855   0.915  49.916  1.00  0.00    -0.353 OA
HETATM   24  C19 UNL     1      21.942   1.583  49.290  1.00  0.00     0.210 C 
ENDBRANCH  10  23
BRANCH   1  25
HETATM   25  O1  UNL     1      18.686   0.193  51.393  1.00  0.00    -0.353 OA
HETATM   26  C1  UNL     1      17.888   1.327  51.571  1.00  0.00     0.210 C 
ENDBRANCH   1  25
TORSDOF 6
ENDMDL
