MODEL 1
REMARK VINA RESULT:      -6.9      0.000      0.000
REMARK  6 active torsions:
REMARK  status: ('A' for Active; 'I' for Inactive)
REMARK    1  A    between atoms: S1_2  and  N1_5 
REMARK    2  A    between atoms: C5_9  and  C6_10 
REMARK    3  A    between atoms: C7_11  and  C8_12 
REMARK    4  A    between atoms: C12_18  and  N4_19 
REMARK    5  A    between atoms: N4_19  and  C13_20 
REMARK    6  A    between atoms: C13_20  and  C14_21 
ROOT
HETATM    1  C14 UNL     1      22.955   6.129  50.058  1.00  0.00    -0.070 C 
HETATM    2  C15 UNL     1      24.080   6.556  50.149  1.00  0.00     0.006 C 
HETATM    3 CL1  UNL     1      25.709   7.145  50.283  1.00  0.00    -0.023 Cl
ENDROOT
BRANCH   1   4
HETATM    4  C13 UNL     1      21.593   5.584  49.951  1.00  0.00     0.217 C 
BRANCH   4   5
HETATM    5  N4  UNL     1      21.099   5.409  51.302  1.00  0.00    -0.363 N 
HETATM    6  H13 UNL     1      21.190   6.106  52.051  1.00  0.00     0.162 HD
BRANCH   5   7
HETATM    7  C12 UNL     1      20.466   4.171  51.509  1.00  0.00     0.145 A 
HETATM    8  N3  UNL     1      19.168   3.884  51.370  1.00  0.00    -0.223 NA
HETATM    9  C11 UNL     1      18.787   2.619  51.625  1.00  0.00     0.236 A 
HETATM   10  N2  UNL     1      19.567   1.624  52.001  1.00  0.00    -0.241 NA
HETATM   11  C10 UNL     1      20.890   1.749  52.185  1.00  0.00     0.081 A 
HETATM   12  C9  UNL     1      21.896   0.917  52.556  1.00  0.00     0.061 A 
HETATM   13  C16 UNL     1      21.296   3.076  51.918  1.00  0.00     0.080 A 
HETATM   14  C8  UNL     1      23.151   1.328  52.657  1.00  0.00     0.061 A 
HETATM   15  S2  UNL     1      23.162   3.050  52.228  1.00  0.00    -0.075 SA
BRANCH  14  16
HETATM   16  C7  UNL     1      24.329   0.560  53.041  1.00  0.00    -0.058 C 
HETATM   17  C6  UNL     1      25.303  -0.059  53.371  1.00  0.00    -0.080 C 
BRANCH  17  18
HETATM   18  C5  UNL     1      26.492  -0.813  53.802  1.00  0.00     0.153 C 
HETATM   19  N1  UNL     1      27.430   0.121  54.325  1.00  0.00    -0.195 NA
HETATM   20  C2  UNL     1      28.698  -0.575  54.240  1.00  0.00     0.109 C 
HETATM   21  C3  UNL     1      28.612  -1.546  53.102  1.00  0.00     0.018 C 
HETATM   22  C4  UNL     1      27.171  -1.503  52.660  1.00  0.00     0.034 C 
BRANCH  19  23
HETATM   23  S1  UNL     1      27.477   1.634  53.517  1.00  0.00     0.209 S 
HETATM   24  C1  UNL     1      29.004   2.488  53.703  1.00  0.00     0.180 C 
HETATM   25  O1  UNL     1      26.417   2.498  54.186  1.00  0.00    -0.212 OA
HETATM   26  O2  UNL     1      27.125   1.539  52.082  1.00  0.00    -0.212 OA
ENDBRANCH  19  23
ENDBRANCH  17  18
ENDBRANCH  14  16
ENDBRANCH   5   7
ENDBRANCH   4   5
ENDBRANCH   1   4
TORSDOF 6
ENDMDL
MODEL 2
REMARK VINA RESULT:      -6.6      3.937      7.978
REMARK  6 active torsions:
REMARK  status: ('A' for Active; 'I' for Inactive)
REMARK    1  A    between atoms: S1_2  and  N1_5 
REMARK    2  A    between atoms: C5_9  and  C6_10 
REMARK    3  A    between atoms: C7_11  and  C8_12 
REMARK    4  A    between atoms: C12_18  and  N4_19 
REMARK    5  A    between atoms: N4_19  and  C13_20 
REMARK    6  A    between atoms: C13_20  and  C14_21 
ROOT
HETATM    1  C14 UNL     1      26.154   2.267  51.974  1.00  0.00    -0.070 C 
HETATM    2  C15 UNL     1      26.401   2.802  50.920  1.00  0.00     0.006 C 
HETATM    3 CL1  UNL     1      26.734   3.559  49.394  1.00  0.00    -0.023 Cl
ENDROOT
BRANCH   1   4
HETATM    4  C13 UNL     1      25.833   1.601  53.246  1.00  0.00     0.217 C 
BRANCH   4   5
HETATM    5  N4  UNL     1      25.493   0.228  52.932  1.00  0.00    -0.363 N 
HETATM    6  H13 UNL     1      25.780  -0.262  52.076  1.00  0.00     0.162 HD
BRANCH   5   7
HETATM    7  C12 UNL     1      24.716  -0.395  53.924  1.00  0.00     0.145 A 
HETATM    8  N3  UNL     1      25.141  -0.970  55.053  1.00  0.00    -0.223 NA
HETATM    9  C11 UNL     1      24.206  -1.507  55.859  1.00  0.00     0.236 A 
HETATM   10  N2  UNL     1      22.904  -1.527  55.649  1.00  0.00    -0.241 NA
HETATM   11  C10 UNL     1      22.321  -0.994  54.564  1.00  0.00     0.081 A 
HETATM   12  C9  UNL     1      21.047  -0.878  54.113  1.00  0.00     0.061 A 
HETATM   13  C16 UNL     1      23.297  -0.427  53.715  1.00  0.00     0.080 A 
HETATM   14  C8  UNL     1      20.755  -0.281  52.967  1.00  0.00     0.061 A 
HETATM   15  S2  UNL     1      22.294   0.261  52.267  1.00  0.00    -0.075 SA
BRANCH  14  16
HETATM   16  C7  UNL     1      19.447  -0.081  52.355  1.00  0.00    -0.058 C 
HETATM   17  C6  UNL     1      18.380   0.084  51.833  1.00  0.00    -0.080 C 
BRANCH  17  18
HETATM   18  C5  UNL     1      17.077   0.269  51.172  1.00  0.00     0.153 C 
HETATM   19  N1  UNL     1      17.323   0.756  49.858  1.00  0.00    -0.195 NA
HETATM   20  C2  UNL     1      16.073   1.382  49.479  1.00  0.00     0.109 C 
HETATM   21  C3  UNL     1      15.398   1.852  50.731  1.00  0.00     0.018 C 
HETATM   22  C4  UNL     1      16.235   1.299  51.858  1.00  0.00     0.034 C 
BRANCH  19  23
HETATM   23  S1  UNL     1      18.646   1.840  49.721  1.00  0.00     0.209 S 
HETATM   24  C1  UNL     1      18.774   2.974  51.059  1.00  0.00     0.180 C 
HETATM   25  O1  UNL     1      18.376   2.674  48.476  1.00  0.00    -0.212 OA
HETATM   26  O2  UNL     1      19.942   1.154  49.517  1.00  0.00    -0.212 OA
ENDBRANCH  19  23
ENDBRANCH  17  18
ENDBRANCH  14  16
ENDBRANCH   5   7
ENDBRANCH   4   5
ENDBRANCH   1   4
TORSDOF 6
ENDMDL
MODEL 3
REMARK VINA RESULT:      -6.6      3.620      7.311
REMARK  6 active torsions:
REMARK  status: ('A' for Active; 'I' for Inactive)
REMARK    1  A    between atoms: S1_2  and  N1_5 
REMARK    2  A    between atoms: C5_9  and  C6_10 
REMARK    3  A    between atoms: C7_11  and  C8_12 
REMARK    4  A    between atoms: C12_18  and  N4_19 
REMARK    5  A    between atoms: N4_19  and  C13_20 
REMARK    6  A    between atoms: C13_20  and  C14_21 
ROOT
HETATM    1  C14 UNL     1      27.487   5.064  48.646  1.00  0.00    -0.070 C 
HETATM    2  C15 UNL     1      27.907   6.107  48.208  1.00  0.00     0.006 C 
HETATM    3 CL1  UNL     1      28.519   7.596  47.556  1.00  0.00    -0.023 Cl
ENDROOT
BRANCH   1   4
HETATM    4  C13 UNL     1      26.985   3.779  49.158  1.00  0.00     0.217 C 
BRANCH   4   5
HETATM    5  N4  UNL     1      26.422   4.035  50.469  1.00  0.00    -0.363 N 
HETATM    6  H13 UNL     1      26.045   4.941  50.774  1.00  0.00     0.162 HD
BRANCH   5   7
HETATM    7  C12 UNL     1      26.434   2.911  51.311  1.00  0.00     0.145 A 
HETATM    8  N3  UNL     1      27.466   2.422  52.007  1.00  0.00    -0.223 NA
HETATM    9  C11 UNL     1      27.241   1.325  52.752  1.00  0.00     0.236 A 
HETATM   10  N2  UNL     1      26.099   0.675  52.869  1.00  0.00    -0.241 NA
HETATM   11  C10 UNL     1      24.973   1.037  52.237  1.00  0.00     0.081 A 
HETATM   12  C9  UNL     1      23.702   0.564  52.181  1.00  0.00     0.061 A 
HETATM   13  C16 UNL     1      25.203   2.189  51.453  1.00  0.00     0.080 A 
HETATM   14  C8  UNL     1      22.764   1.143  51.448  1.00  0.00     0.061 A 
HETATM   15  S2  UNL     1      23.524   2.537  50.654  1.00  0.00    -0.075 SA
BRANCH  14  16
HETATM   16  C7  UNL     1      21.368   0.755  51.288  1.00  0.00    -0.058 C 
HETATM   17  C6  UNL     1      20.215   0.442  51.176  1.00  0.00    -0.080 C 
BRANCH  17  18
HETATM   18  C5  UNL     1      18.793   0.080  51.053  1.00  0.00     0.153 C 
HETATM   19  N1  UNL     1      18.093   1.228  50.591  1.00  0.00    -0.195 NA
HETATM   20  C2  UNL     1      16.719   0.978  50.978  1.00  0.00     0.109 C 
HETATM   21  C3  UNL     1      16.740   0.103  52.195  1.00  0.00     0.018 C 
HETATM   22  C4  UNL     1      18.185  -0.287  52.372  1.00  0.00     0.034 C 
BRANCH  19  23
HETATM   23  S1  UNL     1      18.665   2.726  51.202  1.00  0.00     0.209 S 
HETATM   24  C1  UNL     1      17.406   3.935  51.405  1.00  0.00     0.180 C 
HETATM   25  O1  UNL     1      19.619   3.270  50.149  1.00  0.00    -0.212 OA
HETATM   26  O2  UNL     1      19.435   2.584  52.460  1.00  0.00    -0.212 OA
ENDBRANCH  19  23
ENDBRANCH  17  18
ENDBRANCH  14  16
ENDBRANCH   5   7
ENDBRANCH   4   5
ENDBRANCH   1   4
TORSDOF 6
ENDMDL
MODEL 4
REMARK VINA RESULT:      -6.5      8.547      9.783
REMARK  6 active torsions:
REMARK  status: ('A' for Active; 'I' for Inactive)
REMARK    1  A    between atoms: S1_2  and  N1_5 
REMARK    2  A    between atoms: C5_9  and  C6_10 
REMARK    3  A    between atoms: C7_11  and  C8_12 
REMARK    4  A    between atoms: C12_18  and  N4_19 
REMARK    5  A    between atoms: N4_19  and  C13_20 
REMARK    6  A    between atoms: C13_20  and  C14_21 
ROOT
HETATM    1  C14 UNL     1      30.203  12.003  47.919  1.00  0.00    -0.070 C 
HETATM    2  C15 UNL     1      31.254  11.822  47.355  1.00  0.00     0.006 C 
HETATM    3 CL1  UNL     1      32.755  11.545  46.526  1.00  0.00    -0.023 Cl
ENDROOT
BRANCH   1   4
HETATM    4  C13 UNL     1      28.910  12.205  48.590  1.00  0.00     0.217 C 
BRANCH   4   5
HETATM    5  N4  UNL     1      28.764  11.140  49.562  1.00  0.00    -0.363 N 
HETATM    6  H13 UNL     1      29.269  11.095  50.456  1.00  0.00     0.162 HD
BRANCH   5   7
HETATM    7  C12 UNL     1      27.850  10.148  49.171  1.00  0.00     0.145 A 
HETATM    8  N3  UNL     1      26.517  10.233  49.134  1.00  0.00    -0.223 NA
HETATM    9  C11 UNL     1      25.842   9.145  48.722  1.00  0.00     0.236 A 
HETATM   10  N2  UNL     1      26.362   7.992  48.346  1.00  0.00    -0.241 NA
HETATM   11  C10 UNL     1      27.681   7.747  48.326  1.00  0.00     0.081 A 
HETATM   12  C9  UNL     1      28.460   6.687  47.996  1.00  0.00     0.061 A 
HETATM   13  C16 UNL     1      28.395   8.886  48.759  1.00  0.00     0.080 A 
HETATM   14  C8  UNL     1      29.782   6.729  48.077  1.00  0.00     0.061 A 
HETATM   15  S2  UNL     1      30.206   8.350  48.662  1.00  0.00    -0.075 SA
BRANCH  14  16
HETATM   16  C7  UNL     1      30.744   5.681  47.759  1.00  0.00    -0.058 C 
HETATM   17  C6  UNL     1      31.549   4.832  47.491  1.00  0.00    -0.080 C 
BRANCH  17  18
HETATM   18  C5  UNL     1      32.557   3.808  47.169  1.00  0.00     0.153 C 
HETATM   19  N1  UNL     1      33.666   4.005  48.037  1.00  0.00    -0.195 NA
HETATM   20  C2  UNL     1      34.763   3.351  47.353  1.00  0.00     0.109 C 
HETATM   21  C3  UNL     1      34.480   3.399  45.883  1.00  0.00     0.018 C 
HETATM   22  C4  UNL     1      33.079   3.946  45.772  1.00  0.00     0.034 C 
BRANCH  19  23
HETATM   23  S1  UNL     1      34.026   5.644  48.398  1.00  0.00     0.209 S 
HETATM   24  C1  UNL     1      34.040   6.693  46.987  1.00  0.00     0.180 C 
HETATM   25  O1  UNL     1      35.443   5.648  48.952  1.00  0.00    -0.212 OA
HETATM   26  O2  UNL     1      33.145   6.216  49.442  1.00  0.00    -0.212 OA
ENDBRANCH  19  23
ENDBRANCH  17  18
ENDBRANCH  14  16
ENDBRANCH   5   7
ENDBRANCH   4   5
ENDBRANCH   1   4
TORSDOF 6
ENDMDL
MODEL 5
REMARK VINA RESULT:      -6.2      4.713      7.117
REMARK  6 active torsions:
REMARK  status: ('A' for Active; 'I' for Inactive)
REMARK    1  A    between atoms: S1_2  and  N1_5 
REMARK    2  A    between atoms: C5_9  and  C6_10 
REMARK    3  A    between atoms: C7_11  and  C8_12 
REMARK    4  A    between atoms: C12_18  and  N4_19 
REMARK    5  A    between atoms: N4_19  and  C13_20 
REMARK    6  A    between atoms: C13_20  and  C14_21 
ROOT
HETATM    1  C14 UNL     1      27.159  10.786  47.960  1.00  0.00    -0.070 C 
HETATM    2  C15 UNL     1      27.623  11.818  48.379  1.00  0.00     0.006 C 
HETATM    3 CL1  UNL     1      28.295  13.311  48.957  1.00  0.00    -0.023 Cl
ENDROOT
BRANCH   1   4
HETATM    4  C13 UNL     1      26.601   9.535  47.423  1.00  0.00     0.217 C 
BRANCH   4   5
HETATM    5  N4  UNL     1      26.490   8.609  48.533  1.00  0.00    -0.363 N 
HETATM    6  H13 UNL     1      25.873   8.743  49.344  1.00  0.00     0.162 HD
BRANCH   5   7
HETATM    7  C12 UNL     1      27.319   7.482  48.405  1.00  0.00     0.145 A 
HETATM    8  N3  UNL     1      28.554   7.430  47.896  1.00  0.00    -0.223 NA
HETATM    9  C11 UNL     1      29.160   6.229  47.875  1.00  0.00     0.236 A 
HETATM   10  N2  UNL     1      28.660   5.088  48.308  1.00  0.00    -0.241 NA
HETATM   11  C10 UNL     1      27.436   4.973  48.844  1.00  0.00     0.081 A 
HETATM   12  C9  UNL     1      26.697   3.955  49.353  1.00  0.00     0.061 A 
HETATM   13  C16 UNL     1      26.794   6.231  48.869  1.00  0.00     0.080 A 
HETATM   14  C8  UNL     1      25.475   4.138  49.830  1.00  0.00     0.061 A 
HETATM   15  S2  UNL     1      25.109   5.866  49.648  1.00  0.00    -0.075 SA
BRANCH  14  16
HETATM   16  C7  UNL     1      24.567   3.153  50.404  1.00  0.00    -0.058 C 
HETATM   17  C6  UNL     1      23.816   2.334  50.858  1.00  0.00    -0.080 C 
BRANCH  17  18
HETATM   18  C5  UNL     1      22.903   1.312  51.396  1.00  0.00     0.153 C 
HETATM   19  N1  UNL     1      21.576   1.812  51.279  1.00  0.00    -0.195 NA
HETATM   20  C2  UNL     1      20.827   1.040  52.249  1.00  0.00     0.109 C 
HETATM   21  C3  UNL     1      21.770   0.636  53.340  1.00  0.00     0.018 C 
HETATM   22  C4  UNL     1      23.134   1.056  52.853  1.00  0.00     0.034 C 
BRANCH  19  23
HETATM   23  S1  UNL     1      21.409   3.500  51.540  1.00  0.00     0.209 S 
HETATM   24  C1  UNL     1      22.609   4.168  52.637  1.00  0.00     0.180 C 
HETATM   25  O1  UNL     1      20.057   3.686  52.215  1.00  0.00    -0.212 OA
HETATM   26  O2  UNL     1      21.384   4.283  50.284  1.00  0.00    -0.212 OA
ENDBRANCH  19  23
ENDBRANCH  17  18
ENDBRANCH  14  16
ENDBRANCH   5   7
ENDBRANCH   4   5
ENDBRANCH   1   4
TORSDOF 6
ENDMDL
MODEL 6
REMARK VINA RESULT:      -6.1      4.133      6.214
REMARK  6 active torsions:
REMARK  status: ('A' for Active; 'I' for Inactive)
REMARK    1  A    between atoms: S1_2  and  N1_5 
REMARK    2  A    between atoms: C5_9  and  C6_10 
REMARK    3  A    between atoms: C7_11  and  C8_12 
REMARK    4  A    between atoms: C12_18  and  N4_19 
REMARK    5  A    between atoms: N4_19  and  C13_20 
REMARK    6  A    between atoms: C13_20  and  C14_21 
ROOT
HETATM    1  C14 UNL     1      26.901  10.612  48.125  1.00  0.00    -0.070 C 
HETATM    2  C15 UNL     1      27.426  11.655  48.430  1.00  0.00     0.006 C 
HETATM    3 CL1  UNL     1      28.181  13.164  48.843  1.00  0.00    -0.023 Cl
ENDROOT
BRANCH   1   4
HETATM    4  C13 UNL     1      26.264   9.347  47.727  1.00  0.00     0.217 C 
BRANCH   4   5
HETATM    5  N4  UNL     1      26.251   8.492  48.897  1.00  0.00    -0.363 N 
HETATM    6  H13 UNL     1      25.770   8.716  49.776  1.00  0.00     0.162 HD
BRANCH   5   7
HETATM    7  C12 UNL     1      26.971   7.298  48.723  1.00  0.00     0.145 A 
HETATM    8  N3  UNL     1      28.132   7.130  48.081  1.00  0.00    -0.223 NA
HETATM    9  C11 UNL     1      28.638   5.883  48.043  1.00  0.00     0.236 A 
HETATM   10  N2  UNL     1      28.105   4.801  48.576  1.00  0.00    -0.241 NA
HETATM   11  C10 UNL     1      26.945   4.803  49.250  1.00  0.00     0.081 A 
HETATM   12  C9  UNL     1      26.194   3.865  49.880  1.00  0.00     0.061 A 
HETATM   13  C16 UNL     1      26.409   6.109  49.295  1.00  0.00     0.080 A 
HETATM   14  C8  UNL     1      25.053   4.162  50.484  1.00  0.00     0.061 A 
HETATM   15  S2  UNL     1      24.802   5.907  50.271  1.00  0.00    -0.075 SA
BRANCH  14  16
HETATM   16  C7  UNL     1      24.144   3.272  51.196  1.00  0.00    -0.058 C 
HETATM   17  C6  UNL     1      23.392   2.530  51.765  1.00  0.00    -0.080 C 
BRANCH  17  18
HETATM   18  C5  UNL     1      22.478   1.598  52.447  1.00  0.00     0.153 C 
HETATM   19  N1  UNL     1      23.172   1.050  53.561  1.00  0.00    -0.195 NA
HETATM   20  C2  UNL     1      22.452  -0.173  53.851  1.00  0.00     0.109 C 
HETATM   21  C3  UNL     1      21.841  -0.659  52.572  1.00  0.00     0.018 C 
HETATM   22  C4  UNL     1      22.091   0.444  51.575  1.00  0.00     0.034 C 
BRANCH  19  23
HETATM   23  S1  UNL     1      24.844   0.760  53.305  1.00  0.00     0.209 S 
HETATM   24  C1  UNL     1      25.484  -0.573  54.257  1.00  0.00     0.180 C 
HETATM   25  O1  UNL     1      25.563   2.014  53.783  1.00  0.00    -0.212 OA
HETATM   26  O2  UNL     1      25.191   0.571  51.878  1.00  0.00    -0.212 OA
ENDBRANCH  19  23
ENDBRANCH  17  18
ENDBRANCH  14  16
ENDBRANCH   5   7
ENDBRANCH   4   5
ENDBRANCH   1   4
TORSDOF 6
ENDMDL
MODEL 7
REMARK VINA RESULT:      -6.1      8.285     12.206
REMARK  6 active torsions:
REMARK  status: ('A' for Active; 'I' for Inactive)
REMARK    1  A    between atoms: S1_2  and  N1_5 
REMARK    2  A    between atoms: C5_9  and  C6_10 
REMARK    3  A    between atoms: C7_11  and  C8_12 
REMARK    4  A    between atoms: C12_18  and  N4_19 
REMARK    5  A    between atoms: N4_19  and  C13_20 
REMARK    6  A    between atoms: C13_20  and  C14_21 
ROOT
HETATM    1  C14 UNL     1      33.396   2.449  47.195  1.00  0.00    -0.070 C 
HETATM    2  C15 UNL     1      32.575   1.646  46.826  1.00  0.00     0.006 C 
HETATM    3 CL1  UNL     1      31.376   0.501  46.310  1.00  0.00    -0.023 Cl
ENDROOT
BRANCH   1   4
HETATM    4  C13 UNL     1      34.379   3.438  47.664  1.00  0.00     0.217 C 
BRANCH   4   5
HETATM    5  N4  UNL     1      33.696   4.304  48.604  1.00  0.00    -0.363 N 
HETATM    6  H13 UNL     1      32.982   3.990  49.272  1.00  0.00     0.162 HD
BRANCH   5   7
HETATM    7  C12 UNL     1      34.101   5.647  48.522  1.00  0.00     0.145 A 
HETATM    8  N3  UNL     1      35.340   6.117  48.342  1.00  0.00    -0.223 NA
HETATM    9  C11 UNL     1      35.490   7.454  48.296  1.00  0.00     0.236 A 
HETATM   10  N2  UNL     1      34.535   8.357  48.412  1.00  0.00    -0.241 NA
HETATM   11  C10 UNL     1      33.243   8.047  48.597  1.00  0.00     0.081 A 
HETATM   12  C9  UNL     1      32.094   8.754  48.744  1.00  0.00     0.061 A 
HETATM   13  C16 UNL     1      33.079   6.645  48.646  1.00  0.00     0.080 A 
HETATM   14  C8  UNL     1      30.920   8.164  48.918  1.00  0.00     0.061 A 
HETATM   15  S2  UNL     1      31.220   6.415  48.908  1.00  0.00    -0.075 SA
BRANCH  14  16
HETATM   16  C7  UNL     1      29.611   8.782  49.088  1.00  0.00    -0.058 C 
HETATM   17  C6  UNL     1      28.529   9.288  49.208  1.00  0.00    -0.080 C 
BRANCH  17  18
HETATM   18  C5  UNL     1      27.192   9.891  49.338  1.00  0.00     0.153 C 
HETATM   19  N1  UNL     1      26.232   8.854  49.172  1.00  0.00    -0.195 NA
HETATM   20  C2  UNL     1      25.021   9.557  48.802  1.00  0.00     0.109 C 
HETATM   21  C3  UNL     1      25.421  10.824  48.108  1.00  0.00     0.018 C 
HETATM   22  C4  UNL     1      26.919  10.900  48.267  1.00  0.00     0.034 C 
BRANCH  19  23
HETATM   23  S1  UNL     1      26.650   7.654  48.019  1.00  0.00     0.209 S 
HETATM   24  C1  UNL     1      27.410   8.298  46.570  1.00  0.00     0.180 C 
HETATM   25  O1  UNL     1      25.337   7.027  47.574  1.00  0.00    -0.212 OA
HETATM   26  O2  UNL     1      27.485   6.569  48.585  1.00  0.00    -0.212 OA
ENDBRANCH  19  23
ENDBRANCH  17  18
ENDBRANCH  14  16
ENDBRANCH   5   7
ENDBRANCH   4   5
ENDBRANCH   1   4
TORSDOF 6
ENDMDL
MODEL 8
REMARK VINA RESULT:      -6.1      5.765      7.753
REMARK  6 active torsions:
REMARK  status: ('A' for Active; 'I' for Inactive)
REMARK    1  A    between atoms: S1_2  and  N1_5 
REMARK    2  A    between atoms: C5_9  and  C6_10 
REMARK    3  A    between atoms: C7_11  and  C8_12 
REMARK    4  A    between atoms: C12_18  and  N4_19 
REMARK    5  A    between atoms: N4_19  and  C13_20 
REMARK    6  A    between atoms: C13_20  and  C14_21 
ROOT
HETATM    1  C14 UNL     1      21.991   7.835  50.006  1.00  0.00    -0.070 C 
HETATM    2  C15 UNL     1      22.067   8.792  49.276  1.00  0.00     0.006 C 
HETATM    3 CL1  UNL     1      22.186  10.154  48.205  1.00  0.00    -0.023 Cl
ENDROOT
BRANCH   1   4
HETATM    4  C13 UNL     1      21.909   6.652  50.877  1.00  0.00     0.217 C 
BRANCH   4   5
HETATM    5  N4  UNL     1      23.231   6.443  51.434  1.00  0.00    -0.363 N 
HETATM    6  H13 UNL     1      23.691   7.079  52.097  1.00  0.00     0.162 HD
BRANCH   5   7
HETATM    7  C12 UNL     1      23.848   5.266  50.980  1.00  0.00     0.145 A 
HETATM    8  N3  UNL     1      23.467   4.004  51.204  1.00  0.00    -0.223 NA
HETATM    9  C11 UNL     1      24.220   3.029  50.663  1.00  0.00     0.236 A 
HETATM   10  N2  UNL     1      25.304   3.188  49.929  1.00  0.00    -0.241 NA
HETATM   11  C10 UNL     1      25.815   4.388  49.614  1.00  0.00     0.081 A 
HETATM   12  C9  UNL     1      26.882   4.824  48.899  1.00  0.00     0.061 A 
HETATM   13  C16 UNL     1      25.029   5.416  50.179  1.00  0.00     0.080 A 
HETATM   14  C8  UNL     1      27.154   6.112  48.750  1.00  0.00     0.061 A 
HETATM   15  S2  UNL     1      25.897   7.004  49.632  1.00  0.00    -0.075 SA
BRANCH  14  16
HETATM   16  C7  UNL     1      28.253   6.729  48.018  1.00  0.00    -0.058 C 
HETATM   17  C6  UNL     1      29.144   7.243  47.401  1.00  0.00    -0.080 C 
BRANCH  17  18
HETATM   18  C5  UNL     1      30.222   7.893  46.636  1.00  0.00     0.153 C 
HETATM   19  N1  UNL     1      31.268   6.944  46.469  1.00  0.00    -0.195 NA
HETATM   20  C2  UNL     1      32.435   7.757  46.196  1.00  0.00     0.109 C 
HETATM   21  C3  UNL     1      32.234   9.085  46.861  1.00  0.00     0.018 C 
HETATM   22  C4  UNL     1      30.815   9.056  47.370  1.00  0.00     0.034 C 
BRANCH  19  23
HETATM   23  S1  UNL     1      31.519   5.896  47.804  1.00  0.00     0.209 S 
HETATM   24  C1  UNL     1      31.521   6.717  49.359  1.00  0.00     0.180 C 
HETATM   25  O1  UNL     1      32.914   5.315  47.623  1.00  0.00    -0.212 OA
HETATM   26  O2  UNL     1      30.571   4.758  47.837  1.00  0.00    -0.212 OA
ENDBRANCH  19  23
ENDBRANCH  17  18
ENDBRANCH  14  16
ENDBRANCH   5   7
ENDBRANCH   4   5
ENDBRANCH   1   4
TORSDOF 6
ENDMDL
MODEL 9
REMARK VINA RESULT:      -6.0      3.855      4.588
REMARK  6 active torsions:
REMARK  status: ('A' for Active; 'I' for Inactive)
REMARK    1  A    between atoms: S1_2  and  N1_5 
REMARK    2  A    between atoms: C5_9  and  C6_10 
REMARK    3  A    between atoms: C7_11  and  C8_12 
REMARK    4  A    between atoms: C12_18  and  N4_19 
REMARK    5  A    between atoms: N4_19  and  C13_20 
REMARK    6  A    between atoms: C13_20  and  C14_21 
ROOT
HETATM    1  C14 UNL     1      16.619   1.717  49.959  1.00  0.00    -0.070 C 
HETATM    2  C15 UNL     1      15.674   2.467  49.943  1.00  0.00     0.006 C 
HETATM    3 CL1  UNL     1      14.298   3.527  49.908  1.00  0.00    -0.023 Cl
ENDROOT
BRANCH   1   4
HETATM    4  C13 UNL     1      17.757   0.785  49.966  1.00  0.00     0.217 C 
BRANCH   4   5
HETATM    5  N4  UNL     1      18.553   1.094  51.137  1.00  0.00    -0.363 N 
HETATM    6  H13 UNL     1      19.054   1.979  51.283  1.00  0.00     0.162 HD
BRANCH   5   7
HETATM    7  C12 UNL     1      18.583   0.054  52.082  1.00  0.00     0.145 A 
HETATM    8  N3  UNL     1      17.559  -0.692  52.509  1.00  0.00    -0.223 NA
HETATM    9  C11 UNL     1      17.828  -1.637  53.427  1.00  0.00     0.236 A 
HETATM   10  N2  UNL     1      19.007  -1.908  53.955  1.00  0.00    -0.241 NA
HETATM   11  C10 UNL     1      20.131  -1.251  53.632  1.00  0.00     0.081 A 
HETATM   12  C9  UNL     1      21.432  -1.322  54.010  1.00  0.00     0.061 A 
HETATM   13  C16 UNL     1      19.854  -0.256  52.668  1.00  0.00     0.080 A 
HETATM   14  C8  UNL     1      22.358  -0.519  53.508  1.00  0.00     0.061 A 
HETATM   15  S2  UNL     1      21.537   0.546  52.349  1.00  0.00    -0.075 SA
BRANCH  14  16
HETATM   16  C7  UNL     1      23.783  -0.475  53.812  1.00  0.00    -0.058 C 
HETATM   17  C6  UNL     1      24.953  -0.425  54.076  1.00  0.00    -0.080 C 
BRANCH  17  18
HETATM   18  C5  UNL     1      26.381  -0.361  54.426  1.00  0.00     0.153 C 
HETATM   19  N1  UNL     1      26.794   0.995  54.312  1.00  0.00    -0.195 NA
HETATM   20  C2  UNL     1      28.232   0.910  54.159  1.00  0.00     0.109 C 
HETATM   21  C3  UNL     1      28.547  -0.406  53.515  1.00  0.00     0.018 C 
HETATM   22  C4  UNL     1      27.233  -1.147  53.478  1.00  0.00     0.034 C 
BRANCH  19  23
HETATM   23  S1  UNL     1      26.067   1.871  53.027  1.00  0.00     0.209 S 
HETATM   24  C1  UNL     1      25.532   0.858  51.694  1.00  0.00     0.180 C 
HETATM   25  O1  UNL     1      27.157   2.776  52.470  1.00  0.00    -0.212 OA
HETATM   26  O2  UNL     1      24.958   2.744  53.474  1.00  0.00    -0.212 OA
ENDBRANCH  19  23
ENDBRANCH  17  18
ENDBRANCH  14  16
ENDBRANCH   5   7
ENDBRANCH   4   5
ENDBRANCH   1   4
TORSDOF 6
ENDMDL
