MODEL 1
REMARK VINA RESULT:      -7.7      0.000      0.000
REMARK  7 active torsions:
REMARK  status: ('A' for Active; 'I' for Inactive)
REMARK    1  A    between atoms: C2_2  and  N1_3 
REMARK    2  A    between atoms: C3_4  and  N2_5 
REMARK    3  A    between atoms: C5_7  and  N3_8 
REMARK    4  A    between atoms: C7_12  and  C8_13 
REMARK    5  A    between atoms: C8_13  and  C9_14 
REMARK    6  A    between atoms: C9_14  and  N6_15 
REMARK    7  A    between atoms: C13_19  and  O1_20 
ROOT
HETATM    1  N1  UNL     1      26.214   6.644  48.310  1.00  0.00    -0.292 N 
HETATM    2  C3  UNL     1      25.270   5.899  48.914  1.00  0.00     0.210 A 
HETATM    3  C4  UNL     1      26.422   4.930  49.039  1.00  0.00     0.326 A 
HETATM    4  C5  UNL     1      27.799   5.017  48.616  1.00  0.00     0.360 A 
HETATM    5  N4  UNL     1      26.689   5.466  48.718  1.00  0.00     0.000 N 
HETATM    6  N5  UNL     1      27.055   4.134  49.231  1.00  0.00     0.183 N 
HETATM    7  C7  UNL     1      25.986   3.684  49.736  1.00  0.00     0.180 A 
ENDROOT
BRANCH   7   8
HETATM    8  C8  UNL     1      24.958   2.854  50.367  1.00  0.00     0.086 C 
BRANCH   8   9
HETATM    9  C9  UNL     1      25.019   2.906  51.861  1.00  0.00     0.128 C 
BRANCH   9  10
HETATM   10  N6  UNL     1      25.997   1.913  52.261  1.00  0.00    -0.385 N 
HETATM   11  C10 UNL     1      25.808   0.506  52.166  1.00  0.00     0.098 A 
HETATM   12  C11 UNL     1      26.901  -0.086  52.596  1.00  0.00    -0.010 A 
HETATM   13  C12 UNL     1      27.230  -1.493  52.707  1.00  0.00     0.050 A 
HETATM   14  C15 UNL     1      27.885   0.894  53.013  1.00  0.00    -0.028 A 
HETATM   15  C13 UNL     1      28.324  -2.074  53.144  1.00  0.00     0.070 A 
HETATM   16  P1  UNL     1      29.681  -0.988  53.716  1.00  0.00    -0.046 P 
HETATM   17  C14 UNL     1      29.093   0.728  53.503  1.00  0.00     0.020 A 
HETATM   18  H18 UNL     1      30.804  -1.188  52.811  1.00  0.00     0.068 HD
HETATM   19  C16 UNL     1      27.298   2.259  52.800  1.00  0.00     0.161 A 
BRANCH  15  20
HETATM   20  O1  UNL     1      28.510  -3.441  53.197  1.00  0.00    -0.360 OA
HETATM   21  H17 UNL     1      29.455  -3.834  53.239  1.00  0.00     0.217 HD
ENDBRANCH  15  20
ENDBRANCH   9  10
ENDBRANCH   8   9
ENDBRANCH   7   8
BRANCH   2  22
HETATM   22  N2  UNL     1      23.873   6.261  49.135  1.00  0.00    -0.399 N 
HETATM   23  H6  UNL     1      23.499   5.948  50.086  1.00  0.00     0.152 HD
HETATM   24  H7  UNL     1      23.449   6.782  48.306  1.00  0.00     0.152 HD
ENDBRANCH   2  22
BRANCH   4  25
HETATM   25  N3  UNL     1      29.024   5.026  48.278  1.00  0.00    -0.287 NA
HETATM   26  C6  UNL     1      29.978   6.003  48.117  1.00  0.00     0.174 C 
ENDBRANCH   4  25
BRANCH   1  27
HETATM   27  C2  UNL     1      25.797   7.929  47.836  1.00  0.00     0.141 C 
HETATM   28  C1  UNL     1      26.882   8.497  46.953  1.00  0.00     0.028 C 
ENDBRANCH   1  27
TORSDOF 7
ENDMDL
MODEL 2
REMARK VINA RESULT:      -7.6      4.315      6.882
REMARK  7 active torsions:
REMARK  status: ('A' for Active; 'I' for Inactive)
REMARK    1  A    between atoms: C2_2  and  N1_3 
REMARK    2  A    between atoms: C3_4  and  N2_5 
REMARK    3  A    between atoms: C5_7  and  N3_8 
REMARK    4  A    between atoms: C7_12  and  C8_13 
REMARK    5  A    between atoms: C8_13  and  C9_14 
REMARK    6  A    between atoms: C9_14  and  N6_15 
REMARK    7  A    between atoms: C13_19  and  O1_20 
ROOT
HETATM    1  N1  UNL     1      19.903   0.440  52.836  1.00  0.00    -0.292 N 
HETATM    2  C3  UNL     1      21.241   0.391  52.709  1.00  0.00     0.210 A 
HETATM    3  C4  UNL     1      21.039   1.829  52.295  1.00  0.00     0.326 A 
HETATM    4  C5  UNL     1      19.846   2.634  52.177  1.00  0.00     0.360 A 
HETATM    5  N4  UNL     1      20.411   1.604  52.430  1.00  0.00     0.000 N 
HETATM    6  N5  UNL     1      21.129   2.814  51.990  1.00  0.00     0.183 N 
HETATM    7  C7  UNL     1      22.345   2.470  51.966  1.00  0.00     0.180 A 
ENDROOT
BRANCH   7   8
HETATM    8  C8  UNL     1      23.799   2.417  51.794  1.00  0.00     0.086 C 
BRANCH   8   9
HETATM    9  C9  UNL     1      24.535   2.743  53.055  1.00  0.00     0.128 C 
BRANCH   9  10
HETATM   10  N6  UNL     1      25.618   1.783  53.152  1.00  0.00    -0.385 N 
HETATM   11  C10 UNL     1      25.500   0.397  52.853  1.00  0.00     0.098 A 
HETATM   12  C11 UNL     1      26.677  -0.162  53.029  1.00  0.00    -0.010 A 
HETATM   13  C12 UNL     1      27.101  -1.538  52.863  1.00  0.00     0.050 A 
HETATM   14  C15 UNL     1      27.651   0.818  53.465  1.00  0.00    -0.028 A 
HETATM   15  C13 UNL     1      28.279  -2.089  53.047  1.00  0.00     0.070 A 
HETATM   16  P1  UNL     1      29.638  -0.997  53.602  1.00  0.00    -0.046 P 
HETATM   17  C14 UNL     1      28.926   0.677  53.755  1.00  0.00     0.020 A 
HETATM   18  H18 UNL     1      30.627  -0.963  52.534  1.00  0.00     0.068 HD
HETATM   19  C16 UNL     1      26.961   2.147  53.561  1.00  0.00     0.161 A 
BRANCH  15  20
HETATM   20  O1  UNL     1      28.551  -3.427  52.849  1.00  0.00    -0.360 OA
HETATM   21  H17 UNL     1      29.246  -3.906  53.430  1.00  0.00     0.217 HD
ENDBRANCH  15  20
ENDBRANCH   9  10
ENDBRANCH   8   9
ENDBRANCH   7   8
BRANCH   2  22
HETATM   22  N2  UNL     1      22.108  -0.757  52.964  1.00  0.00    -0.399 N 
HETATM   23  H6  UNL     1      21.609  -1.696  52.866  1.00  0.00     0.152 HD
HETATM   24  H7  UNL     1      23.106  -0.468  53.209  1.00  0.00     0.152 HD
ENDBRANCH   2  22
BRANCH   4  25
HETATM   25  N3  UNL     1      18.841   3.403  52.057  1.00  0.00    -0.287 NA
HETATM   26  C6  UNL     1      17.667   3.358  51.345  1.00  0.00     0.174 C 
ENDBRANCH   4  25
BRANCH   1  27
HETATM   27  C2  UNL     1      19.265  -0.767  53.270  1.00  0.00     0.141 C 
HETATM   28  C1  UNL     1      17.863  -0.802  52.713  1.00  0.00     0.028 C 
ENDBRANCH   1  27
TORSDOF 7
ENDMDL
MODEL 3
REMARK VINA RESULT:      -7.4      1.675      2.186
REMARK  7 active torsions:
REMARK  status: ('A' for Active; 'I' for Inactive)
REMARK    1  A    between atoms: C2_2  and  N1_3 
REMARK    2  A    between atoms: C3_4  and  N2_5 
REMARK    3  A    between atoms: C5_7  and  N3_8 
REMARK    4  A    between atoms: C7_12  and  C8_13 
REMARK    5  A    between atoms: C8_13  and  C9_14 
REMARK    6  A    between atoms: C9_14  and  N6_15 
REMARK    7  A    between atoms: C13_19  and  O1_20 
ROOT
HETATM    1  N1  UNL     1      24.136   6.521  50.525  1.00  0.00    -0.292 N 
HETATM    2  C3  UNL     1      23.475   5.573  51.214  1.00  0.00     0.210 A 
HETATM    3  C4  UNL     1      24.471   4.677  50.516  1.00  0.00     0.326 A 
HETATM    4  C5  UNL     1      25.536   4.969  49.586  1.00  0.00     0.360 A 
HETATM    5  N4  UNL     1      24.626   5.302  50.296  1.00  0.00     0.000 N 
HETATM    6  N5  UNL     1      25.046   3.897  50.154  1.00  0.00     0.183 N 
HETATM    7  C7  UNL     1      24.259   3.252  50.905  1.00  0.00     0.180 A 
ENDROOT
BRANCH   7   8
HETATM    8  C8  UNL     1      23.526   2.210  51.627  1.00  0.00     0.086 C 
BRANCH   8   9
HETATM    9  C9  UNL     1      23.881   2.163  53.079  1.00  0.00     0.128 C 
BRANCH   9  10
HETATM   10  N6  UNL     1      25.077   1.348  53.178  1.00  0.00    -0.385 N 
HETATM   11  C10 UNL     1      25.135  -0.043  52.886  1.00  0.00     0.098 A 
HETATM   12  C11 UNL     1      26.373  -0.448  53.062  1.00  0.00    -0.010 A 
HETATM   13  C12 UNL     1      26.968  -1.761  52.901  1.00  0.00     0.050 A 
HETATM   14  C15 UNL     1      27.217   0.650  53.491  1.00  0.00    -0.028 A 
HETATM   15  C13 UNL     1      28.207  -2.157  53.085  1.00  0.00     0.070 A 
HETATM   16  P1  UNL     1      29.418  -0.899  53.632  1.00  0.00    -0.046 P 
HETATM   17  C14 UNL     1      28.499   0.673  53.778  1.00  0.00     0.020 A 
HETATM   18  H18 UNL     1      30.392  -0.745  52.561  1.00  0.00     0.068 HD
HETATM   19  C16 UNL     1      26.364   1.881  53.582  1.00  0.00     0.161 A 
BRANCH  15  20
HETATM   20  O1  UNL     1      28.645  -3.451  52.893  1.00  0.00    -0.360 OA
HETATM   21  H17 UNL     1      28.476  -4.166  53.607  1.00  0.00     0.217 HD
ENDBRANCH  15  20
ENDBRANCH   9  10
ENDBRANCH   8   9
ENDBRANCH   7   8
BRANCH   2  22
HETATM   22  N2  UNL     1      22.349   5.769  52.122  1.00  0.00    -0.399 N 
HETATM   23  H6  UNL     1      21.399   5.736  51.635  1.00  0.00     0.152 HD
HETATM   24  H7  UNL     1      22.660   5.916  53.133  1.00  0.00     0.152 HD
ENDBRANCH   2  22
BRANCH   4  25
HETATM   25  N3  UNL     1      26.493   5.151  48.769  1.00  0.00    -0.287 NA
HETATM   26  C6  UNL     1      27.396   6.163  48.545  1.00  0.00     0.174 C 
ENDBRANCH   4  25
BRANCH   1  27
HETATM   27  C2  UNL     1      23.681   7.867  50.708  1.00  0.00     0.141 C 
HETATM   28  C1  UNL     1      23.651   8.556  49.365  1.00  0.00     0.028 C 
ENDBRANCH   1  27
TORSDOF 7
ENDMDL
MODEL 4
REMARK VINA RESULT:      -7.4      4.614      7.357
REMARK  7 active torsions:
REMARK  status: ('A' for Active; 'I' for Inactive)
REMARK    1  A    between atoms: C2_2  and  N1_3 
REMARK    2  A    between atoms: C3_4  and  N2_5 
REMARK    3  A    between atoms: C5_7  and  N3_8 
REMARK    4  A    between atoms: C7_12  and  C8_13 
REMARK    5  A    between atoms: C8_13  and  C9_14 
REMARK    6  A    between atoms: C9_14  and  N6_15 
REMARK    7  A    between atoms: C13_19  and  O1_20 
ROOT
HETATM    1  N1  UNL     1      27.448   0.924  53.276  1.00  0.00    -0.292 N 
HETATM    2  C3  UNL     1      26.213   1.442  53.404  1.00  0.00     0.210 A 
HETATM    3  C4  UNL     1      25.822  -0.007  53.231  1.00  0.00     0.326 A 
HETATM    4  C5  UNL     1      26.615  -1.197  53.035  1.00  0.00     0.360 A 
HETATM    5  N4  UNL     1      26.501  -0.012  53.198  1.00  0.00     0.000 N 
HETATM    6  N5  UNL     1      25.340  -0.918  53.135  1.00  0.00     0.183 N 
HETATM    7  C7  UNL     1      24.338  -0.161  53.285  1.00  0.00     0.180 A 
ENDROOT
BRANCH   7   8
HETATM    8  C8  UNL     1      22.989   0.397  53.392  1.00  0.00     0.086 C 
BRANCH   8   9
HETATM    9  C9  UNL     1      22.385   0.691  52.055  1.00  0.00     0.128 C 
BRANCH   9  10
HETATM   10  N6  UNL     1      22.937   1.964  51.632  1.00  0.00    -0.385 N 
HETATM   11  C10 UNL     1      22.638   3.217  52.235  1.00  0.00     0.098 A 
HETATM   12  C11 UNL     1      23.328   4.148  51.614  1.00  0.00    -0.010 A 
HETATM   13  C12 UNL     1      23.389   5.579  51.832  1.00  0.00     0.050 A 
HETATM   14  C15 UNL     1      24.124   3.571  50.549  1.00  0.00    -0.028 A 
HETATM   15  C13 UNL     1      24.079   6.502  51.200  1.00  0.00     0.070 A 
HETATM   16  P1  UNL     1      25.145   5.955  49.818  1.00  0.00    -0.046 P 
HETATM   17  C14 UNL     1      24.941   4.145  49.694  1.00  0.00     0.020 A 
HETATM   18  H18 UNL     1      26.523   6.221  50.206  1.00  0.00     0.068 HD
HETATM   19  C16 UNL     1      23.877   2.091  50.535  1.00  0.00     0.161 A 
BRANCH  15  20
HETATM   20  O1  UNL     1      24.046   7.846  51.513  1.00  0.00    -0.360 OA
HETATM   21  H17 UNL     1      24.608   8.211  52.287  1.00  0.00     0.217 HD
ENDBRANCH  15  20
ENDBRANCH   9  10
ENDBRANCH   8   9
ENDBRANCH   7   8
BRANCH   2  22
HETATM   22  N2  UNL     1      25.863   2.845  53.606  1.00  0.00    -0.399 N 
HETATM   23  H6  UNL     1      26.668   3.517  53.400  1.00  0.00     0.152 HD
HETATM   24  H7  UNL     1      24.854   2.973  53.929  1.00  0.00     0.152 HD
ENDBRANCH   2  22
BRANCH   4  25
HETATM   25  N3  UNL     1      27.248  -2.286  52.866  1.00  0.00    -0.287 NA
HETATM   26  C6  UNL     1      28.563  -2.669  52.972  1.00  0.00     0.174 C 
ENDBRANCH   4  25
BRANCH   1  27
HETATM   27  C2  UNL     1      28.534   1.855  53.349  1.00  0.00     0.141 C 
HETATM   28  C1  UNL     1      29.306   1.602  54.620  1.00  0.00     0.028 C 
ENDBRANCH   1  27
TORSDOF 7
ENDMDL
MODEL 5
REMARK VINA RESULT:      -7.3      3.754      7.821
REMARK  7 active torsions:
REMARK  status: ('A' for Active; 'I' for Inactive)
REMARK    1  A    between atoms: C2_2  and  N1_3 
REMARK    2  A    between atoms: C3_4  and  N2_5 
REMARK    3  A    between atoms: C5_7  and  N3_8 
REMARK    4  A    between atoms: C7_12  and  C8_13 
REMARK    5  A    between atoms: C8_13  and  C9_14 
REMARK    6  A    between atoms: C9_14  and  N6_15 
REMARK    7  A    between atoms: C13_19  and  O1_20 
ROOT
HETATM    1  N1  UNL     1      27.500   0.570  54.298  1.00  0.00    -0.292 N 
HETATM    2  C3  UNL     1      27.128   1.606  53.525  1.00  0.00     0.210 A 
HETATM    3  C4  UNL     1      25.764   0.989  53.730  1.00  0.00     0.326 A 
HETATM    4  C5  UNL     1      25.341  -0.179  54.464  1.00  0.00     0.360 A 
HETATM    5  N4  UNL     1      26.185   0.583  54.077  1.00  0.00     0.000 N 
HETATM    6  N5  UNL     1      24.759   0.742  53.740  1.00  0.00     0.183 N 
HETATM    7  C7  UNL     1      24.717   1.781  53.020  1.00  0.00     0.180 A 
ENDROOT
BRANCH   7   8
HETATM    8  C8  UNL     1      24.306   2.888  52.153  1.00  0.00     0.086 C 
BRANCH   8   9
HETATM    9  C9  UNL     1      24.499   2.578  50.702  1.00  0.00     0.128 C 
BRANCH   9  10
HETATM   10  N6  UNL     1      25.289   3.665  50.158  1.00  0.00    -0.385 N 
HETATM   11  C10 UNL     1      26.552   3.509  49.521  1.00  0.00     0.098 A 
HETATM   12  C11 UNL     1      26.967   4.695  49.135  1.00  0.00    -0.010 A 
HETATM   13  C12 UNL     1      28.179   5.091  48.445  1.00  0.00     0.050 A 
HETATM   14  C15 UNL     1      26.007   5.719  49.499  1.00  0.00    -0.028 A 
HETATM   15  C13 UNL     1      28.587   6.282  48.068  1.00  0.00     0.070 A 
HETATM   16  P1  UNL     1      27.498   7.702  48.448  1.00  0.00    -0.046 P 
HETATM   17  C14 UNL     1      26.038   7.019  49.305  1.00  0.00     0.020 A 
HETATM   18  H18 UNL     1      27.049   8.252  47.177  1.00  0.00     0.068 HD
HETATM   19  C16 UNL     1      24.860   5.050  50.197  1.00  0.00     0.161 A 
BRANCH  15  20
HETATM   20  O1  UNL     1      29.776   6.523  47.411  1.00  0.00    -0.360 OA
HETATM   21  H17 UNL     1      30.133   5.853  46.724  1.00  0.00     0.217 HD
ENDBRANCH  15  20
ENDBRANCH   9  10
ENDBRANCH   8   9
ENDBRANCH   7   8
BRANCH   2  22
HETATM   22  N2  UNL     1      27.993   2.635  52.956  1.00  0.00    -0.399 N 
HETATM   23  H6  UNL     1      28.212   3.430  53.635  1.00  0.00     0.152 HD
HETATM   24  H7  UNL     1      28.268   2.425  51.946  1.00  0.00     0.152 HD
ENDBRANCH   2  22
BRANCH   4  25
HETATM   25  N3  UNL     1      24.896  -1.189  55.094  1.00  0.00    -0.287 NA
HETATM   26  C6  UNL     1      23.687  -1.527  55.653  1.00  0.00     0.174 C 
ENDBRANCH   4  25
BRANCH   1  27
HETATM   27  C2  UNL     1      28.898   0.472  54.592  1.00  0.00     0.141 C 
HETATM   28  C1  UNL     1      29.490  -0.648  53.772  1.00  0.00     0.028 C 
ENDBRANCH   1  27
TORSDOF 7
ENDMDL
MODEL 6
REMARK VINA RESULT:      -7.1      4.162      8.121
REMARK  7 active torsions:
REMARK  status: ('A' for Active; 'I' for Inactive)
REMARK    1  A    between atoms: C2_2  and  N1_3 
REMARK    2  A    between atoms: C3_4  and  N2_5 
REMARK    3  A    between atoms: C5_7  and  N3_8 
REMARK    4  A    between atoms: C7_12  and  C8_13 
REMARK    5  A    between atoms: C8_13  and  C9_14 
REMARK    6  A    between atoms: C9_14  and  N6_15 
REMARK    7  A    between atoms: C13_19  and  O1_20 
ROOT
HETATM    1  N1  UNL     1      25.769   0.500  52.592  1.00  0.00    -0.292 N 
HETATM    2  C3  UNL     1      25.772   1.817  52.321  1.00  0.00     0.210 A 
HETATM    3  C4  UNL     1      24.314   1.677  52.692  1.00  0.00     0.326 A 
HETATM    4  C5  UNL     1      23.537   0.534  53.109  1.00  0.00     0.360 A 
HETATM    5  N4  UNL     1      24.565   1.049  52.762  1.00  0.00     0.000 N 
HETATM    6  N5  UNL     1      23.309   1.807  52.904  1.00  0.00     0.183 N 
HETATM    7  C7  UNL     1      23.617   2.992  52.590  1.00  0.00     0.180 A 
ENDROOT
BRANCH   7   8
HETATM    8  C8  UNL     1      23.603   4.421  52.267  1.00  0.00     0.086 C 
BRANCH   8   9
HETATM    9  C9  UNL     1      23.344   4.676  50.816  1.00  0.00     0.128 C 
BRANCH   9  10
HETATM   10  N6  UNL     1      24.417   5.536  50.358  1.00  0.00    -0.385 N 
HETATM   11  C10 UNL     1      24.664   6.852  50.841  1.00  0.00     0.098 A 
HETATM   12  C11 UNL     1      25.722   7.325  50.222  1.00  0.00    -0.010 A 
HETATM   13  C12 UNL     1      26.391   8.606  50.343  1.00  0.00     0.050 A 
HETATM   14  C15 UNL     1      26.243   6.355  49.279  1.00  0.00    -0.028 A 
HETATM   15  C13 UNL     1      27.446   9.072  49.715  1.00  0.00     0.070 A 
HETATM   16  P1  UNL     1      28.239   7.979  48.480  1.00  0.00    -0.046 P 
HETATM   17  C14 UNL     1      27.273   6.430  48.466  1.00  0.00     0.020 A 
HETATM   18  H18 UNL     1      29.572   7.666  48.975  1.00  0.00     0.068 HD
HETATM   19  C16 UNL     1      25.375   5.132  49.347  1.00  0.00     0.161 A 
BRANCH  15  20
HETATM   20  O1  UNL     1      27.987  10.324  49.928  1.00  0.00    -0.360 OA
HETATM   21  H17 UNL     1      27.508  10.999  50.531  1.00  0.00     0.217 HD
ENDBRANCH  15  20
ENDBRANCH   9  10
ENDBRANCH   8   9
ENDBRANCH   7   8
BRANCH   2  22
HETATM   22  N2  UNL     1      26.909   2.624  51.887  1.00  0.00    -0.399 N 
HETATM   23  H6  UNL     1      26.977   2.727  50.826  1.00  0.00     0.152 HD
HETATM   24  H7  UNL     1      27.491   2.983  52.707  1.00  0.00     0.152 HD
ENDBRANCH   2  22
BRANCH   4  25
HETATM   25  N3  UNL     1      22.792  -0.424  53.486  1.00  0.00    -0.287 NA
HETATM   26  C6  UNL     1      22.479  -0.988  54.699  1.00  0.00     0.174 C 
ENDBRANCH   4  25
BRANCH   1  27
HETATM   27  C2  UNL     1      27.020  -0.179  52.438  1.00  0.00     0.141 C 
HETATM   28  C1  UNL     1      26.785  -1.665  52.560  1.00  0.00     0.028 C 
ENDBRANCH   1  27
TORSDOF 7
ENDMDL
MODEL 7
REMARK VINA RESULT:      -7.0      3.698      7.841
REMARK  7 active torsions:
REMARK  status: ('A' for Active; 'I' for Inactive)
REMARK    1  A    between atoms: C2_2  and  N1_3 
REMARK    2  A    between atoms: C3_4  and  N2_5 
REMARK    3  A    between atoms: C5_7  and  N3_8 
REMARK    4  A    between atoms: C7_12  and  C8_13 
REMARK    5  A    between atoms: C8_13  and  C9_14 
REMARK    6  A    between atoms: C9_14  and  N6_15 
REMARK    7  A    between atoms: C13_19  and  O1_20 
ROOT
HETATM    1  N1  UNL     1      26.127   0.402  53.896  1.00  0.00    -0.292 N 
HETATM    2  C3  UNL     1      26.114   1.596  53.277  1.00  0.00     0.210 A 
HETATM    3  C4  UNL     1      24.659   1.239  53.085  1.00  0.00     0.326 A 
HETATM    4  C5  UNL     1      23.896   0.080  53.485  1.00  0.00     0.360 A 
HETATM    5  N4  UNL     1      24.917   0.709  53.425  1.00  0.00     0.000 N 
HETATM    6  N5  UNL     1      23.652   1.198  52.849  1.00  0.00     0.183 N 
HETATM    7  C7  UNL     1      23.944   2.321  52.347  1.00  0.00     0.180 A 
ENDROOT
BRANCH   7   8
HETATM    8  C8  UNL     1      23.927   3.605  51.644  1.00  0.00     0.086 C 
BRANCH   8   9
HETATM    9  C9  UNL     1      23.866   3.442  50.158  1.00  0.00     0.128 C 
BRANCH   9  10
HETATM   10  N6  UNL     1      24.886   4.316  49.613  1.00  0.00    -0.385 N 
HETATM   11  C10 UNL     1      26.247   3.950  49.418  1.00  0.00     0.098 A 
HETATM   12  C11 UNL     1      26.878   4.975  48.889  1.00  0.00    -0.010 A 
HETATM   13  C12 UNL     1      28.264   5.129  48.496  1.00  0.00     0.050 A 
HETATM   14  C15 UNL     1      25.975   6.094  48.706  1.00  0.00    -0.028 A 
HETATM   15  C13 UNL     1      28.886   6.161  47.973  1.00  0.00     0.070 A 
HETATM   16  P1  UNL     1      27.899   7.672  47.672  1.00  0.00    -0.046 P 
HETATM   17  C14 UNL     1      26.198   7.295  48.220  1.00  0.00     0.020 A 
HETATM   18  H18 UNL     1      27.864   7.883  46.231  1.00  0.00     0.068 HD
HETATM   19  C16 UNL     1      24.617   5.678  49.192  1.00  0.00     0.161 A 
BRANCH  15  20
HETATM   20  O1  UNL     1      30.226   6.175  47.642  1.00  0.00    -0.360 OA
HETATM   21  H17 UNL     1      30.745   7.057  47.622  1.00  0.00     0.217 HD
ENDBRANCH  15  20
ENDBRANCH   9  10
ENDBRANCH   8   9
ENDBRANCH   7   8
BRANCH   2  22
HETATM   22  N2  UNL     1      27.241   2.507  53.097  1.00  0.00    -0.399 N 
HETATM   23  H6  UNL     1      27.801   2.671  53.992  1.00  0.00     0.152 HD
HETATM   24  H7  UNL     1      27.323   2.864  52.094  1.00  0.00     0.152 HD
ENDBRANCH   2  22
BRANCH   4  25
HETATM   25  N3  UNL     1      23.161  -0.905  53.810  1.00  0.00    -0.287 NA
HETATM   26  C6  UNL     1      22.366  -1.207  54.889  1.00  0.00     0.174 C 
ENDBRANCH   4  25
BRANCH   1  27
HETATM   27  C2  UNL     1      27.386  -0.015  54.437  1.00  0.00     0.141 C 
HETATM   28  C1  UNL     1      28.103  -0.855  53.407  1.00  0.00     0.028 C 
ENDBRANCH   1  27
TORSDOF 7
ENDMDL
MODEL 8
REMARK VINA RESULT:      -6.9      6.098      8.897
REMARK  7 active torsions:
REMARK  status: ('A' for Active; 'I' for Inactive)
REMARK    1  A    between atoms: C2_2  and  N1_3 
REMARK    2  A    between atoms: C3_4  and  N2_5 
REMARK    3  A    between atoms: C5_7  and  N3_8 
REMARK    4  A    between atoms: C7_12  and  C8_13 
REMARK    5  A    between atoms: C8_13  and  C9_14 
REMARK    6  A    between atoms: C9_14  and  N6_15 
REMARK    7  A    between atoms: C13_19  and  O1_20 
ROOT
HETATM    1  N1  UNL     1      26.367   0.208  54.251  1.00  0.00    -0.292 N 
HETATM    2  C3  UNL     1      25.315  -0.493  54.711  1.00  0.00     0.210 A 
HETATM    3  C4  UNL     1      24.667   0.079  53.472  1.00  0.00     0.326 A 
HETATM    4  C5  UNL     1      25.175   0.952  52.441  1.00  0.00     0.360 A 
HETATM    5  N4  UNL     1      25.300   0.327  53.459  1.00  0.00     0.000 N 
HETATM    6  N5  UNL     1      24.040   0.352  52.696  1.00  0.00     0.183 N 
HETATM    7  C7  UNL     1      23.253  -0.383  53.357  1.00  0.00     0.180 A 
ENDROOT
BRANCH   7   8
HETATM    8  C8  UNL     1      22.093  -1.118  53.867  1.00  0.00     0.086 C 
BRANCH   8   9
HETATM    9  C9  UNL     1      21.039  -0.210  54.418  1.00  0.00     0.128 C 
BRANCH   9  10
HETATM   10  N6  UNL     1      20.020  -0.103  53.393  1.00  0.00    -0.385 N 
HETATM   11  C10 UNL     1      20.075   0.788  52.286  1.00  0.00     0.098 A 
HETATM   12  C11 UNL     1      19.000   0.602  51.553  1.00  0.00    -0.010 A 
HETATM   13  C12 UNL     1      18.571   1.245  50.327  1.00  0.00     0.050 A 
HETATM   14  C15 UNL     1      18.155  -0.423  52.134  1.00  0.00    -0.028 A 
HETATM   15  C13 UNL     1      17.490   1.054  49.605  1.00  0.00     0.070 A 
HETATM   16  P1  UNL     1      16.301  -0.207  50.190  1.00  0.00    -0.046 P 
HETATM   17  C14 UNL     1      17.001  -0.903  51.727  1.00  0.00     0.020 A 
HETATM   18  H18 UNL     1      16.274  -1.269  49.195  1.00  0.00     0.068 HD
HETATM   19  C16 UNL     1      18.819  -0.916  53.386  1.00  0.00     0.161 A 
BRANCH  15  20
HETATM   20  O1  UNL     1      17.200   1.742  48.444  1.00  0.00    -0.360 OA
HETATM   21  H17 UNL     1      17.371   1.311  47.531  1.00  0.00     0.217 HD
ENDBRANCH  15  20
ENDBRANCH   9  10
ENDBRANCH   8   9
ENDBRANCH   7   8
BRANCH   2  22
HETATM   22  N2  UNL     1      25.262  -1.310  55.921  1.00  0.00    -0.399 N 
HETATM   23  H6  UNL     1      24.663  -0.883  56.695  1.00  0.00     0.152 HD
HETATM   24  H7  UNL     1      25.836  -2.206  55.834  1.00  0.00     0.152 HD
ENDBRANCH   2  22
BRANCH   4  25
HETATM   25  N3  UNL     1      25.556   1.712  51.496  1.00  0.00    -0.287 NA
HETATM   26  C6  UNL     1      26.642   2.526  51.285  1.00  0.00     0.174 C 
ENDBRANCH   4  25
BRANCH   1  27
HETATM   27  C2  UNL     1      27.563   0.140  55.037  1.00  0.00     0.141 C 
HETATM   28  C1  UNL     1      28.724   0.612  54.195  1.00  0.00     0.028 C 
ENDBRANCH   1  27
TORSDOF 7
ENDMDL
MODEL 9
REMARK VINA RESULT:      -6.7      2.817      3.453
REMARK  7 active torsions:
REMARK  status: ('A' for Active; 'I' for Inactive)
REMARK    1  A    between atoms: C2_2  and  N1_3 
REMARK    2  A    between atoms: C3_4  and  N2_5 
REMARK    3  A    between atoms: C5_7  and  N3_8 
REMARK    4  A    between atoms: C7_12  and  C8_13 
REMARK    5  A    between atoms: C8_13  and  C9_14 
REMARK    6  A    between atoms: C9_14  and  N6_15 
REMARK    7  A    between atoms: C13_19  and  O1_20 
ROOT
HETATM    1  N1  UNL     1      25.982   7.108  48.874  1.00  0.00    -0.292 N 
HETATM    2  C3  UNL     1      25.428   5.995  49.387  1.00  0.00     0.210 A 
HETATM    3  C4  UNL     1      26.747   5.398  48.955  1.00  0.00     0.326 A 
HETATM    4  C5  UNL     1      27.897   5.983  48.308  1.00  0.00     0.360 A 
HETATM    5  N4  UNL     1      26.793   6.053  48.775  1.00  0.00     0.000 N 
HETATM    6  N5  UNL     1      27.563   4.797  48.746  1.00  0.00     0.183 N 
HETATM    7  C7  UNL     1      26.801   3.945  49.289  1.00  0.00     0.180 A 
ENDROOT
BRANCH   7   8
HETATM    8  C8  UNL     1      26.194   2.722  49.817  1.00  0.00     0.086 C 
BRANCH   8   9
HETATM    9  C9  UNL     1      26.578   2.461  51.239  1.00  0.00     0.128 C 
BRANCH   9  10
HETATM   10  N6  UNL     1      25.428   1.836  51.862  1.00  0.00    -0.385 N 
HETATM   11  C10 UNL     1      25.490   0.728  52.752  1.00  0.00     0.098 A 
HETATM   12  C11 UNL     1      24.266   0.440  53.137  1.00  0.00    -0.010 A 
HETATM   13  C12 UNL     1      23.778  -0.589  54.033  1.00  0.00     0.050 A 
HETATM   14  C15 UNL     1      23.310   1.336  52.518  1.00  0.00    -0.028 A 
HETATM   15  C13 UNL     1      22.550  -0.872  54.407  1.00  0.00     0.070 A 
HETATM   16  P1  UNL     1      21.204   0.160  53.721  1.00  0.00    -0.046 P 
HETATM   17  C14 UNL     1      22.001   1.388  52.629  1.00  0.00     0.020 A 
HETATM   18  H18 UNL     1      20.604   0.881  54.834  1.00  0.00     0.068 HD
HETATM   19  C16 UNL     1      24.068   2.292  51.645  1.00  0.00     0.161 A 
BRANCH  15  20
HETATM   20  O1  UNL     1      22.219  -1.891  55.277  1.00  0.00    -0.360 OA
HETATM   21  H17 UNL     1      21.523  -2.593  55.010  1.00  0.00     0.217 HD
ENDBRANCH  15  20
ENDBRANCH   9  10
ENDBRANCH   8   9
ENDBRANCH   7   8
BRANCH   2  22
HETATM   22  N2  UNL     1      24.107   5.870  49.996  1.00  0.00    -0.399 N 
HETATM   23  H6  UNL     1      24.137   5.562  51.018  1.00  0.00     0.152 HD
HETATM   24  H7  UNL     1      23.319   6.108  49.315  1.00  0.00     0.152 HD
ENDBRANCH   2  22
BRANCH   4  25
HETATM   25  N3  UNL     1      28.946   6.431  47.746  1.00  0.00    -0.287 NA
HETATM   26  C6  UNL     1      29.514   7.674  47.604  1.00  0.00     0.174 C 
ENDBRANCH   4  25
BRANCH   1  27
HETATM   27  C2  UNL     1      25.185   8.296  48.935  1.00  0.00     0.141 C 
HETATM   28  C1  UNL     1      26.096   9.497  48.843  1.00  0.00     0.028 C 
ENDBRANCH   1  27
TORSDOF 7
ENDMDL
