MODEL 1
REMARK VINA RESULT:      -6.9      0.000      0.000
REMARK  7 active torsions:
REMARK  status: ('A' for Active; 'I' for Inactive)
REMARK    1  A    between atoms: C2_2  and  N1_3 
REMARK    2  A    between atoms: N1_3  and  C3_4 
REMARK    3  A    between atoms: N1_3  and  O1_11 
REMARK    4  A    between atoms: C3_4  and  C4_5 
REMARK    5  A    between atoms: O1_11  and  C9_12 
REMARK    6  A    between atoms: C9_12  and  N2_14 
REMARK    7  A    between atoms: N2_14  and  C10_15 
ROOT
HETATM    1  O1  UNL     1      24.254   3.104  51.175  1.00  0.00    -0.231 OA
ENDROOT
BRANCH   1   2
HETATM    2  N1  UNL     1      23.333   2.652  52.116  1.00  0.00    -0.185 NA
BRANCH   2   3
HETATM    3  C2  UNL     1      22.153   3.464  52.168  1.00  0.00     0.117 C 
HETATM    4  C1  UNL     1      22.507   4.939  52.094  1.00  0.00     0.023 C 
ENDBRANCH   2   3
BRANCH   2   5
HETATM    5  C3  UNL     1      23.040   1.282  51.713  1.00  0.00     0.155 C 
BRANCH   5   6
HETATM    6  C4  UNL     1      22.871   0.383  52.917  1.00  0.00    -0.058 A 
HETATM    7  C5  UNL     1      21.601   0.205  53.343  1.00  0.00     0.007 A 
HETATM    8  C6  UNL     1      21.477  -0.662  54.505  1.00  0.00     0.038 A 
HETATM    9  C7  UNL     1      22.726  -0.996  54.763  1.00  0.00     0.098 A 
HETATM   10  F1  UNL     1      23.331  -1.789  55.720  1.00  0.00    -0.211 F 
HETATM   11  C8  UNL     1      23.742  -0.421  53.804  1.00  0.00     0.105 A 
ENDBRANCH   5   6
ENDBRANCH   2   5
ENDBRANCH   1   2
BRANCH   1  12
HETATM   12  C9  UNL     1      25.608   2.954  51.255  1.00  0.00     0.233 C 
HETATM   13  S1  UNL     1      26.156   3.543  49.812  1.00  0.00    -0.031 SA
BRANCH  12  14
HETATM   14  N2  UNL     1      26.744   2.558  51.940  1.00  0.00    -0.326 N 
HETATM   15  H12 UNL     1      27.195   3.437  51.601  1.00  0.00     0.169 HD
BRANCH  14  16
HETATM   16  C10 UNL     1      27.495   1.687  52.740  1.00  0.00     0.034 A 
HETATM   17  C11 UNL     1      28.447   2.266  53.544  1.00  0.00     0.029 A 
HETATM   18  C12 UNL     1      29.236   1.425  54.326  1.00  0.00     0.002 A 
HETATM   19  C13 UNL     1      28.967   0.077  54.207  1.00  0.00     0.000 A 
HETATM   20  C14 UNL     1      28.005  -0.485  53.396  1.00  0.00     0.002 A 
HETATM   21  C15 UNL     1      27.239   0.348  52.633  1.00  0.00     0.029 A 
ENDBRANCH  14  16
ENDBRANCH  12  14
ENDBRANCH   1  12
TORSDOF 7
ENDMDL
MODEL 2
REMARK VINA RESULT:      -6.9      0.689      1.520
REMARK  7 active torsions:
REMARK  status: ('A' for Active; 'I' for Inactive)
REMARK    1  A    between atoms: C2_2  and  N1_3 
REMARK    2  A    between atoms: N1_3  and  C3_4 
REMARK    3  A    between atoms: N1_3  and  O1_11 
REMARK    4  A    between atoms: C3_4  and  C4_5 
REMARK    5  A    between atoms: O1_11  and  C9_12 
REMARK    6  A    between atoms: C9_12  and  N2_14 
REMARK    7  A    between atoms: N2_14  and  C10_15 
ROOT
HETATM    1  O1  UNL     1      24.323   3.349  51.212  1.00  0.00    -0.231 OA
ENDROOT
BRANCH   1   2
HETATM    2  N1  UNL     1      23.377   2.722  52.018  1.00  0.00    -0.185 NA
BRANCH   2   3
HETATM    3  C2  UNL     1      22.107   3.387  52.000  1.00  0.00     0.117 C 
HETATM    4  C1  UNL     1      22.274   4.878  52.236  1.00  0.00     0.023 C 
ENDBRANCH   2   3
BRANCH   2   5
HETATM    5  C3  UNL     1      23.294   1.364  51.497  1.00  0.00     0.155 C 
BRANCH   5   6
HETATM    6  C4  UNL     1      22.790   0.404  52.552  1.00  0.00    -0.058 A 
HETATM    7  C5  UNL     1      23.696   0.018  53.476  1.00  0.00     0.007 A 
HETATM    8  C6  UNL     1      23.178  -0.907  54.471  1.00  0.00     0.038 A 
HETATM    9  C7  UNL     1      21.921  -1.066  54.106  1.00  0.00     0.098 A 
HETATM   10  F1  UNL     1      20.861  -1.801  54.601  1.00  0.00    -0.211 F 
HETATM   11  C8  UNL     1      21.511  -0.259  52.896  1.00  0.00     0.105 A 
ENDBRANCH   5   6
ENDBRANCH   2   5
ENDBRANCH   1   2
BRANCH   1  12
HETATM   12  C9  UNL     1      25.664   3.102  51.225  1.00  0.00     0.233 C 
HETATM   13  S1  UNL     1      26.173   3.609  49.736  1.00  0.00    -0.031 SA
BRANCH  12  14
HETATM   14  N2  UNL     1      26.805   2.644  51.861  1.00  0.00    -0.326 N 
HETATM   15  H12 UNL     1      27.312   3.446  51.425  1.00  0.00     0.169 HD
BRANCH  14  16
HETATM   16  C10 UNL     1      27.527   1.761  52.675  1.00  0.00     0.034 A 
HETATM   17  C11 UNL     1      27.200   0.430  52.570  1.00  0.00     0.029 A 
HETATM   18  C12 UNL     1      27.875  -0.471  53.391  1.00  0.00     0.002 A 
HETATM   19  C13 UNL     1      28.816   0.081  54.234  1.00  0.00     0.000 A 
HETATM   20  C14 UNL     1      29.131   1.420  54.324  1.00  0.00     0.002 A 
HETATM   21  C15 UNL     1      28.463   2.295  53.516  1.00  0.00     0.029 A 
ENDBRANCH  14  16
ENDBRANCH  12  14
ENDBRANCH   1  12
TORSDOF 7
ENDMDL
MODEL 3
REMARK VINA RESULT:      -6.9      3.336      4.615
REMARK  7 active torsions:
REMARK  status: ('A' for Active; 'I' for Inactive)
REMARK    1  A    between atoms: C2_2  and  N1_3 
REMARK    2  A    between atoms: N1_3  and  C3_4 
REMARK    3  A    between atoms: N1_3  and  O1_11 
REMARK    4  A    between atoms: C3_4  and  C4_5 
REMARK    5  A    between atoms: O1_11  and  C9_12 
REMARK    6  A    between atoms: C9_12  and  N2_14 
REMARK    7  A    between atoms: N2_14  and  C10_15 
ROOT
HETATM    1  O1  UNL     1      22.165   0.512  52.963  1.00  0.00    -0.231 OA
ENDROOT
BRANCH   1   2
HETATM    2  N1  UNL     1      22.458   1.141  51.755  1.00  0.00    -0.185 NA
BRANCH   2   3
HETATM    3  C2  UNL     1      21.300   1.322  50.931  1.00  0.00     0.117 C 
HETATM    4  C1  UNL     1      21.591   0.925  49.495  1.00  0.00     0.023 C 
ENDBRANCH   2   3
BRANCH   2   5
HETATM    5  C3  UNL     1      23.063   2.410  52.141  1.00  0.00     0.155 C 
BRANCH   5   6
HETATM    6  C4  UNL     1      24.354   2.651  51.391  1.00  0.00    -0.058 A 
HETATM    7  C5  UNL     1      25.484   2.292  52.037  1.00  0.00     0.007 A 
HETATM    8  C6  UNL     1      26.705   2.542  51.287  1.00  0.00     0.038 A 
HETATM    9  C7  UNL     1      26.264   3.068  50.163  1.00  0.00     0.098 A 
HETATM   10  F1  UNL     1      26.874   3.534  49.013  1.00  0.00    -0.211 F 
HETATM   11  C8  UNL     1      24.760   3.177  50.067  1.00  0.00     0.105 A 
ENDBRANCH   5   6
ENDBRANCH   2   5
ENDBRANCH   1   2
BRANCH   1  12
HETATM   12  C9  UNL     1      23.042  -0.218  53.709  1.00  0.00     0.233 C 
HETATM   13  S1  UNL     1      22.071  -1.242  54.569  1.00  0.00    -0.031 SA
BRANCH  12  14
HETATM   14  N2  UNL     1      24.333  -0.528  54.102  1.00  0.00    -0.326 N 
HETATM   15  H12 UNL     1      23.915  -0.987  54.942  1.00  0.00     0.169 HD
BRANCH  14  16
HETATM   16  C10 UNL     1      25.728  -0.527  53.965  1.00  0.00     0.034 A 
HETATM   17  C11 UNL     1      26.432   0.172  54.915  1.00  0.00     0.029 A 
HETATM   18  C12 UNL     1      27.819   0.222  54.789  1.00  0.00     0.002 A 
HETATM   19  C13 UNL     1      28.343  -0.450  53.704  1.00  0.00     0.000 A 
HETATM   20  C14 UNL     1      27.619  -1.147  52.762  1.00  0.00     0.002 A 
HETATM   21  C15 UNL     1      26.261  -1.189  52.894  1.00  0.00     0.029 A 
ENDBRANCH  14  16
ENDBRANCH  12  14
ENDBRANCH   1  12
TORSDOF 7
ENDMDL
MODEL 4
REMARK VINA RESULT:      -6.7      3.428      5.119
REMARK  7 active torsions:
REMARK  status: ('A' for Active; 'I' for Inactive)
REMARK    1  A    between atoms: C2_2  and  N1_3 
REMARK    2  A    between atoms: N1_3  and  C3_4 
REMARK    3  A    between atoms: N1_3  and  O1_11 
REMARK    4  A    between atoms: C3_4  and  C4_5 
REMARK    5  A    between atoms: O1_11  and  C9_12 
REMARK    6  A    between atoms: C9_12  and  N2_14 
REMARK    7  A    between atoms: N2_14  and  C10_15 
ROOT
HETATM    1  O1  UNL     1      23.778   1.671  51.889  1.00  0.00    -0.231 OA
ENDROOT
BRANCH   1   2
HETATM    2  N1  UNL     1      23.806   2.357  50.678  1.00  0.00    -0.185 NA
BRANCH   2   3
HETATM    3  C2  UNL     1      22.542   2.337  50.002  1.00  0.00     0.117 C 
HETATM    4  C1  UNL     1      22.729   2.465  48.501  1.00  0.00     0.023 C 
ENDBRANCH   2   3
BRANCH   2   5
HETATM    5  C3  UNL     1      24.218   3.709  51.033  1.00  0.00     0.155 C 
BRANCH   5   6
HETATM    6  C4  UNL     1      25.367   4.175  50.166  1.00  0.00    -0.058 A 
HETATM    7  C5  UNL     1      25.298   5.453  49.736  1.00  0.00     0.007 A 
HETATM    8  C6  UNL     1      26.417   5.865  48.902  1.00  0.00     0.038 A 
HETATM    9  C7  UNL     1      27.162   4.779  48.845  1.00  0.00     0.098 A 
HETATM   10  F1  UNL     1      28.360   4.465  48.231  1.00  0.00    -0.211 F 
HETATM   11  C8  UNL     1      26.629   3.608  49.638  1.00  0.00     0.105 A 
ENDBRANCH   5   6
ENDBRANCH   2   5
ENDBRANCH   1   2
BRANCH   1  12
HETATM   12  C9  UNL     1      24.708   0.765  52.308  1.00  0.00     0.233 C 
HETATM   13  S1  UNL     1      23.870  -0.205  53.352  1.00  0.00    -0.031 SA
BRANCH  12  14
HETATM   14  N2  UNL     1      25.994   0.255  52.293  1.00  0.00    -0.326 N 
HETATM   15  H12 UNL     1      25.744  -0.218  51.397  1.00  0.00     0.169 HD
BRANCH  14  16
HETATM   16  C10 UNL     1      27.284   0.069  52.810  1.00  0.00     0.034 A 
HETATM   17  C11 UNL     1      27.968   1.207  53.164  1.00  0.00     0.029 A 
HETATM   18  C12 UNL     1      29.266   1.059  53.648  1.00  0.00     0.002 A 
HETATM   19  C13 UNL     1      29.730  -0.237  53.723  1.00  0.00     0.000 A 
HETATM   20  C14 UNL     1      29.027  -1.367  53.365  1.00  0.00     0.002 A 
HETATM   21  C15 UNL     1      27.756  -1.212  52.890  1.00  0.00     0.029 A 
ENDBRANCH  14  16
ENDBRANCH  12  14
ENDBRANCH   1  12
TORSDOF 7
ENDMDL
MODEL 5
REMARK VINA RESULT:      -6.5      2.803      5.384
REMARK  7 active torsions:
REMARK  status: ('A' for Active; 'I' for Inactive)
REMARK    1  A    between atoms: C2_2  and  N1_3 
REMARK    2  A    between atoms: N1_3  and  C3_4 
REMARK    3  A    between atoms: N1_3  and  O1_11 
REMARK    4  A    between atoms: C3_4  and  C4_5 
REMARK    5  A    between atoms: O1_11  and  C9_12 
REMARK    6  A    between atoms: C9_12  and  N2_14 
REMARK    7  A    between atoms: N2_14  and  C10_15 
ROOT
HETATM    1  O1  UNL     1      23.744   1.413  51.874  1.00  0.00    -0.231 OA
ENDROOT
BRANCH   1   2
HETATM    2  N1  UNL     1      24.627   0.759  52.729  1.00  0.00    -0.185 NA
BRANCH   2   3
HETATM    3  C2  UNL     1      24.065  -0.429  53.301  1.00  0.00     0.117 C 
HETATM    4  C1  UNL     1      22.647  -0.178  53.783  1.00  0.00     0.023 C 
ENDBRANCH   2   3
BRANCH   2   5
HETATM    5  C3  UNL     1      25.792   0.472  51.901  1.00  0.00     0.155 C 
BRANCH   5   6
HETATM    6  C4  UNL     1      27.075   0.794  52.634  1.00  0.00    -0.058 A 
HETATM    7  C5  UNL     1      27.305   2.104  52.868  1.00  0.00     0.007 A 
HETATM    8  C6  UNL     1      28.549   2.376  53.571  1.00  0.00     0.038 A 
HETATM    9  C7  UNL     1      29.061   1.174  53.749  1.00  0.00     0.098 A 
HETATM   10  F1  UNL     1      30.216   0.698  54.341  1.00  0.00    -0.211 F 
HETATM   11  C8  UNL     1      28.208   0.043  53.223  1.00  0.00     0.105 A 
ENDBRANCH   5   6
ENDBRANCH   2   5
ENDBRANCH   1   2
BRANCH   1  12
HETATM   12  C9  UNL     1      23.794   2.735  51.542  1.00  0.00     0.233 C 
HETATM   13  S1  UNL     1      22.292   3.298  51.939  1.00  0.00    -0.031 SA
BRANCH  12  14
HETATM   14  N2  UNL     1      24.473   3.834  51.045  1.00  0.00    -0.326 N 
HETATM   15  H12 UNL     1      23.886   4.422  51.677  1.00  0.00     0.169 HD
BRANCH  14  16
HETATM   16  C10 UNL     1      25.415   4.469  50.224  1.00  0.00     0.034 A 
HETATM   17  C11 UNL     1      25.209   5.806  49.983  1.00  0.00     0.029 A 
HETATM   18  C12 UNL     1      26.107   6.460  49.142  1.00  0.00     0.002 A 
HETATM   19  C13 UNL     1      27.125   5.680  48.636  1.00  0.00     0.000 A 
HETATM   20  C14 UNL     1      27.316   4.339  48.891  1.00  0.00     0.002 A 
HETATM   21  C15 UNL     1      26.430   3.707  49.715  1.00  0.00     0.029 A 
ENDBRANCH  14  16
ENDBRANCH  12  14
ENDBRANCH   1  12
TORSDOF 7
ENDMDL
MODEL 6
REMARK VINA RESULT:      -6.0      3.517      7.081
REMARK  7 active torsions:
REMARK  status: ('A' for Active; 'I' for Inactive)
REMARK    1  A    between atoms: C2_2  and  N1_3 
REMARK    2  A    between atoms: N1_3  and  C3_4 
REMARK    3  A    between atoms: N1_3  and  O1_11 
REMARK    4  A    between atoms: C3_4  and  C4_5 
REMARK    5  A    between atoms: O1_11  and  C9_12 
REMARK    6  A    between atoms: C9_12  and  N2_14 
REMARK    7  A    between atoms: N2_14  and  C10_15 
ROOT
HETATM    1  O1  UNL     1      22.539   0.868  53.597  1.00  0.00    -0.231 OA
ENDROOT
BRANCH   1   2
HETATM    2  N1  UNL     1      23.335   1.019  52.464  1.00  0.00    -0.185 NA
BRANCH   2   3
HETATM    3  C2  UNL     1      22.758   1.907  51.498  1.00  0.00     0.117 C 
HETATM    4  C1  UNL     1      23.827   2.483  50.587  1.00  0.00     0.023 C 
ENDBRANCH   2   3
BRANCH   2   5
HETATM    5  C3  UNL     1      24.607   1.514  52.974  1.00  0.00     0.155 C 
BRANCH   5   6
HETATM    6  C4  UNL     1      25.666   0.434  52.940  1.00  0.00    -0.058 A 
HETATM    7  C5  UNL     1      26.945   0.862  53.011  1.00  0.00     0.007 A 
HETATM    8  C6  UNL     1      27.934  -0.203  52.972  1.00  0.00     0.038 A 
HETATM    9  C7  UNL     1      27.198  -1.292  52.871  1.00  0.00     0.098 A 
HETATM   10  F1  UNL     1      27.483  -2.642  52.788  1.00  0.00    -0.211 F 
HETATM   11  C8  UNL     1      25.708  -1.045  52.867  1.00  0.00     0.105 A 
ENDBRANCH   5   6
ENDBRANCH   2   5
ENDBRANCH   1   2
BRANCH   1  12
HETATM   12  C9  UNL     1      21.555  -0.063  53.756  1.00  0.00     0.233 C 
HETATM   13  S1  UNL     1      22.223  -1.170  54.785  1.00  0.00    -0.031 SA
BRANCH  12  14
HETATM   14  N2  UNL     1      20.283  -0.538  53.489  1.00  0.00    -0.326 N 
HETATM   15  H12 UNL     1      20.406  -1.183  54.301  1.00  0.00     0.169 HD
BRANCH  14  16
HETATM   16  C10 UNL     1      19.081  -0.590  52.770  1.00  0.00     0.034 A 
HETATM   17  C11 UNL     1      19.044   0.119  51.594  1.00  0.00     0.029 A 
HETATM   18  C12 UNL     1      17.852   0.116  50.872  1.00  0.00     0.002 A 
HETATM   19  C13 UNL     1      16.822  -0.615  51.426  1.00  0.00     0.000 A 
HETATM   20  C14 UNL     1      16.880  -1.322  52.607  1.00  0.00     0.002 A 
HETATM   21  C15 UNL     1      18.051  -1.311  53.307  1.00  0.00     0.029 A 
ENDBRANCH  14  16
ENDBRANCH  12  14
ENDBRANCH   1  12
TORSDOF 7
ENDMDL
MODEL 7
REMARK VINA RESULT:      -5.9      3.472      5.008
REMARK  7 active torsions:
REMARK  status: ('A' for Active; 'I' for Inactive)
REMARK    1  A    between atoms: C2_2  and  N1_3 
REMARK    2  A    between atoms: N1_3  and  C3_4 
REMARK    3  A    between atoms: N1_3  and  O1_11 
REMARK    4  A    between atoms: C3_4  and  C4_5 
REMARK    5  A    between atoms: O1_11  and  C9_12 
REMARK    6  A    between atoms: C9_12  and  N2_14 
REMARK    7  A    between atoms: N2_14  and  C10_15 
ROOT
HETATM    1  O1  UNL     1      20.653  -0.040  53.109  1.00  0.00    -0.231 OA
ENDROOT
BRANCH   1   2
HETATM    2  N1  UNL     1      20.319   0.557  51.896  1.00  0.00    -0.185 NA
BRANCH   2   3
HETATM    3  C2  UNL     1      18.977   0.266  51.488  1.00  0.00     0.117 C 
HETATM    4  C1  UNL     1      18.326  -0.725  52.436  1.00  0.00     0.023 C 
ENDBRANCH   2   3
BRANCH   2   5
HETATM    5  C3  UNL     1      20.530   1.982  52.120  1.00  0.00     0.155 C 
BRANCH   5   6
HETATM    6  C4  UNL     1      21.678   2.502  51.284  1.00  0.00    -0.058 A 
HETATM    7  C5  UNL     1      22.035   3.785  51.509  1.00  0.00     0.007 A 
HETATM    8  C6  UNL     1      23.139   4.252  50.686  1.00  0.00     0.038 A 
HETATM    9  C7  UNL     1      23.432   3.196  49.953  1.00  0.00     0.098 A 
HETATM   10  F1  UNL     1      24.369   2.937  48.970  1.00  0.00    -0.211 F 
HETATM   11  C8  UNL     1      22.592   1.975  50.245  1.00  0.00     0.105 A 
ENDBRANCH   5   6
ENDBRANCH   2   5
ENDBRANCH   1   2
BRANCH   1  12
HETATM   12  C9  UNL     1      21.916  -0.164  53.610  1.00  0.00     0.233 C 
HETATM   13  S1  UNL     1      21.816  -1.478  54.608  1.00  0.00    -0.031 SA
BRANCH  12  14
HETATM   14  N2  UNL     1      23.231   0.257  53.697  1.00  0.00    -0.326 N 
HETATM   15  H12 UNL     1      23.059   0.426  54.713  1.00  0.00     0.169 HD
BRANCH  14  16
HETATM   16  C10 UNL     1      24.501   0.545  53.178  1.00  0.00     0.034 A 
HETATM   17  C11 UNL     1      25.261  -0.535  52.796  1.00  0.00     0.029 A 
HETATM   18  C12 UNL     1      26.542  -0.286  52.309  1.00  0.00     0.002 A 
HETATM   19  C13 UNL     1      26.913   1.041  52.259  1.00  0.00     0.000 A 
HETATM   20  C14 UNL     1      26.135   2.111  52.644  1.00  0.00     0.002 A 
HETATM   21  C15 UNL     1      24.882   1.856  53.122  1.00  0.00     0.029 A 
ENDBRANCH  14  16
ENDBRANCH  12  14
ENDBRANCH   1  12
TORSDOF 7
ENDMDL
MODEL 8
REMARK VINA RESULT:      -5.9      3.217      4.145
REMARK  7 active torsions:
REMARK  status: ('A' for Active; 'I' for Inactive)
REMARK    1  A    between atoms: C2_2  and  N1_3 
REMARK    2  A    between atoms: N1_3  and  C3_4 
REMARK    3  A    between atoms: N1_3  and  O1_11 
REMARK    4  A    between atoms: C3_4  and  C4_5 
REMARK    5  A    between atoms: O1_11  and  C9_12 
REMARK    6  A    between atoms: C9_12  and  N2_14 
REMARK    7  A    between atoms: N2_14  and  C10_15 
ROOT
HETATM    1  O1  UNL     1      22.427   2.254  50.449  1.00  0.00    -0.231 OA
ENDROOT
BRANCH   1   2
HETATM    2  N1  UNL     1      21.984   2.264  51.769  1.00  0.00    -0.185 NA
BRANCH   2   3
HETATM    3  C2  UNL     1      21.189   3.416  52.077  1.00  0.00     0.117 C 
HETATM    4  C1  UNL     1      19.710   3.070  52.071  1.00  0.00     0.023 C 
ENDBRANCH   2   3
BRANCH   2   5
HETATM    5  C3  UNL     1      21.232   1.023  51.911  1.00  0.00     0.155 C 
BRANCH   5   6
HETATM    6  C4  UNL     1      21.793   0.170  53.027  1.00  0.00    -0.058 A 
HETATM    7  C5  UNL     1      20.908  -0.634  53.655  1.00  0.00     0.007 A 
HETATM    8  C6  UNL     1      21.482  -1.436  54.724  1.00  0.00     0.038 A 
HETATM    9  C7  UNL     1      22.751  -1.080  54.716  1.00  0.00     0.098 A 
HETATM   10  F1  UNL     1      23.857  -1.445  55.460  1.00  0.00    -0.211 F 
HETATM   11  C8  UNL     1      23.114  -0.069  53.654  1.00  0.00     0.105 A 
ENDBRANCH   5   6
ENDBRANCH   2   5
ENDBRANCH   1   2
BRANCH   1  12
HETATM   12  C9  UNL     1      23.307   3.141  49.902  1.00  0.00     0.233 C 
HETATM   13  S1  UNL     1      22.666   3.463  48.413  1.00  0.00    -0.031 SA
BRANCH  12  14
HETATM   14  N2  UNL     1      24.461   3.902  49.972  1.00  0.00    -0.326 N 
HETATM   15  H12 UNL     1      24.403   3.805  51.011  1.00  0.00     0.169 HD
BRANCH  14  16
HETATM   16  C10 UNL     1      25.516   4.646  49.428  1.00  0.00     0.034 A 
HETATM   17  C11 UNL     1      25.230   5.944  49.078  1.00  0.00     0.029 A 
HETATM   18  C12 UNL     1      26.248   6.700  48.502  1.00  0.00     0.002 A 
HETATM   19  C13 UNL     1      27.456   6.052  48.346  1.00  0.00     0.000 A 
HETATM   20  C14 UNL     1      27.724   4.750  48.705  1.00  0.00     0.002 A 
HETATM   21  C15 UNL     1      26.719   4.016  49.268  1.00  0.00     0.029 A 
ENDBRANCH  14  16
ENDBRANCH  12  14
ENDBRANCH   1  12
TORSDOF 7
ENDMDL
MODEL 9
REMARK VINA RESULT:      -5.8      4.065      5.584
REMARK  7 active torsions:
REMARK  status: ('A' for Active; 'I' for Inactive)
REMARK    1  A    between atoms: C2_2  and  N1_3 
REMARK    2  A    between atoms: N1_3  and  C3_4 
REMARK    3  A    between atoms: N1_3  and  O1_11 
REMARK    4  A    between atoms: C3_4  and  C4_5 
REMARK    5  A    between atoms: O1_11  and  C9_12 
REMARK    6  A    between atoms: C9_12  and  N2_14 
REMARK    7  A    between atoms: N2_14  and  C10_15 
ROOT
HETATM    1  O1  UNL     1      19.823  -0.112  53.220  1.00  0.00    -0.231 OA
ENDROOT
BRANCH   1   2
HETATM    2  N1  UNL     1      19.245  -0.090  51.953  1.00  0.00    -0.185 NA
BRANCH   2   3
HETATM    3  C2  UNL     1      17.905  -0.601  51.948  1.00  0.00     0.117 C 
HETATM    4  C1  UNL     1      17.639  -1.434  53.189  1.00  0.00     0.023 C 
ENDBRANCH   2   3
BRANCH   2   5
HETATM    5  C3  UNL     1      19.302   1.309  51.549  1.00  0.00     0.155 C 
BRANCH   5   6
HETATM    6  C4  UNL     1      20.094   1.476  50.272  1.00  0.00    -0.058 A 
HETATM    7  C5  UNL     1      19.578   2.338  49.369  1.00  0.00     0.007 A 
HETATM    8  C6  UNL     1      20.364   2.470  48.152  1.00  0.00     0.038 A 
HETATM    9  C7  UNL     1      21.375   1.650  48.359  1.00  0.00     0.098 A 
HETATM   10  F1  UNL     1      22.487   1.288  47.622  1.00  0.00    -0.211 F 
HETATM   11  C8  UNL     1      21.357   0.954  49.700  1.00  0.00     0.105 A 
ENDBRANCH   5   6
ENDBRANCH   2   5
ENDBRANCH   1   2
BRANCH   1  12
HETATM   12  C9  UNL     1      21.161  -0.090  53.481  1.00  0.00     0.233 C 
HETATM   13  S1  UNL     1      21.403  -1.435  54.410  1.00  0.00    -0.031 SA
BRANCH  12  14
HETATM   14  N2  UNL     1      22.410   0.492  53.354  1.00  0.00    -0.326 N 
HETATM   15  H12 UNL     1      22.009   1.338  53.816  1.00  0.00     0.169 HD
BRANCH  14  16
HETATM   16  C10 UNL     1      23.755   0.520  52.961  1.00  0.00     0.034 A 
HETATM   17  C11 UNL     1      24.161   1.627  52.256  1.00  0.00     0.029 A 
HETATM   18  C12 UNL     1      25.484   1.670  51.820  1.00  0.00     0.002 A 
HETATM   19  C13 UNL     1      26.256   0.577  52.152  1.00  0.00     0.000 A 
HETATM   20  C14 UNL     1      25.831  -0.525  52.862  1.00  0.00     0.002 A 
HETATM   21  C15 UNL     1      24.533  -0.558  53.284  1.00  0.00     0.029 A 
ENDBRANCH  14  16
ENDBRANCH  12  14
ENDBRANCH   1  12
TORSDOF 7
ENDMDL
