MODEL 1
REMARK VINA RESULT:      -8.9      0.000      0.000
REMARK  4 active torsions:
REMARK  status: ('A' for Active; 'I' for Inactive)
REMARK    1  A    between atoms: C4_5  and  O1_6 
REMARK    2  A    between atoms: O1_6  and  C5_7 
REMARK    3  A    between atoms: C11_15  and  N4_16 
REMARK    4  A    between atoms: N4_16  and  C12_17 
ROOT
HETATM    1  C5  UNL     1      22.942   1.055  51.462  1.00  0.00     0.085 A 
HETATM    2  C6  UNL     1      22.012   1.350  50.496  1.00  0.00     0.038 A 
HETATM    3  C7  UNL     1      20.689   0.981  50.496  1.00  0.00     0.005 A 
HETATM    4  C8  UNL     1      20.208   0.226  51.570  1.00  0.00     0.033 A 
HETATM    5  C9  UNL     1      21.088  -0.104  52.567  1.00  0.00     0.075 A 
HETATM    6  N2  UNL     1      20.660  -0.803  53.607  1.00  0.00    -0.241 NA
HETATM    7  C10 UNL     1      21.404  -1.173  54.641  1.00  0.00     0.236 A 
HETATM    8  N3  UNL     1      22.672  -0.803  54.601  1.00  0.00    -0.223 NA
HETATM    9  C11 UNL     1      23.226  -0.077  53.574  1.00  0.00     0.144 A 
HETATM   10  C18 UNL     1      22.401   0.300  52.496  1.00  0.00     0.072 A 
ENDROOT
BRANCH   9  11
HETATM   11  N4  UNL     1      24.587   0.213  53.599  1.00  0.00    -0.340 N 
HETATM   12  H13 UNL     1      24.443   0.697  52.648  1.00  0.00     0.167 HD
BRANCH  11  13
HETATM   13  C12 UNL     1      25.944   0.500  53.629  1.00  0.00     0.035 A 
HETATM   14  C13 UNL     1      26.669   1.681  53.784  1.00  0.00     0.032 A 
HETATM   15  C14 UNL     1      28.033   1.689  53.728  1.00  0.00     0.046 A 
HETATM   16  C15 UNL     1      28.655   0.497  53.514  1.00  0.00     0.138 A 
HETATM   17  F1  UNL     1      29.996   0.641  53.480  1.00  0.00    -0.204 F 
HETATM   18  C16 UNL     1      28.010  -0.691  53.356  1.00  0.00     0.074 A 
HETATM   19 CL1  UNL     1      29.085  -2.055  53.104  1.00  0.00    -0.081 Cl
HETATM   20  C17 UNL     1      26.619  -0.697  53.414  1.00  0.00     0.056 A 
ENDBRANCH  11  13
ENDBRANCH   9  11
BRANCH   1  21
HETATM   21  O1  UNL     1      24.274   1.456  51.442  1.00  0.00    -0.345 OA
BRANCH  21  22
HETATM   22  C4  UNL     1      24.609   2.685  50.880  1.00  0.00     0.132 C 
HETATM   23  C3  UNL     1      26.042   2.918  50.532  1.00  0.00     0.062 C 
HETATM   24  C2  UNL     1      26.092   4.086  49.539  1.00  0.00     0.274 C 
HETATM   25  N1  UNL     1      24.820   4.743  49.595  1.00  0.00     0.084 N 
HETATM   26  C1  UNL     1      24.650   5.834  48.680  1.00  0.00     0.309 C 
HETATM   27  C20 UNL     1      24.425   5.107  50.935  1.00  0.00     0.274 C 
HETATM   28  C19 UNL     1      24.232   3.865  51.804  1.00  0.00     0.062 C 
ENDBRANCH  21  22
ENDBRANCH   1  21
TORSDOF 4
ENDMDL
MODEL 2
REMARK VINA RESULT:      -8.3      3.233      6.303
REMARK  4 active torsions:
REMARK  status: ('A' for Active; 'I' for Inactive)
REMARK    1  A    between atoms: C4_5  and  O1_6 
REMARK    2  A    between atoms: O1_6  and  C5_7 
REMARK    3  A    between atoms: C11_15  and  N4_16 
REMARK    4  A    between atoms: N4_16  and  C12_17 
ROOT
HETATM    1  C5  UNL     1      25.247   2.435  51.129  1.00  0.00     0.085 A 
HETATM    2  C6  UNL     1      26.440   2.689  50.498  1.00  0.00     0.038 A 
HETATM    3  C7  UNL     1      26.740   3.787  49.731  1.00  0.00     0.005 A 
HETATM    4  C8  UNL     1      25.756   4.764  49.550  1.00  0.00     0.033 A 
HETATM    5  C9  UNL     1      24.542   4.569  50.152  1.00  0.00     0.075 A 
HETATM    6  N2  UNL     1      23.594   5.484  50.016  1.00  0.00    -0.241 NA
HETATM    7  C10 UNL     1      22.384   5.422  50.557  1.00  0.00     0.236 A 
HETATM    8  N3  UNL     1      22.132   4.347  51.284  1.00  0.00    -0.223 NA
HETATM    9  C11 UNL     1      23.037   3.335  51.494  1.00  0.00     0.144 A 
HETATM   10  C18 UNL     1      24.312   3.440  50.906  1.00  0.00     0.072 A 
ENDROOT
BRANCH   9  11
HETATM   11  N4  UNL     1      22.653   2.217  52.229  1.00  0.00    -0.340 N 
HETATM   12  H13 UNL     1      23.427   1.679  51.707  1.00  0.00     0.167 HD
BRANCH  11  13
HETATM   13  C12 UNL     1      22.267   1.106  52.963  1.00  0.00     0.035 A 
HETATM   14  C13 UNL     1      22.928   0.284  53.875  1.00  0.00     0.032 A 
HETATM   15  C14 UNL     1      22.312  -0.798  54.434  1.00  0.00     0.046 A 
HETATM   16  C15 UNL     1      21.025  -1.042  54.062  1.00  0.00     0.138 A 
HETATM   17  F1  UNL     1      20.533  -2.136  54.682  1.00  0.00    -0.204 F 
HETATM   18  C16 UNL     1      20.320  -0.282  53.180  1.00  0.00     0.074 A 
HETATM   19 CL1  UNL     1      18.680  -0.845  52.908  1.00  0.00    -0.081 Cl
HETATM   20  C17 UNL     1      20.951   0.822  52.612  1.00  0.00     0.056 A 
ENDBRANCH  11  13
ENDBRANCH   9  11
BRANCH   1  21
HETATM   21  O1  UNL     1      24.975   1.319  51.913  1.00  0.00    -0.345 OA
BRANCH  21  22
HETATM   22  C4  UNL     1      26.025   0.650  52.535  1.00  0.00     0.132 C 
HETATM   23  C3  UNL     1      25.924  -0.835  52.655  1.00  0.00     0.062 C 
HETATM   24  C2  UNL     1      27.335  -1.373  52.925  1.00  0.00     0.274 C 
HETATM   25  N1  UNL     1      28.144  -0.259  53.321  1.00  0.00     0.084 N 
HETATM   26  C1  UNL     1      29.527  -0.555  53.558  1.00  0.00     0.309 C 
HETATM   27  C20 UNL     1      27.572   0.504  54.404  1.00  0.00     0.274 C 
HETATM   28  C19 UNL     1      26.250   1.145  53.982  1.00  0.00     0.062 C 
ENDBRANCH  21  22
ENDBRANCH   1  21
TORSDOF 4
ENDMDL
MODEL 3
REMARK VINA RESULT:      -8.3      3.009      5.355
REMARK  4 active torsions:
REMARK  status: ('A' for Active; 'I' for Inactive)
REMARK    1  A    between atoms: C4_5  and  O1_6 
REMARK    2  A    between atoms: O1_6  and  C5_7 
REMARK    3  A    between atoms: C11_15  and  N4_16 
REMARK    4  A    between atoms: N4_16  and  C12_17 
ROOT
HETATM    1  C5  UNL     1      23.364   0.550  53.016  1.00  0.00     0.085 A 
HETATM    2  C6  UNL     1      23.522  -0.431  53.964  1.00  0.00     0.038 A 
HETATM    3  C7  UNL     1      22.524  -1.177  54.541  1.00  0.00     0.005 A 
HETATM    4  C8  UNL     1      21.203  -0.940  54.149  1.00  0.00     0.033 A 
HETATM    5  C9  UNL     1      20.978   0.028  53.206  1.00  0.00     0.075 A 
HETATM    6  N2  UNL     1      19.740   0.265  52.800  1.00  0.00    -0.241 NA
HETATM    7  C10 UNL     1      19.391   1.162  51.887  1.00  0.00     0.236 A 
HETATM    8  N3  UNL     1      20.379   1.863  51.359  1.00  0.00    -0.223 NA
HETATM    9  C11 UNL     1      21.700   1.704  51.704  1.00  0.00     0.144 A 
HETATM   10  C18 UNL     1      22.030   0.738  52.674  1.00  0.00     0.072 A 
ENDROOT
BRANCH   9  11
HETATM   11  N4  UNL     1      22.660   2.534  51.132  1.00  0.00    -0.340 N 
HETATM   12  H13 UNL     1      22.626   1.886  50.273  1.00  0.00     0.167 HD
BRANCH  11  13
HETATM   13  C12 UNL     1      23.616   3.364  50.566  1.00  0.00     0.035 A 
HETATM   14  C13 UNL     1      24.684   3.142  49.699  1.00  0.00     0.032 A 
HETATM   15  C14 UNL     1      25.519   4.156  49.324  1.00  0.00     0.046 A 
HETATM   16  C15 UNL     1      25.264   5.392  49.835  1.00  0.00     0.138 A 
HETATM   17  F1  UNL     1      26.158   6.301  49.391  1.00  0.00    -0.204 F 
HETATM   18  C16 UNL     1      24.240   5.680  50.684  1.00  0.00     0.074 A 
HETATM   19 CL1  UNL     1      24.166   7.367  51.163  1.00  0.00    -0.081 Cl
HETATM   20  C17 UNL     1      23.390   4.644  51.064  1.00  0.00     0.056 A 
ENDBRANCH  11  13
ENDBRANCH   9  11
BRANCH   1  21
HETATM   21  O1  UNL     1      24.397   1.281  52.438  1.00  0.00    -0.345 OA
BRANCH  21  22
HETATM   22  C4  UNL     1      25.707   1.054  52.850  1.00  0.00     0.132 C 
HETATM   23  C3  UNL     1      26.685   2.172  52.693  1.00  0.00     0.062 C 
HETATM   24  C2  UNL     1      27.879   1.872  53.608  1.00  0.00     0.274 C 
HETATM   25  N1  UNL     1      27.790   0.492  53.981  1.00  0.00     0.084 N 
HETATM   26  C1  UNL     1      28.796   0.035  54.895  1.00  0.00     0.309 C 
HETATM   27  C20 UNL     1      27.657  -0.397  52.851  1.00  0.00     0.274 C 
HETATM   28  C19 UNL     1      26.350  -0.136  52.102  1.00  0.00     0.062 C 
ENDBRANCH  21  22
ENDBRANCH   1  21
TORSDOF 4
ENDMDL
MODEL 4
REMARK VINA RESULT:      -7.9      3.710      5.780
REMARK  4 active torsions:
REMARK  status: ('A' for Active; 'I' for Inactive)
REMARK    1  A    between atoms: C4_5  and  O1_6 
REMARK    2  A    between atoms: O1_6  and  C5_7 
REMARK    3  A    between atoms: C11_15  and  N4_16 
REMARK    4  A    between atoms: N4_16  and  C12_17 
ROOT
HETATM    1  C5  UNL     1      24.511   0.917  52.247  1.00  0.00     0.085 A 
HETATM    2  C6  UNL     1      25.854   0.949  51.961  1.00  0.00     0.038 A 
HETATM    3  C7  UNL     1      26.850   0.297  52.646  1.00  0.00     0.005 A 
HETATM    4  C8  UNL     1      26.499  -0.484  53.750  1.00  0.00     0.033 A 
HETATM    5  C9  UNL     1      25.173  -0.557  54.089  1.00  0.00     0.075 A 
HETATM    6  N2  UNL     1      24.805  -1.303  55.119  1.00  0.00    -0.241 NA
HETATM    7  C10 UNL     1      23.558  -1.467  55.540  1.00  0.00     0.236 A 
HETATM    8  N3  UNL     1      22.629  -0.820  54.859  1.00  0.00    -0.223 NA
HETATM    9  C11 UNL     1      22.893  -0.018  53.775  1.00  0.00     0.144 A 
HETATM   10  C18 UNL     1      24.231   0.128  53.356  1.00  0.00     0.072 A 
ENDROOT
BRANCH   9  11
HETATM   11  N4  UNL     1      21.849   0.668  53.161  1.00  0.00    -0.340 N 
HETATM   12  H13 UNL     1      21.278   0.482  54.054  1.00  0.00     0.167 HD
BRANCH  11  13
HETATM   13  C12 UNL     1      20.812   1.353  52.545  1.00  0.00     0.035 A 
HETATM   14  C13 UNL     1      20.460   2.700  52.481  1.00  0.00     0.032 A 
HETATM   15  C14 UNL     1      19.334   3.110  51.826  1.00  0.00     0.046 A 
HETATM   16  C15 UNL     1      18.569   2.147  51.241  1.00  0.00     0.138 A 
HETATM   17  F1  UNL     1      17.489   2.681  50.632  1.00  0.00    -0.204 F 
HETATM   18  C16 UNL     1      18.854   0.817  51.264  1.00  0.00     0.074 A 
HETATM   19 CL1  UNL     1      17.682  -0.175  50.414  1.00  0.00    -0.081 Cl
HETATM   20  C17 UNL     1      20.003   0.401  51.932  1.00  0.00     0.056 A 
ENDBRANCH  11  13
ENDBRANCH   9  11
BRANCH   1  21
HETATM   21  O1  UNL     1      23.521   1.577  51.526  1.00  0.00    -0.345 OA
BRANCH  21  22
HETATM   22  C4  UNL     1      23.827   2.775  50.886  1.00  0.00     0.132 C 
HETATM   23  C3  UNL     1      23.578   4.042  51.635  1.00  0.00     0.062 C 
HETATM   24  C2  UNL     1      24.394   5.149  50.955  1.00  0.00     0.274 C 
HETATM   25  N1  UNL     1      24.790   4.653  49.671  1.00  0.00     0.084 N 
HETATM   26  C1  UNL     1      25.624   5.531  48.903  1.00  0.00     0.309 C 
HETATM   27  C20 UNL     1      23.685   4.152  48.888  1.00  0.00     0.274 C 
HETATM   28  C19 UNL     1      23.043   2.940  49.564  1.00  0.00     0.062 C 
ENDBRANCH  21  22
ENDBRANCH   1  21
TORSDOF 4
ENDMDL
MODEL 5
REMARK VINA RESULT:      -7.8      3.346      5.927
REMARK  4 active torsions:
REMARK  status: ('A' for Active; 'I' for Inactive)
REMARK    1  A    between atoms: C4_5  and  O1_6 
REMARK    2  A    between atoms: O1_6  and  C5_7 
REMARK    3  A    between atoms: C11_15  and  N4_16 
REMARK    4  A    between atoms: N4_16  and  C12_17 
ROOT
HETATM    1  C5  UNL     1      22.331   0.800  53.267  1.00  0.00     0.085 A 
HETATM    2  C6  UNL     1      21.506   0.116  54.126  1.00  0.00     0.038 A 
HETATM    3  C7  UNL     1      21.874  -0.893  54.982  1.00  0.00     0.005 A 
HETATM    4  C8  UNL     1      23.214  -1.292  55.005  1.00  0.00     0.033 A 
HETATM    5  C9  UNL     1      24.089  -0.649  54.169  1.00  0.00     0.075 A 
HETATM    6  N2  UNL     1      25.368  -0.991  54.180  1.00  0.00    -0.241 NA
HETATM    7  C10 UNL     1      26.315  -0.439  53.432  1.00  0.00     0.236 A 
HETATM    8  N3  UNL     1      25.920   0.525  52.618  1.00  0.00    -0.223 NA
HETATM    9  C11 UNL     1      24.620   0.961  52.522  1.00  0.00     0.144 A 
HETATM   10  C18 UNL     1      23.645   0.353  53.336  1.00  0.00     0.072 A 
ENDROOT
BRANCH   9  11
HETATM   11  N4  UNL     1      24.297   1.944  51.591  1.00  0.00    -0.340 N 
HETATM   12  H13 UNL     1      23.608   1.234  51.167  1.00  0.00     0.167 HD
BRANCH  11  13
HETATM   13  C12 UNL     1      23.977   2.926  50.666  1.00  0.00     0.035 A 
HETATM   14  C13 UNL     1      23.470   2.890  49.368  1.00  0.00     0.032 A 
HETATM   15  C14 UNL     1      23.286   4.033  48.645  1.00  0.00     0.046 A 
HETATM   16  C15 UNL     1      23.621   5.209  49.244  1.00  0.00     0.138 A 
HETATM   17  F1  UNL     1      23.394   6.259  48.426  1.00  0.00    -0.204 F 
HETATM   18  C16 UNL     1      24.119   5.317  50.505  1.00  0.00     0.074 A 
HETATM   19 CL1  UNL     1      24.447   6.969  51.001  1.00  0.00    -0.081 Cl
HETATM   20  C17 UNL     1      24.305   4.150  51.242  1.00  0.00     0.056 A 
ENDBRANCH  11  13
ENDBRANCH   9  11
BRANCH   1  21
HETATM   21  O1  UNL     1      21.932   1.830  52.421  1.00  0.00    -0.345 OA
BRANCH  21  22
HETATM   22  C4  UNL     1      20.640   1.824  51.901  1.00  0.00     0.132 C 
HETATM   23  C3  UNL     1      20.427   1.148  50.587  1.00  0.00     0.062 C 
HETATM   24  C2  UNL     1      18.925   0.864  50.453  1.00  0.00     0.274 C 
HETATM   25  N1  UNL     1      18.255   1.659  51.439  1.00  0.00     0.084 N 
HETATM   26  C1  UNL     1      16.834   1.479  51.511  1.00  0.00     0.309 C 
HETATM   27  C20 UNL     1      18.611   3.056  51.382  1.00  0.00     0.274 C 
HETATM   28  C19 UNL     1      20.093   3.256  51.700  1.00  0.00     0.062 C 
ENDBRANCH  21  22
ENDBRANCH   1  21
TORSDOF 4
ENDMDL
MODEL 6
REMARK VINA RESULT:      -7.8      3.532      5.729
REMARK  4 active torsions:
REMARK  status: ('A' for Active; 'I' for Inactive)
REMARK    1  A    between atoms: C4_5  and  O1_6 
REMARK    2  A    between atoms: O1_6  and  C5_7 
REMARK    3  A    between atoms: C11_15  and  N4_16 
REMARK    4  A    between atoms: N4_16  and  C12_17 
ROOT
HETATM    1  C5  UNL     1      25.453   1.595  52.240  1.00  0.00     0.085 A 
HETATM    2  C6  UNL     1      26.748   2.019  52.410  1.00  0.00     0.038 A 
HETATM    3  C7  UNL     1      27.616   1.614  53.394  1.00  0.00     0.005 A 
HETATM    4  C8  UNL     1      27.171   0.681  54.334  1.00  0.00     0.033 A 
HETATM    5  C9  UNL     1      25.886   0.219  54.220  1.00  0.00     0.075 A 
HETATM    6  N2  UNL     1      25.439  -0.679  55.085  1.00  0.00    -0.241 NA
HETATM    7  C10 UNL     1      24.225  -1.214  55.075  1.00  0.00     0.236 A 
HETATM    8  N3  UNL     1      23.417  -0.796  54.117  1.00  0.00    -0.223 NA
HETATM    9  C11 UNL     1      23.772   0.132  53.167  1.00  0.00     0.144 A 
HETATM   10  C18 UNL     1      25.072   0.673  53.208  1.00  0.00     0.072 A 
ENDROOT
BRANCH   9  11
HETATM   11  N4  UNL     1      22.828   0.550  52.234  1.00  0.00    -0.340 N 
HETATM   12  H13 UNL     1      23.353  -0.056  51.515  1.00  0.00     0.167 HD
BRANCH  11  13
HETATM   13  C12 UNL     1      21.884   0.969  51.308  1.00  0.00     0.035 A 
HETATM   14  C13 UNL     1      21.681   0.693  49.956  1.00  0.00     0.032 A 
HETATM   15  C14 UNL     1      20.675   1.291  49.252  1.00  0.00     0.046 A 
HETATM   16  C15 UNL     1      19.879   2.167  49.926  1.00  0.00     0.138 A 
HETATM   17  F1  UNL     1      18.929   2.687  49.121  1.00  0.00    -0.204 F 
HETATM   18  C16 UNL     1      20.020   2.480  51.243  1.00  0.00     0.074 A 
HETATM   19 CL1  UNL     1      18.837   3.637  51.828  1.00  0.00    -0.081 Cl
HETATM   20  C17 UNL     1      21.046   1.869  51.959  1.00  0.00     0.056 A 
ENDBRANCH  11  13
ENDBRANCH   9  11
BRANCH   1  21
HETATM   21  O1  UNL     1      24.599   2.012  51.223  1.00  0.00    -0.345 OA
BRANCH  21  22
HETATM   22  C4  UNL     1      24.589   3.352  50.847  1.00  0.00     0.132 C 
HETATM   23  C3  UNL     1      23.656   4.266  51.570  1.00  0.00     0.062 C 
HETATM   24  C2  UNL     1      24.139   5.702  51.331  1.00  0.00     0.274 C 
HETATM   25  N1  UNL     1      25.058   5.662  50.233  1.00  0.00     0.084 N 
HETATM   26  C1  UNL     1      25.672   6.913  49.897  1.00  0.00     0.309 C 
HETATM   27  C20 UNL     1      24.522   5.003  49.065  1.00  0.00     0.274 C 
HETATM   28  C19 UNL     1      24.234   3.530  49.353  1.00  0.00     0.062 C 
ENDBRANCH  21  22
ENDBRANCH   1  21
TORSDOF 4
ENDMDL
MODEL 7
REMARK VINA RESULT:      -7.4      2.393      5.567
REMARK  4 active torsions:
REMARK  status: ('A' for Active; 'I' for Inactive)
REMARK    1  A    between atoms: C4_5  and  O1_6 
REMARK    2  A    between atoms: O1_6  and  C5_7 
REMARK    3  A    between atoms: C11_15  and  N4_16 
REMARK    4  A    between atoms: N4_16  and  C12_17 
ROOT
HETATM    1  C5  UNL     1      23.967   4.636  50.442  1.00  0.00     0.085 A 
HETATM    2  C6  UNL     1      23.002   5.492  49.972  1.00  0.00     0.038 A 
HETATM    3  C7  UNL     1      23.162   6.445  48.996  1.00  0.00     0.005 A 
HETATM    4  C8  UNL     1      24.419   6.587  48.401  1.00  0.00     0.033 A 
HETATM    5  C9  UNL     1      25.426   5.761  48.827  1.00  0.00     0.075 A 
HETATM    6  N2  UNL     1      26.625   5.857  48.272  1.00  0.00    -0.241 NA
HETATM    7  C10 UNL     1      27.676   5.112  48.584  1.00  0.00     0.236 A 
HETATM    8  N3  UNL     1      27.484   4.210  49.531  1.00  0.00    -0.223 NA
HETATM    9  C11 UNL     1      26.286   4.021  50.177  1.00  0.00     0.144 A 
HETATM   10  C18 UNL     1      25.192   4.831  49.814  1.00  0.00     0.072 A 
ENDROOT
BRANCH   9  11
HETATM   11  N4  UNL     1      26.202   3.084  51.202  1.00  0.00    -0.340 N 
HETATM   12  H13 UNL     1      26.712   2.402  50.543  1.00  0.00     0.167 HD
BRANCH  11  13
HETATM   13  C12 UNL     1      26.117   2.153  52.227  1.00  0.00     0.035 A 
HETATM   14  C13 UNL     1      25.868   2.256  53.595  1.00  0.00     0.032 A 
HETATM   15  C14 UNL     1      25.885   1.157  54.405  1.00  0.00     0.046 A 
HETATM   16  C15 UNL     1      26.158  -0.042  53.821  1.00  0.00     0.138 A 
HETATM   17  F1  UNL     1      26.147  -1.043  54.727  1.00  0.00    -0.204 F 
HETATM   18  C16 UNL     1      26.409  -0.215  52.495  1.00  0.00     0.074 A 
HETATM   19 CL1  UNL     1      26.719  -1.882  52.041  1.00  0.00    -0.081 Cl
HETATM   20  C17 UNL     1      26.390   0.907  51.670  1.00  0.00     0.056 A 
ENDBRANCH  11  13
ENDBRANCH   9  11
BRANCH   1  21
HETATM   21  O1  UNL     1      23.772   3.669  51.424  1.00  0.00    -0.345 OA
BRANCH  21  22
HETATM   22  C4  UNL     1      22.640   2.861  51.371  1.00  0.00     0.132 C 
HETATM   23  C3  UNL     1      22.171   2.245  52.648  1.00  0.00     0.062 C 
HETATM   24  C2  UNL     1      20.713   1.814  52.443  1.00  0.00     0.274 C 
HETATM   25  N1  UNL     1      20.463   1.823  51.033  1.00  0.00     0.084 N 
HETATM   26  C1  UNL     1      19.120   1.505  50.643  1.00  0.00     0.309 C 
HETATM   27  C20 UNL     1      21.429   1.060  50.278  1.00  0.00     0.274 C 
HETATM   28  C19 UNL     1      22.825   1.669  50.405  1.00  0.00     0.062 C 
ENDBRANCH  21  22
ENDBRANCH   1  21
TORSDOF 4
ENDMDL
MODEL 8
REMARK VINA RESULT:      -7.2      4.006      6.298
REMARK  4 active torsions:
REMARK  status: ('A' for Active; 'I' for Inactive)
REMARK    1  A    between atoms: C4_5  and  O1_6 
REMARK    2  A    between atoms: O1_6  and  C5_7 
REMARK    3  A    between atoms: C11_15  and  N4_16 
REMARK    4  A    between atoms: N4_16  and  C12_17 
ROOT
HETATM    1  C5  UNL     1      23.591   0.775  52.240  1.00  0.00     0.085 A 
HETATM    2  C6  UNL     1      24.675   1.417  51.693  1.00  0.00     0.038 A 
HETATM    3  C7  UNL     1      25.959   1.410  52.181  1.00  0.00     0.005 A 
HETATM    4  C8  UNL     1      26.225   0.690  53.350  1.00  0.00     0.033 A 
HETATM    5  C9  UNL     1      25.184   0.028  53.945  1.00  0.00     0.075 A 
HETATM    6  N2  UNL     1      25.406  -0.678  55.043  1.00  0.00    -0.241 NA
HETATM    7  C10 UNL     1      24.490  -1.373  55.706  1.00  0.00     0.236 A 
HETATM    8  N3  UNL     1      23.266  -1.338  55.208  1.00  0.00    -0.223 NA
HETATM    9  C11 UNL     1      22.920  -0.639  54.076  1.00  0.00     0.144 A 
HETATM   10  C18 UNL     1      23.922   0.083  53.399  1.00  0.00     0.072 A 
ENDROOT
BRANCH   9  11
HETATM   11  N4  UNL     1      21.590  -0.618  53.667  1.00  0.00    -0.340 N 
HETATM   12  H13 UNL     1      21.329  -0.575  54.710  1.00  0.00     0.167 HD
BRANCH  11  13
HETATM   13  C12 UNL     1      20.266  -0.597  53.254  1.00  0.00     0.035 A 
HETATM   14  C13 UNL     1      19.490   0.342  52.576  1.00  0.00     0.032 A 
HETATM   15  C14 UNL     1      18.165   0.124  52.329  1.00  0.00     0.046 A 
HETATM   16  C15 UNL     1      17.634  -1.048  52.773  1.00  0.00     0.138 A 
HETATM   17  F1  UNL     1      16.322  -1.140  52.468  1.00  0.00    -0.204 F 
HETATM   18  C16 UNL     1      18.332  -2.008  53.439  1.00  0.00     0.074 A 
HETATM   19 CL1  UNL     1      17.373  -3.411  53.876  1.00  0.00    -0.081 Cl
HETATM   20  C17 UNL     1      19.684  -1.783  53.689  1.00  0.00     0.056 A 
ENDBRANCH  11  13
ENDBRANCH   9  11
BRANCH   1  21
HETATM   21  O1  UNL     1      22.303   0.788  51.715  1.00  0.00    -0.345 OA
BRANCH  21  22
HETATM   22  C4  UNL     1      22.018   1.604  50.624  1.00  0.00     0.132 C 
HETATM   23  C3  UNL     1      21.193   2.824  50.871  1.00  0.00     0.062 C 
HETATM   24  C2  UNL     1      21.402   3.771  49.682  1.00  0.00     0.274 C 
HETATM   25  N1  UNL     1      22.001   3.004  48.631  1.00  0.00     0.084 N 
HETATM   26  C1  UNL     1      22.334   3.739  47.446  1.00  0.00     0.309 C 
HETATM   27  C20 UNL     1      21.271   1.798  48.319  1.00  0.00     0.274 C 
HETATM   28  C19 UNL     1      21.265   0.840  49.511  1.00  0.00     0.062 C 
ENDBRANCH  21  22
ENDBRANCH   1  21
TORSDOF 4
ENDMDL
MODEL 9
REMARK VINA RESULT:      -7.1      3.880      7.537
REMARK  4 active torsions:
REMARK  status: ('A' for Active; 'I' for Inactive)
REMARK    1  A    between atoms: C4_5  and  O1_6 
REMARK    2  A    between atoms: O1_6  and  C5_7 
REMARK    3  A    between atoms: C11_15  and  N4_16 
REMARK    4  A    between atoms: N4_16  and  C12_17 
ROOT
HETATM    1  C5  UNL     1      25.190   3.984  49.859  1.00  0.00     0.085 A 
HETATM    2  C6  UNL     1      26.475   3.642  49.515  1.00  0.00     0.038 A 
HETATM    3  C7  UNL     1      27.397   4.450  48.896  1.00  0.00     0.005 A 
HETATM    4  C8  UNL     1      27.024   5.756  48.566  1.00  0.00     0.033 A 
HETATM    5  C9  UNL     1      25.753   6.159  48.882  1.00  0.00     0.075 A 
HETATM    6  N2  UNL     1      25.374   7.396  48.599  1.00  0.00    -0.241 NA
HETATM    7  C10 UNL     1      24.181   7.911  48.863  1.00  0.00     0.236 A 
HETATM    8  N3  UNL     1      23.320   7.101  49.454  1.00  0.00    -0.223 NA
HETATM    9  C11 UNL     1      23.602   5.800  49.794  1.00  0.00     0.144 A 
HETATM   10  C18 UNL     1      24.882   5.291  49.500  1.00  0.00     0.072 A 
ENDROOT
BRANCH   9  11
HETATM   11  N4  UNL     1      22.606   5.010  50.361  1.00  0.00    -0.340 N 
HETATM   12  H13 UNL     1      21.906   5.762  50.038  1.00  0.00     0.167 HD
BRANCH  11  13
HETATM   13  C12 UNL     1      21.617   4.220  50.927  1.00  0.00     0.035 A 
HETATM   14  C13 UNL     1      21.337   3.828  52.236  1.00  0.00     0.032 A 
HETATM   15  C14 UNL     1      20.301   2.986  52.519  1.00  0.00     0.046 A 
HETATM   16  C15 UNL     1      19.553   2.544  51.470  1.00  0.00     0.138 A 
HETATM   17  F1  UNL     1      18.566   1.721  51.882  1.00  0.00    -0.204 F 
HETATM   18  C16 UNL     1      19.769   2.887  50.171  1.00  0.00     0.074 A 
HETATM   19 CL1  UNL     1      18.633   2.162  49.046  1.00  0.00    -0.081 Cl
HETATM   20  C17 UNL     1      20.827   3.746  49.884  1.00  0.00     0.056 A 
ENDBRANCH  11  13
ENDBRANCH   9  11
BRANCH   1  21
HETATM   21  O1  UNL     1      24.281   3.147  50.499  1.00  0.00    -0.345 OA
BRANCH  21  22
HETATM   22  C4  UNL     1      24.714   2.348  51.553  1.00  0.00     0.132 C 
HETATM   23  C3  UNL     1      23.863   1.181  51.931  1.00  0.00     0.062 C 
HETATM   24  C2  UNL     1      24.734   0.221  52.752  1.00  0.00     0.274 C 
HETATM   25  N1  UNL     1      25.899   0.949  53.156  1.00  0.00     0.084 N 
HETATM   26  C1  UNL     1      26.873   0.193  53.888  1.00  0.00     0.309 C 
HETATM   27  C20 UNL     1      25.592   2.196  53.814  1.00  0.00     0.274 C 
HETATM   28  C19 UNL     1      24.877   3.154  52.862  1.00  0.00     0.062 C 
ENDBRANCH  21  22
ENDBRANCH   1  21
TORSDOF 4
ENDMDL
