MODEL 1
REMARK VINA RESULT:      -7.1      0.000      0.000
REMARK  7 active torsions:
REMARK  status: ('A' for Active; 'I' for Inactive)
REMARK    1  A    between atoms: C3_3  and  C4_4 
REMARK    2  A    between atoms: C4_4  and  C5_5 
REMARK       I    between atoms: C5_5  and  N1_7 
REMARK    3  A    between atoms: N1_7  and  C6_8 
REMARK    4  A    between atoms: C7_9  and  C8_10 
REMARK    5  A    between atoms: C12_15  and  N3_16 
REMARK    6  A    between atoms: N3_16  and  C13_17 
REMARK    7  A    between atoms: C13_17  and  C14_18 
ROOT
HETATM    1  C8  UNL     1      26.435   1.100  53.772  1.00  0.00     0.009 A 
HETATM    2  C9  UNL     1      27.097   0.400  54.749  1.00  0.00     0.130 A 
HETATM    3  N2  UNL     1      28.419   0.604  55.015  1.00  0.00    -0.272 NA
HETATM    4  C10 UNL     1      29.117   1.528  54.295  1.00  0.00     0.118 A 
HETATM    5  C11 UNL     1      28.427   2.216  53.320  1.00  0.00     0.049 A 
HETATM    6  C12 UNL     1      27.097   2.044  53.018  1.00  0.00     0.041 A 
ENDROOT
BRANCH   1   7
HETATM    7  C7  UNL     1      25.045   0.831  53.551  1.00  0.00     0.032 C 
HETATM    8  C6  UNL     1      24.495  -0.345  53.816  1.00  0.00     0.092 C 
BRANCH   8   9
HETATM    9  N1  UNL     1      23.141  -0.760  53.650  1.00  0.00    -0.337 N 
HETATM   10  C5  UNL     1      22.334  -1.334  54.656  1.00  0.00     0.224 C 
HETATM   11  O1  UNL     1      23.013  -1.419  55.736  1.00  0.00    -0.273 OA
HETATM   12  H8  UNL     1      22.796  -0.587  52.660  1.00  0.00     0.168 HD
BRANCH  10  13
HETATM   13  C4  UNL     1      20.914  -1.730  54.346  1.00  0.00     0.130 C 
BRANCH  13  14
HETATM   14  C3  UNL     1      20.282  -0.760  53.438  1.00  0.00    -0.022 C 
HETATM   15  C2  UNL     1      19.087  -0.532  52.903  1.00  0.00    -0.034 C 
HETATM   16  C1  UNL     1      18.805   0.616  51.971  1.00  0.00     0.036 C 
ENDBRANCH  13  14
ENDBRANCH  10  13
ENDBRANCH   8   9
ENDBRANCH   1   7
BRANCH   6  17
HETATM   17  N3  UNL     1      26.473   2.799  51.992  1.00  0.00    -0.386 N 
HETATM   18  H14 UNL     1      26.000   3.699  52.228  1.00  0.00     0.160 HD
BRANCH  17  19
HETATM   19  C13 UNL     1      26.460   2.377  50.627  1.00  0.00     0.149 C 
BRANCH  19  20
HETATM   20  C14 UNL     1      26.656   3.536  49.683  1.00  0.00     0.022 C 
HETATM   21  C15 UNL     1      26.548   4.799  49.299  1.00  0.00     0.186 C 
HETATM   22  F1  UNL     1      26.836   5.662  48.309  1.00  0.00    -0.220 F 
ENDBRANCH  19  20
ENDBRANCH  17  19
ENDBRANCH   6  17
TORSDOF 7
ENDMDL
MODEL 2
REMARK VINA RESULT:      -7.0      2.134      2.550
REMARK  7 active torsions:
REMARK  status: ('A' for Active; 'I' for Inactive)
REMARK    1  A    between atoms: C3_3  and  C4_4 
REMARK    2  A    between atoms: C4_4  and  C5_5 
REMARK       I    between atoms: C5_5  and  N1_7 
REMARK    3  A    between atoms: N1_7  and  C6_8 
REMARK    4  A    between atoms: C7_9  and  C8_10 
REMARK    5  A    between atoms: C12_15  and  N3_16 
REMARK    6  A    between atoms: N3_16  and  C13_17 
REMARK    7  A    between atoms: C13_17  and  C14_18 
ROOT
HETATM    1  C8  UNL     1      26.908  -1.118  53.068  1.00  0.00     0.009 A 
HETATM    2  C9  UNL     1      27.242  -2.402  52.724  1.00  0.00     0.130 A 
HETATM    3  N2  UNL     1      28.512  -2.881  52.860  1.00  0.00    -0.272 NA
HETATM    4  C10 UNL     1      29.490  -2.068  53.352  1.00  0.00     0.118 A 
HETATM    5  C11 UNL     1      29.126  -0.781  53.690  1.00  0.00     0.049 A 
HETATM    6  C12 UNL     1      27.861  -0.257  53.570  1.00  0.00     0.041 A 
ENDROOT
BRANCH   1   7
HETATM    7  C7  UNL     1      25.552  -0.687  52.897  1.00  0.00     0.032 C 
HETATM    8  C6  UNL     1      24.625  -0.862  53.827  1.00  0.00     0.092 C 
BRANCH   8   9
HETATM    9  N1  UNL     1      23.248  -0.492  53.803  1.00  0.00    -0.337 N 
HETATM   10  C5  UNL     1      22.270  -0.925  54.724  1.00  0.00     0.224 C 
HETATM   11  O1  UNL     1      22.818  -1.700  55.580  1.00  0.00    -0.273 OA
HETATM   12  H8  UNL     1      23.032   0.163  52.994  1.00  0.00     0.168 HD
BRANCH  10  13
HETATM   13  C4  UNL     1      20.845  -0.457  54.583  1.00  0.00     0.130 C 
BRANCH  13  14
HETATM   14  C3  UNL     1      20.784   0.854  53.918  1.00  0.00    -0.022 C 
HETATM   15  C2  UNL     1      20.389   1.361  52.755  1.00  0.00    -0.034 C 
HETATM   16  C1  UNL     1      20.487   2.825  52.416  1.00  0.00     0.036 C 
ENDBRANCH  13  14
ENDBRANCH  10  13
ENDBRANCH   8   9
ENDBRANCH   1   7
BRANCH   6  17
HETATM   17  N3  UNL     1      27.583   1.083  53.941  1.00  0.00    -0.386 N 
HETATM   18  H14 UNL     1      27.054   1.276  54.820  1.00  0.00     0.160 HD
BRANCH  17  19
HETATM   19  C13 UNL     1      27.999   2.200  53.154  1.00  0.00     0.149 C 
BRANCH  19  20
HETATM   20  C14 UNL     1      27.012   2.508  52.056  1.00  0.00     0.022 C 
HETATM   21  C15 UNL     1      26.522   2.422  50.829  1.00  0.00     0.186 C 
HETATM   22  F1  UNL     1      25.528   2.838  50.025  1.00  0.00    -0.220 F 
ENDBRANCH  19  20
ENDBRANCH  17  19
ENDBRANCH   6  17
TORSDOF 7
ENDMDL
MODEL 3
REMARK VINA RESULT:      -7.0      4.018      7.478
REMARK  7 active torsions:
REMARK  status: ('A' for Active; 'I' for Inactive)
REMARK    1  A    between atoms: C3_3  and  C4_4 
REMARK    2  A    between atoms: C4_4  and  C5_5 
REMARK       I    between atoms: C5_5  and  N1_7 
REMARK    3  A    between atoms: N1_7  and  C6_8 
REMARK    4  A    between atoms: C7_9  and  C8_10 
REMARK    5  A    between atoms: C12_15  and  N3_16 
REMARK    6  A    between atoms: N3_16  and  C13_17 
REMARK    7  A    between atoms: C13_17  and  C14_18 
ROOT
HETATM    1  C8  UNL     1      26.201   1.112  52.838  1.00  0.00     0.009 A 
HETATM    2  C9  UNL     1      25.054   0.466  52.452  1.00  0.00     0.130 A 
HETATM    3  N2  UNL     1      24.419  -0.428  53.263  1.00  0.00    -0.272 NA
HETATM    4  C10 UNL     1      24.929  -0.698  54.498  1.00  0.00     0.118 A 
HETATM    5  C11 UNL     1      26.083  -0.035  54.860  1.00  0.00     0.049 A 
HETATM    6  C12 UNL     1      26.755   0.872  54.076  1.00  0.00     0.041 A 
ENDROOT
BRANCH   1   7
HETATM    7  C7  UNL     1      26.811   2.038  51.931  1.00  0.00     0.032 C 
HETATM    8  C6  UNL     1      26.140   3.032  51.368  1.00  0.00     0.092 C 
BRANCH   8   9
HETATM    9  N1  UNL     1      26.604   4.024  50.454  1.00  0.00    -0.337 N 
HETATM   10  C5  UNL     1      25.803   4.709  49.516  1.00  0.00     0.224 C 
HETATM   11  O1  UNL     1      24.597   4.297  49.619  1.00  0.00    -0.273 OA
HETATM   12  H8  UNL     1      27.648   4.196  50.559  1.00  0.00     0.168 HD
BRANCH  10  13
HETATM   13  C4  UNL     1      26.422   5.738  48.606  1.00  0.00     0.130 C 
BRANCH  13  14
HETATM   14  C3  UNL     1      27.874   5.530  48.488  1.00  0.00    -0.022 C 
HETATM   15  C2  UNL     1      28.919   6.117  47.912  1.00  0.00    -0.034 C 
HETATM   16  C1  UNL     1      30.323   5.587  48.015  1.00  0.00     0.036 C 
ENDBRANCH  13  14
ENDBRANCH  10  13
ENDBRANCH   8   9
ENDBRANCH   1   7
BRANCH   6  17
HETATM   17  N3  UNL     1      27.939   1.503  54.535  1.00  0.00    -0.386 N 
HETATM   18  H14 UNL     1      27.872   2.324  55.175  1.00  0.00     0.160 HD
BRANCH  17  19
HETATM   19  C13 UNL     1      29.243   1.059  54.154  1.00  0.00     0.149 C 
BRANCH  19  20
HETATM   20  C14 UNL     1      29.312  -0.443  54.046  1.00  0.00     0.022 C 
HETATM   21  C15 UNL     1      29.599  -1.588  53.445  1.00  0.00     0.186 C 
HETATM   22  F1  UNL     1      29.555  -2.925  53.578  1.00  0.00    -0.220 F 
ENDBRANCH  19  20
ENDBRANCH  17  19
ENDBRANCH   6  17
TORSDOF 7
ENDMDL
MODEL 4
REMARK VINA RESULT:      -6.7      3.522      7.381
REMARK  7 active torsions:
REMARK  status: ('A' for Active; 'I' for Inactive)
REMARK    1  A    between atoms: C3_3  and  C4_4 
REMARK    2  A    between atoms: C4_4  and  C5_5 
REMARK       I    between atoms: C5_5  and  N1_7 
REMARK    3  A    between atoms: N1_7  and  C6_8 
REMARK    4  A    between atoms: C7_9  and  C8_10 
REMARK    5  A    between atoms: C12_15  and  N3_16 
REMARK    6  A    between atoms: N3_16  and  C13_17 
REMARK    7  A    between atoms: C13_17  and  C14_18 
ROOT
HETATM    1  C8  UNL     1      23.580   0.864  52.583  1.00  0.00     0.009 A 
HETATM    2  C9  UNL     1      22.280   0.806  53.016  1.00  0.00     0.130 A 
HETATM    3  N2  UNL     1      21.895  -0.010  54.039  1.00  0.00    -0.272 NA
HETATM    4  C10 UNL     1      22.820  -0.797  54.659  1.00  0.00     0.118 A 
HETATM    5  C11 UNL     1      24.119  -0.718  54.203  1.00  0.00     0.049 A 
HETATM    6  C12 UNL     1      24.552   0.088  53.177  1.00  0.00     0.041 A 
ENDROOT
BRANCH   1   7
HETATM    7  C7  UNL     1      23.910   1.746  51.503  1.00  0.00     0.032 C 
HETATM    8  C6  UNL     1      24.512   2.911  51.691  1.00  0.00     0.092 C 
BRANCH   8   9
HETATM    9  N1  UNL     1      24.900   3.887  50.726  1.00  0.00    -0.337 N 
HETATM   10  C5  UNL     1      26.140   3.922  50.054  1.00  0.00     0.224 C 
HETATM   11  O1  UNL     1      26.857   2.940  50.449  1.00  0.00    -0.273 OA
HETATM   12  H8  UNL     1      24.133   4.604  50.564  1.00  0.00     0.168 HD
BRANCH  10  13
HETATM   13  C4  UNL     1      26.424   5.014  49.055  1.00  0.00     0.130 C 
BRANCH  13  14
HETATM   14  C3  UNL     1      27.835   4.992  48.637  1.00  0.00    -0.022 C 
HETATM   15  C2  UNL     1      28.761   5.850  48.222  1.00  0.00    -0.034 C 
HETATM   16  C1  UNL     1      30.166   5.441  47.868  1.00  0.00     0.036 C 
ENDBRANCH  13  14
ENDBRANCH  10  13
ENDBRANCH   8   9
ENDBRANCH   1   7
BRANCH   6  17
HETATM   17  N3  UNL     1      25.912   0.099  52.776  1.00  0.00    -0.386 N 
HETATM   18  H14 UNL     1      26.442   0.998  52.772  1.00  0.00     0.160 HD
BRANCH  17  19
HETATM   19  C13 UNL     1      26.602  -1.084  52.369  1.00  0.00     0.149 C 
BRANCH  19  20
HETATM   20  C14 UNL     1      27.960  -1.188  53.016  1.00  0.00     0.022 C 
HETATM   21  C15 UNL     1      29.045  -0.710  53.607  1.00  0.00     0.186 C 
HETATM   22  F1  UNL     1      30.231  -1.051  54.139  1.00  0.00    -0.220 F 
ENDBRANCH  19  20
ENDBRANCH  17  19
ENDBRANCH   6  17
TORSDOF 7
ENDMDL
MODEL 5
REMARK VINA RESULT:      -6.7      3.536      7.637
REMARK  7 active torsions:
REMARK  status: ('A' for Active; 'I' for Inactive)
REMARK    1  A    between atoms: C3_3  and  C4_4 
REMARK    2  A    between atoms: C4_4  and  C5_5 
REMARK       I    between atoms: C5_5  and  N1_7 
REMARK    3  A    between atoms: N1_7  and  C6_8 
REMARK    4  A    between atoms: C7_9  and  C8_10 
REMARK    5  A    between atoms: C12_15  and  N3_16 
REMARK    6  A    between atoms: N3_16  and  C13_17 
REMARK    7  A    between atoms: C13_17  and  C14_18 
ROOT
HETATM    1  C8  UNL     1      22.944   1.151  52.080  1.00  0.00     0.009 A 
HETATM    2  C9  UNL     1      22.591   2.281  51.389  1.00  0.00     0.130 A 
HETATM    3  N2  UNL     1      21.360   2.426  50.820  1.00  0.00    -0.272 NA
HETATM    4  C10 UNL     1      20.442   1.425  50.935  1.00  0.00     0.118 A 
HETATM    5  C11 UNL     1      20.823   0.300  51.636  1.00  0.00     0.049 A 
HETATM    6  C12 UNL     1      22.051   0.111  52.224  1.00  0.00     0.041 A 
ENDROOT
BRANCH   1   7
HETATM    7  C7  UNL     1      24.257   1.071  52.650  1.00  0.00     0.032 C 
HETATM    8  C6  UNL     1      24.927   2.141  53.051  1.00  0.00     0.092 C 
BRANCH   8   9
HETATM    9  N1  UNL     1      26.227   2.221  53.631  1.00  0.00    -0.337 N 
HETATM   10  C5  UNL     1      27.436   2.330  52.911  1.00  0.00     0.224 C 
HETATM   11  O1  UNL     1      27.177   2.345  51.660  1.00  0.00    -0.273 OA
HETATM   12  H8  UNL     1      26.186   2.188  54.692  1.00  0.00     0.168 HD
BRANCH  10  13
HETATM   13  C4  UNL     1      28.747   2.405  53.651  1.00  0.00     0.130 C 
BRANCH  13  14
HETATM   14  C3  UNL     1      29.330   1.065  53.827  1.00  0.00    -0.022 C 
HETATM   15  C2  UNL     1      29.110  -0.177  53.407  1.00  0.00    -0.034 C 
HETATM   16  C1  UNL     1      29.957  -1.350  53.821  1.00  0.00     0.036 C 
ENDBRANCH  13  14
ENDBRANCH  10  13
ENDBRANCH   8   9
ENDBRANCH   1   7
BRANCH   6  17
HETATM   17  N3  UNL     1      22.353  -1.085  52.924  1.00  0.00    -0.386 N 
HETATM   18  H14 UNL     1      22.938  -1.818  52.465  1.00  0.00     0.160 HD
BRANCH  17  19
HETATM   19  C13 UNL     1      21.886  -1.339  54.250  1.00  0.00     0.149 C 
BRANCH  19  20
HETATM   20  C14 UNL     1      22.986  -1.184  55.269  1.00  0.00     0.022 C 
HETATM   21  C15 UNL     1      24.233  -1.269  55.706  1.00  0.00     0.186 C 
HETATM   22  F1  UNL     1      25.031  -1.041  56.764  1.00  0.00    -0.220 F 
ENDBRANCH  19  20
ENDBRANCH  17  19
ENDBRANCH   6  17
TORSDOF 7
ENDMDL
MODEL 6
REMARK VINA RESULT:      -6.4      1.830      2.309
REMARK  7 active torsions:
REMARK  status: ('A' for Active; 'I' for Inactive)
REMARK    1  A    between atoms: C3_3  and  C4_4 
REMARK    2  A    between atoms: C4_4  and  C5_5 
REMARK       I    between atoms: C5_5  and  N1_7 
REMARK    3  A    between atoms: N1_7  and  C6_8 
REMARK    4  A    between atoms: C7_9  and  C8_10 
REMARK    5  A    between atoms: C12_15  and  N3_16 
REMARK    6  A    between atoms: N3_16  and  C13_17 
REMARK    7  A    between atoms: C13_17  and  C14_18 
ROOT
HETATM    1  C8  UNL     1      24.913   0.359  53.314  1.00  0.00     0.009 A 
HETATM    2  C9  UNL     1      25.233  -0.415  54.400  1.00  0.00     0.130 A 
HETATM    3  N2  UNL     1      26.500  -0.469  54.901  1.00  0.00    -0.272 NA
HETATM    4  C10 UNL     1      27.489   0.264  54.314  1.00  0.00     0.118 A 
HETATM    5  C11 UNL     1      27.139   1.033  53.225  1.00  0.00     0.049 A 
HETATM    6  C12 UNL     1      25.877   1.118  52.687  1.00  0.00     0.041 A 
ENDROOT
BRANCH   1   7
HETATM    7  C7  UNL     1      23.559   0.365  52.845  1.00  0.00     0.032 C 
HETATM    8  C6  UNL     1      22.560  -0.155  53.542  1.00  0.00     0.092 C 
BRANCH   8   9
HETATM    9  N1  UNL     1      21.175  -0.225  53.211  1.00  0.00    -0.337 N 
HETATM   10  C5  UNL     1      20.236  -1.096  53.804  1.00  0.00     0.224 C 
HETATM   11  O1  UNL     1      20.828  -1.810  54.684  1.00  0.00    -0.273 OA
HETATM   12  H8  UNL     1      20.919   0.470  52.448  1.00  0.00     0.168 HD
BRANCH  10  13
HETATM   13  C4  UNL     1      18.797  -1.068  53.359  1.00  0.00     0.130 C 
BRANCH  13  14
HETATM   14  C3  UNL     1      18.092  -2.289  53.779  1.00  0.00    -0.022 C 
HETATM   15  C2  UNL     1      17.443  -3.304  53.218  1.00  0.00    -0.034 C 
HETATM   16  C1  UNL     1      16.822  -4.424  54.008  1.00  0.00     0.036 C 
ENDBRANCH  13  14
ENDBRANCH  10  13
ENDBRANCH   8   9
ENDBRANCH   1   7
BRANCH   6  17
HETATM   17  N3  UNL     1      25.614   1.936  51.559  1.00  0.00    -0.386 N 
HETATM   18  H14 UNL     1      24.654   1.959  51.150  1.00  0.00     0.160 HD
BRANCH  17  19
HETATM   19  C13 UNL     1      26.619   2.745  50.945  1.00  0.00     0.149 C 
BRANCH  19  20
HETATM   20  C14 UNL     1      26.017   3.825  50.082  1.00  0.00     0.022 C 
HETATM   21  C15 UNL     1      26.054   4.815  49.203  1.00  0.00     0.186 C 
HETATM   22  F1  UNL     1      25.298   5.701  48.533  1.00  0.00    -0.220 F 
ENDBRANCH  19  20
ENDBRANCH  17  19
ENDBRANCH   6  17
TORSDOF 7
ENDMDL
MODEL 7
REMARK VINA RESULT:      -6.4      3.481      6.782
REMARK  7 active torsions:
REMARK  status: ('A' for Active; 'I' for Inactive)
REMARK    1  A    between atoms: C3_3  and  C4_4 
REMARK    2  A    between atoms: C4_4  and  C5_5 
REMARK       I    between atoms: C5_5  and  N1_7 
REMARK    3  A    between atoms: N1_7  and  C6_8 
REMARK    4  A    between atoms: C7_9  and  C8_10 
REMARK    5  A    between atoms: C12_15  and  N3_16 
REMARK    6  A    between atoms: N3_16  and  C13_17 
REMARK    7  A    between atoms: C13_17  and  C14_18 
ROOT
HETATM    1  C8  UNL     1      23.463   0.567  53.009  1.00  0.00     0.009 A 
HETATM    2  C9  UNL     1      22.120   0.471  53.271  1.00  0.00     0.130 A 
HETATM    3  N2  UNL     1      21.628  -0.362  54.233  1.00  0.00    -0.272 NA
HETATM    4  C10 UNL     1      22.486  -1.128  54.964  1.00  0.00     0.118 A 
HETATM    5  C11 UNL     1      23.831  -1.012  54.680  1.00  0.00     0.049 A 
HETATM    6  C12 UNL     1      24.370  -0.188  53.722  1.00  0.00     0.041 A 
ENDROOT
BRANCH   1   7
HETATM    7  C7  UNL     1      23.905   1.464  51.983  1.00  0.00     0.032 C 
HETATM    8  C6  UNL     1      23.076   2.263  51.328  1.00  0.00     0.092 C 
BRANCH   8   9
HETATM    9  N1  UNL     1      23.362   3.200  50.293  1.00  0.00    -0.337 N 
HETATM   10  C5  UNL     1      23.776   4.535  50.492  1.00  0.00     0.224 C 
HETATM   11  O1  UNL     1      23.852   4.765  51.747  1.00  0.00    -0.273 OA
HETATM   12  H8  UNL     1      23.227   2.774  49.329  1.00  0.00     0.168 HD
BRANCH  10  13
HETATM   13  C4  UNL     1      24.046   5.424  49.305  1.00  0.00     0.130 C 
BRANCH  13  14
HETATM   14  C3  UNL     1      25.464   5.366  48.916  1.00  0.00    -0.022 C 
HETATM   15  C2  UNL     1      26.556   4.681  49.240  1.00  0.00    -0.034 C 
HETATM   16  C1  UNL     1      27.896   4.911  48.595  1.00  0.00     0.036 C 
ENDBRANCH  13  14
ENDBRANCH  10  13
ENDBRANCH   8   9
ENDBRANCH   1   7
BRANCH   6  17
HETATM   17  N3  UNL     1      25.770  -0.138  53.499  1.00  0.00    -0.386 N 
HETATM   18  H14 UNL     1      26.330   0.642  53.906  1.00  0.00     0.160 HD
BRANCH  17  19
HETATM   19  C13 UNL     1      26.461  -1.124  52.730  1.00  0.00     0.149 C 
BRANCH  19  20
HETATM   20  C14 UNL     1      27.941  -1.122  53.018  1.00  0.00     0.022 C 
HETATM   21  C15 UNL     1      29.039  -0.718  53.639  1.00  0.00     0.186 C 
HETATM   22  F1  UNL     1      30.369  -0.894  53.718  1.00  0.00    -0.220 F 
ENDBRANCH  19  20
ENDBRANCH  17  19
ENDBRANCH   6  17
TORSDOF 7
ENDMDL
MODEL 8
REMARK VINA RESULT:      -6.4      3.858      6.596
REMARK  7 active torsions:
REMARK  status: ('A' for Active; 'I' for Inactive)
REMARK    1  A    between atoms: C3_3  and  C4_4 
REMARK    2  A    between atoms: C4_4  and  C5_5 
REMARK       I    between atoms: C5_5  and  N1_7 
REMARK    3  A    between atoms: N1_7  and  C6_8 
REMARK    4  A    between atoms: C7_9  and  C8_10 
REMARK    5  A    between atoms: C12_15  and  N3_16 
REMARK    6  A    between atoms: N3_16  and  C13_17 
REMARK    7  A    between atoms: C13_17  and  C14_18 
ROOT
HETATM    1  C8  UNL     1      26.591   4.508  49.106  1.00  0.00     0.009 A 
HETATM    2  C9  UNL     1      27.803   4.960  48.650  1.00  0.00     0.130 A 
HETATM    3  N2  UNL     1      27.977   6.236  48.202  1.00  0.00    -0.272 NA
HETATM    4  C10 UNL     1      26.923   7.100  48.200  1.00  0.00     0.118 A 
HETATM    5  C11 UNL     1      25.716   6.619  48.664  1.00  0.00     0.049 A 
HETATM    6  C12 UNL     1      25.495   5.343  49.125  1.00  0.00     0.041 A 
ENDROOT
BRANCH   1   7
HETATM    7  C7  UNL     1      26.486   3.154  49.563  1.00  0.00     0.032 C 
HETATM    8  C6  UNL     1      26.628   2.817  50.836  1.00  0.00     0.092 C 
BRANCH   8   9
HETATM    9  N1  UNL     1      26.552   1.526  51.436  1.00  0.00    -0.337 N 
HETATM   10  C5  UNL     1      26.168   1.267  52.770  1.00  0.00     0.224 C 
HETATM   11  O1  UNL     1      25.900   2.375  53.349  1.00  0.00    -0.273 OA
HETATM   12  H8  UNL     1      26.823   0.759  50.753  1.00  0.00     0.168 HD
BRANCH  10  13
HETATM   13  C4  UNL     1      26.130  -0.150  53.280  1.00  0.00     0.130 C 
BRANCH  13  14
HETATM   14  C3  UNL     1      27.487  -0.714  53.369  1.00  0.00    -0.022 C 
HETATM   15  C2  UNL     1      28.700  -0.329  53.754  1.00  0.00    -0.034 C 
HETATM   16  C1  UNL     1      29.907  -1.225  53.696  1.00  0.00     0.036 C 
ENDBRANCH  13  14
ENDBRANCH  10  13
ENDBRANCH   8   9
ENDBRANCH   1   7
BRANCH   6  17
HETATM   17  N3  UNL     1      24.214   4.939  49.580  1.00  0.00    -0.386 N 
HETATM   18  H14 UNL     1      24.084   4.666  50.579  1.00  0.00     0.160 HD
BRANCH  17  19
HETATM   19  C13 UNL     1      23.075   4.884  48.719  1.00  0.00     0.149 C 
BRANCH  19  20
HETATM   20  C14 UNL     1      22.614   3.467  48.492  1.00  0.00     0.022 C 
HETATM   21  C15 UNL     1      22.650   2.274  47.919  1.00  0.00     0.186 C 
HETATM   22  F1  UNL     1      22.067   1.062  47.895  1.00  0.00    -0.220 F 
ENDBRANCH  19  20
ENDBRANCH  17  19
ENDBRANCH   6  17
TORSDOF 7
ENDMDL
MODEL 9
REMARK VINA RESULT:      -6.2      3.325      5.332
REMARK  7 active torsions:
REMARK  status: ('A' for Active; 'I' for Inactive)
REMARK    1  A    between atoms: C3_3  and  C4_4 
REMARK    2  A    between atoms: C4_4  and  C5_5 
REMARK       I    between atoms: C5_5  and  N1_7 
REMARK    3  A    between atoms: N1_7  and  C6_8 
REMARK    4  A    between atoms: C7_9  and  C8_10 
REMARK    5  A    between atoms: C12_15  and  N3_16 
REMARK    6  A    between atoms: N3_16  and  C13_17 
REMARK    7  A    between atoms: C13_17  and  C14_18 
ROOT
HETATM    1  C8  UNL     1      27.131   1.422  52.937  1.00  0.00     0.009 A 
HETATM    2  C9  UNL     1      28.168   2.275  53.216  1.00  0.00     0.130 A 
HETATM    3  N2  UNL     1      29.068   2.019  54.208  1.00  0.00    -0.272 NA
HETATM    4  C10 UNL     1      28.945   0.884  54.953  1.00  0.00     0.118 A 
HETATM    5  C11 UNL     1      27.893   0.044  54.651  1.00  0.00     0.049 A 
HETATM    6  C12 UNL     1      26.964   0.262  53.662  1.00  0.00     0.041 A 
ENDROOT
BRANCH   1   7
HETATM    7  C7  UNL     1      26.225   1.759  51.879  1.00  0.00     0.032 C 
HETATM    8  C6  UNL     1      26.453   2.753  51.034  1.00  0.00     0.092 C 
BRANCH   8   9
HETATM    9  N1  UNL     1      25.654   3.204  49.942  1.00  0.00    -0.337 N 
HETATM   10  C5  UNL     1      24.596   4.134  50.034  1.00  0.00     0.224 C 
HETATM   11  O1  UNL     1      24.471   4.504  51.251  1.00  0.00    -0.273 OA
HETATM   12  H8  UNL     1      25.950   2.753  49.026  1.00  0.00     0.168 HD
BRANCH  10  13
HETATM   13  C4  UNL     1      23.829   4.525  48.798  1.00  0.00     0.130 C 
BRANCH  13  14
HETATM   14  C3  UNL     1      22.781   3.539  48.494  1.00  0.00    -0.022 C 
HETATM   15  C2  UNL     1      22.307   2.404  49.000  1.00  0.00    -0.034 C 
HETATM   16  C1  UNL     1      21.169   1.637  48.384  1.00  0.00     0.036 C 
ENDBRANCH  13  14
ENDBRANCH  10  13
ENDBRANCH   8   9
ENDBRANCH   1   7
BRANCH   6  17
HETATM   17  N3  UNL     1      25.913  -0.660  53.427  1.00  0.00    -0.386 N 
HETATM   18  H14 UNL     1      26.023  -1.393  52.692  1.00  0.00     0.160 HD
BRANCH  17  19
HETATM   19  C13 UNL     1      24.688  -0.632  54.161  1.00  0.00     0.149 C 
BRANCH  19  20
HETATM   20  C14 UNL     1      23.503  -0.386  53.261  1.00  0.00     0.022 C 
HETATM   21  C15 UNL     1      22.733   0.344  52.468  1.00  0.00     0.186 C 
HETATM   22  F1  UNL     1      21.619   0.322  51.715  1.00  0.00    -0.220 F 
ENDBRANCH  19  20
ENDBRANCH  17  19
ENDBRANCH   6  17
TORSDOF 7
ENDMDL
