MODEL 1
REMARK VINA RESULT:      -8.0      0.000      0.000
REMARK  7 active torsions:
REMARK  status: ('A' for Active; 'I' for Inactive)
REMARK    1  A    between atoms: C3_3  and  C4_4 
REMARK       I    between atoms: C4_4  and  N1_6 
REMARK    2  A    between atoms: N1_6  and  C5_7 
REMARK    3  A    between atoms: C5_7  and  C19_25 
REMARK    4  A    between atoms: C6_8  and  C7_9 
REMARK    5  A    between atoms: C10_12  and  N2_13 
REMARK    6  A    between atoms: N2_13  and  C11_14 
REMARK    7  A    between atoms: C15_18  and  C16_19 
ROOT
HETATM    1  C7  UNL     1      21.868   0.959  50.695  1.00  0.00     0.029 C 
HETATM    2  C8  UNL     1      22.665   1.893  51.207  1.00  0.00     0.043 A 
HETATM    3  C9  UNL     1      24.135   1.681  51.179  1.00  0.00     0.137 A 
HETATM    4  C10 UNL     1      24.849   2.803  51.792  1.00  0.00     0.111 A 
HETATM    5  N3  UNL     1      24.269   3.856  52.295  1.00  0.00    -0.228 NA
HETATM    6  C18 UNL     1      22.858   4.013  52.293  1.00  0.00     0.235 A 
HETATM    7  N4  UNL     1      22.132   3.061  51.768  1.00  0.00    -0.246 NA
ENDROOT
BRANCH   1   8
HETATM    8  C6  UNL     1      20.415   1.155  50.715  1.00  0.00     0.027 C 
HETATM    9  C5  UNL     1      19.678   0.462  51.569  1.00  0.00     0.012 C 
BRANCH   9  10
HETATM   10  N1  UNL     1      20.312  -0.467  52.458  1.00  0.00    -0.327 N 
HETATM   11  C4  UNL     1      20.710  -0.174  53.772  1.00  0.00     0.245 C 
HETATM   12  O1  UNL     1      20.451   1.007  54.107  1.00  0.00    -0.268 OA
HETATM   13  H6  UNL     1      20.459  -1.418  52.029  1.00  0.00     0.169 HD
BRANCH  11  14
HETATM   14  C3  UNL     1      21.351  -1.163  54.627  1.00  0.00     0.070 C 
HETATM   15  C2  UNL     1      22.666  -1.273  54.704  1.00  0.00    -0.026 C 
HETATM   16  C1  UNL     1      23.558  -0.386  53.914  1.00  0.00     0.036 C 
ENDBRANCH  11  14
ENDBRANCH   9  10
BRANCH   9  17
HETATM   17  C19 UNL     1      18.204   0.639  51.613  1.00  0.00     0.052 C 
HETATM   18  C20 UNL     1      17.658   0.239  50.260  1.00  0.00     0.011 C 
ENDBRANCH   9  17
ENDBRANCH   1   8
BRANCH   4  19
HETATM   19  N2  UNL     1      26.260   2.820  51.886  1.00  0.00    -0.344 N 
HETATM   20  H11 UNL     1      26.765   3.640  51.427  1.00  0.00     0.167 HD
BRANCH  19  21
HETATM   21  C11 UNL     1      27.067   1.851  52.540  1.00  0.00     0.034 A 
HETATM   22  C12 UNL     1      28.088   2.263  53.379  1.00  0.00     0.029 A 
HETATM   23  C13 UNL     1      28.929   1.431  54.067  1.00  0.00     0.003 A 
HETATM   24  C14 UNL     1      28.792   0.078  53.952  1.00  0.00     0.013 A 
HETATM   25  C15 UNL     1      27.784  -0.327  53.125  1.00  0.00    -0.010 A 
HETATM   26  C17 UNL     1      26.927   0.490  52.424  1.00  0.00     0.043 A 
BRANCH  25  27
HETATM   27  C16 UNL     1      27.532  -1.738  52.916  1.00  0.00     0.389 C 
HETATM   28  O2  UNL     1      27.994  -2.876  52.728  1.00  0.00    -0.405 OA
ENDBRANCH  25  27
ENDBRANCH  19  21
ENDBRANCH   4  19
TORSDOF 7
ENDMDL
MODEL 2
REMARK VINA RESULT:      -7.9      3.127      7.205
REMARK  7 active torsions:
REMARK  status: ('A' for Active; 'I' for Inactive)
REMARK    1  A    between atoms: C3_3  and  C4_4 
REMARK       I    between atoms: C4_4  and  N1_6 
REMARK    2  A    between atoms: N1_6  and  C5_7 
REMARK    3  A    between atoms: C5_7  and  C19_25 
REMARK    4  A    between atoms: C6_8  and  C7_9 
REMARK    5  A    between atoms: C10_12  and  N2_13 
REMARK    6  A    between atoms: N2_13  and  C11_14 
REMARK    7  A    between atoms: C15_18  and  C16_19 
ROOT
HETATM    1  C7  UNL     1      25.780   3.090  49.983  1.00  0.00     0.029 C 
HETATM    2  C8  UNL     1      26.072   2.425  51.097  1.00  0.00     0.043 A 
HETATM    3  C9  UNL     1      25.064   1.495  51.667  1.00  0.00     0.137 A 
HETATM    4  C10 UNL     1      25.552   0.861  52.894  1.00  0.00     0.111 A 
HETATM    5  N3  UNL     1      26.725   1.083  53.417  1.00  0.00    -0.228 NA
HETATM    6  C18 UNL     1      27.655   1.980  52.830  1.00  0.00     0.235 A 
HETATM    7  N4  UNL     1      27.310   2.597  51.731  1.00  0.00    -0.246 NA
ENDROOT
BRANCH   1   8
HETATM    8  C6  UNL     1      26.767   4.011  49.408  1.00  0.00     0.027 C 
HETATM    9  C5  UNL     1      26.374   5.205  48.991  1.00  0.00     0.012 C 
BRANCH   9  10
HETATM   10  N1  UNL     1      24.994   5.576  49.108  1.00  0.00    -0.327 N 
HETATM   11  C4  UNL     1      24.488   6.494  50.041  1.00  0.00     0.245 C 
HETATM   12  O1  UNL     1      25.377   6.974  50.784  1.00  0.00    -0.268 OA
HETATM   13  H6  UNL     1      24.372   5.087  48.412  1.00  0.00     0.169 HD
BRANCH  11  14
HETATM   14  C3  UNL     1      23.072   6.829  50.110  1.00  0.00     0.070 C 
HETATM   15  C2  UNL     1      22.236   6.173  50.895  1.00  0.00    -0.026 C 
HETATM   16  C1  UNL     1      22.705   5.053  51.751  1.00  0.00     0.036 C 
ENDBRANCH  11  14
ENDBRANCH   9  10
BRANCH   9  17
HETATM   17  C19 UNL     1      27.349   6.160  48.405  1.00  0.00     0.052 C 
HETATM   18  C20 UNL     1      28.684   5.452  48.322  1.00  0.00     0.011 C 
ENDBRANCH   9  17
ENDBRANCH   1   8
BRANCH   4  19
HETATM   19  N2  UNL     1      24.760  -0.059  53.618  1.00  0.00    -0.344 N 
HETATM   20  H11 UNL     1      25.276  -0.828  54.147  1.00  0.00     0.167 HD
BRANCH  19  21
HETATM   21  C11 UNL     1      23.342  -0.051  53.712  1.00  0.00     0.034 A 
HETATM   22  C12 UNL     1      22.695  -1.077  54.379  1.00  0.00     0.029 A 
HETATM   23  C13 UNL     1      21.340  -1.180  54.541  1.00  0.00     0.003 A 
HETATM   24  C14 UNL     1      20.516  -0.223  54.023  1.00  0.00     0.013 A 
HETATM   25  C15 UNL     1      21.158   0.788  53.366  1.00  0.00    -0.010 A 
HETATM   26  C17 UNL     1      22.516   0.914  53.190  1.00  0.00     0.043 A 
BRANCH  25  27
HETATM   27  C16 UNL     1      20.398   1.867  52.769  1.00  0.00     0.389 C 
HETATM   28  O2  UNL     1      20.032   3.054  52.818  1.00  0.00    -0.405 OA
ENDBRANCH  25  27
ENDBRANCH  19  21
ENDBRANCH   4  19
TORSDOF 7
ENDMDL
MODEL 3
REMARK VINA RESULT:      -7.8      2.961      5.326
REMARK  7 active torsions:
REMARK  status: ('A' for Active; 'I' for Inactive)
REMARK    1  A    between atoms: C3_3  and  C4_4 
REMARK       I    between atoms: C4_4  and  N1_6 
REMARK    2  A    between atoms: N1_6  and  C5_7 
REMARK    3  A    between atoms: C5_7  and  C19_25 
REMARK    4  A    between atoms: C6_8  and  C7_9 
REMARK    5  A    between atoms: C10_12  and  N2_13 
REMARK    6  A    between atoms: N2_13  and  C11_14 
REMARK    7  A    between atoms: C15_18  and  C16_19 
ROOT
HETATM    1  C7  UNL     1      23.859   3.372  51.984  1.00  0.00     0.029 C 
HETATM    2  C8  UNL     1      23.633   2.152  52.464  1.00  0.00     0.043 A 
HETATM    3  C9  UNL     1      24.772   1.208  52.603  1.00  0.00     0.137 A 
HETATM    4  C10 UNL     1      24.334  -0.084  53.136  1.00  0.00     0.111 A 
HETATM    5  N3  UNL     1      23.103  -0.369  53.453  1.00  0.00    -0.228 NA
HETATM    6  C18 UNL     1      22.050   0.572  53.305  1.00  0.00     0.235 A 
HETATM    7  N4  UNL     1      22.341   1.756  52.834  1.00  0.00    -0.246 NA
ENDROOT
BRANCH   1   8
HETATM    8  C6  UNL     1      22.745   4.315  51.843  1.00  0.00     0.027 C 
HETATM    9  C5  UNL     1      22.936   5.453  51.196  1.00  0.00     0.012 C 
BRANCH   9  10
HETATM   10  N1  UNL     1      24.228   5.746  50.647  1.00  0.00    -0.327 N 
HETATM   11  C4  UNL     1      24.612   5.487  49.322  1.00  0.00     0.245 C 
HETATM   12  O1  UNL     1      23.697   4.962  48.643  1.00  0.00    -0.268 OA
HETATM   13  H6  UNL     1      24.885   6.186  51.343  1.00  0.00     0.169 HD
BRANCH  11  14
HETATM   14  C3  UNL     1      25.942   5.807  48.823  1.00  0.00     0.070 C 
HETATM   15  C2  UNL     1      26.941   4.944  48.891  1.00  0.00    -0.026 C 
HETATM   16  C1  UNL     1      26.752   3.596  49.485  1.00  0.00     0.036 C 
ENDBRANCH  11  14
ENDBRANCH   9  10
BRANCH   9  17
HETATM   17  C19 UNL     1      21.827   6.428  51.036  1.00  0.00     0.052 C 
HETATM   18  C20 UNL     1      20.689   5.712  50.342  1.00  0.00     0.011 C 
ENDBRANCH   9  17
ENDBRANCH   1   8
BRANCH   4  19
HETATM   19  N2  UNL     1      25.246  -1.144  53.347  1.00  0.00    -0.344 N 
HETATM   20  H11 UNL     1      24.832  -2.121  53.462  1.00  0.00     0.167 HD
BRANCH  19  21
HETATM   21  C11 UNL     1      26.660  -1.031  53.414  1.00  0.00     0.034 A 
HETATM   22  C12 UNL     1      27.452  -2.059  52.930  1.00  0.00     0.029 A 
HETATM   23  C13 UNL     1      28.821  -2.068  52.933  1.00  0.00     0.003 A 
HETATM   24  C14 UNL     1      29.508  -1.005  53.442  1.00  0.00     0.013 A 
HETATM   25  C15 UNL     1      28.725   0.008  53.917  1.00  0.00    -0.010 A 
HETATM   26  C17 UNL     1      27.350   0.040  53.925  1.00  0.00     0.043 A 
BRANCH  25  27
HETATM   27  C16 UNL     1      29.331   1.195  54.484  1.00  0.00     0.389 C 
HETATM   28  O2  UNL     1      29.304   2.429  54.627  1.00  0.00    -0.405 OA
ENDBRANCH  25  27
ENDBRANCH  19  21
ENDBRANCH   4  19
TORSDOF 7
ENDMDL
MODEL 4
REMARK VINA RESULT:      -7.7      4.987      7.897
REMARK  7 active torsions:
REMARK  status: ('A' for Active; 'I' for Inactive)
REMARK    1  A    between atoms: C3_3  and  C4_4 
REMARK       I    between atoms: C4_4  and  N1_6 
REMARK    2  A    between atoms: N1_6  and  C5_7 
REMARK    3  A    between atoms: C5_7  and  C19_25 
REMARK    4  A    between atoms: C6_8  and  C7_9 
REMARK    5  A    between atoms: C10_12  and  N2_13 
REMARK    6  A    between atoms: N2_13  and  C11_14 
REMARK    7  A    between atoms: C15_18  and  C16_19 
ROOT
HETATM    1  C7  UNL     1      26.748   5.177  48.829  1.00  0.00     0.029 C 
HETATM    2  C8  UNL     1      26.046   4.549  49.768  1.00  0.00     0.043 A 
HETATM    3  C9  UNL     1      26.519   3.230  50.262  1.00  0.00     0.137 A 
HETATM    4  C10 UNL     1      25.620   2.687  51.282  1.00  0.00     0.111 A 
HETATM    5  N3  UNL     1      24.544   3.286  51.707  1.00  0.00    -0.228 NA
HETATM    6  C18 UNL     1      24.137   4.550  51.205  1.00  0.00     0.235 A 
HETATM    7  N4  UNL     1      24.875   5.117  50.287  1.00  0.00    -0.246 NA
ENDROOT
BRANCH   1   8
HETATM    8  C6  UNL     1      26.293   6.480  48.333  1.00  0.00     0.027 C 
HETATM    9  C5  UNL     1      27.100   7.526  48.423  1.00  0.00     0.012 C 
BRANCH   9  10
HETATM   10  N1  UNL     1      28.401   7.367  49.003  1.00  0.00    -0.327 N 
HETATM   11  C4  UNL     1      29.594   7.243  48.273  1.00  0.00     0.245 C 
HETATM   12  O1  UNL     1      29.413   7.285  47.033  1.00  0.00    -0.268 OA
HETATM   13  H6  UNL     1      28.387   7.351  50.057  1.00  0.00     0.169 HD
BRANCH  11  14
HETATM   14  C3  UNL     1      30.888   7.083  48.923  1.00  0.00     0.070 C 
HETATM   15  C2  UNL     1      31.538   8.107  49.447  1.00  0.00    -0.026 C 
HETATM   16  C1  UNL     1      30.976   9.481  49.396  1.00  0.00     0.036 C 
ENDBRANCH  11  14
ENDBRANCH   9  10
BRANCH   9  17
HETATM   17  C19 UNL     1      26.669   8.859  47.929  1.00  0.00     0.052 C 
HETATM   18  C20 UNL     1      25.880   8.638  46.657  1.00  0.00     0.011 C 
ENDBRANCH   9  17
ENDBRANCH   1   8
BRANCH   4  19
HETATM   19  N2  UNL     1      25.865   1.435  51.893  1.00  0.00    -0.344 N 
HETATM   20  H11 UNL     1      25.090   0.705  51.824  1.00  0.00     0.167 HD
BRANCH  19  21
HETATM   21  C11 UNL     1      27.047   1.057  52.584  1.00  0.00     0.034 A 
HETATM   22  C12 UNL     1      27.781   2.017  53.259  1.00  0.00     0.029 A 
HETATM   23  C13 UNL     1      28.931   1.781  53.963  1.00  0.00     0.003 A 
HETATM   24  C14 UNL     1      29.437   0.516  54.036  1.00  0.00     0.013 A 
HETATM   25  C15 UNL     1      28.711  -0.430  53.370  1.00  0.00    -0.010 A 
HETATM   26  C17 UNL     1      27.554  -0.217  52.657  1.00  0.00     0.043 A 
BRANCH  25  27
HETATM   27  C16 UNL     1      29.141  -1.813  53.369  1.00  0.00     0.389 C 
HETATM   28  O2  UNL     1      28.830  -3.016  53.411  1.00  0.00    -0.405 OA
ENDBRANCH  25  27
ENDBRANCH  19  21
ENDBRANCH   4  19
TORSDOF 7
ENDMDL
MODEL 5
REMARK VINA RESULT:      -7.7      5.068      8.203
REMARK  7 active torsions:
REMARK  status: ('A' for Active; 'I' for Inactive)
REMARK    1  A    between atoms: C3_3  and  C4_4 
REMARK       I    between atoms: C4_4  and  N1_6 
REMARK    2  A    between atoms: N1_6  and  C5_7 
REMARK    3  A    between atoms: C5_7  and  C19_25 
REMARK    4  A    between atoms: C6_8  and  C7_9 
REMARK    5  A    between atoms: C10_12  and  N2_13 
REMARK    6  A    between atoms: N2_13  and  C11_14 
REMARK    7  A    between atoms: C15_18  and  C16_19 
ROOT
HETATM    1  C7  UNL     1      27.202   5.085  48.704  1.00  0.00     0.029 C 
HETATM    2  C8  UNL     1      26.327   4.612  49.588  1.00  0.00     0.043 A 
HETATM    3  C9  UNL     1      26.450   3.204  50.042  1.00  0.00     0.137 A 
HETATM    4  C10 UNL     1      25.400   2.858  51.003  1.00  0.00     0.111 A 
HETATM    5  N3  UNL     1      24.477   3.683  51.411  1.00  0.00    -0.228 NA
HETATM    6  C18 UNL     1      24.406   5.023  50.948  1.00  0.00     0.235 A 
HETATM    7  N4  UNL     1      25.301   5.427  50.085  1.00  0.00    -0.246 NA
ENDROOT
BRANCH   1   8
HETATM    8  C6  UNL     1      27.094   6.475  48.247  1.00  0.00     0.027 C 
HETATM    9  C5  UNL     1      28.148   7.270  48.335  1.00  0.00     0.012 C 
BRANCH   9  10
HETATM   10  N1  UNL     1      29.374   6.762  48.876  1.00  0.00    -0.327 N 
HETATM   11  C4  UNL     1      30.573   6.632  48.157  1.00  0.00     0.245 C 
HETATM   12  O1  UNL     1      30.471   7.012  46.966  1.00  0.00    -0.268 OA
HETATM   13  H6  UNL     1      29.299   6.486  49.890  1.00  0.00     0.169 HD
BRANCH  11  14
HETATM   14  C3  UNL     1      31.788   6.106  48.764  1.00  0.00     0.070 C 
HETATM   15  C2  UNL     1      32.331   4.968  48.369  1.00  0.00    -0.026 C 
HETATM   16  C1  UNL     1      31.722   4.164  47.279  1.00  0.00     0.036 C 
ENDBRANCH  11  14
ENDBRANCH   9  10
BRANCH   9  17
HETATM   17  C19 UNL     1      28.070   8.682  47.880  1.00  0.00     0.052 C 
HETATM   18  C20 UNL     1      26.782   8.838  47.101  1.00  0.00     0.011 C 
ENDBRANCH   9  17
ENDBRANCH   1   8
BRANCH   4  19
HETATM   19  N2  UNL     1      25.311   1.565  51.569  1.00  0.00    -0.344 N 
HETATM   20  H11 UNL     1      24.371   1.067  51.489  1.00  0.00     0.167 HD
BRANCH  19  21
HETATM   21  C11 UNL     1      26.358   0.866  52.227  1.00  0.00     0.034 A 
HETATM   22  C12 UNL     1      26.427  -0.514  52.129  1.00  0.00     0.029 A 
HETATM   23  C13 UNL     1      27.385  -1.299  52.711  1.00  0.00     0.003 A 
HETATM   24  C14 UNL     1      28.374  -0.727  53.457  1.00  0.00     0.013 A 
HETATM   25  C15 UNL     1      28.304   0.634  53.552  1.00  0.00    -0.010 A 
HETATM   26  C17 UNL     1      27.353   1.444  52.977  1.00  0.00     0.043 A 
BRANCH  25  27
HETATM   27  C16 UNL     1      29.295   1.364  54.316  1.00  0.00     0.389 C 
HETATM   28  O2  UNL     1      29.575   2.361  55.002  1.00  0.00    -0.405 OA
ENDBRANCH  25  27
ENDBRANCH  19  21
ENDBRANCH   4  19
TORSDOF 7
ENDMDL
MODEL 6
REMARK VINA RESULT:      -7.6      2.190      3.943
REMARK  7 active torsions:
REMARK  status: ('A' for Active; 'I' for Inactive)
REMARK    1  A    between atoms: C3_3  and  C4_4 
REMARK       I    between atoms: C4_4  and  N1_6 
REMARK    2  A    between atoms: N1_6  and  C5_7 
REMARK    3  A    between atoms: C5_7  and  C19_25 
REMARK    4  A    between atoms: C6_8  and  C7_9 
REMARK    5  A    between atoms: C10_12  and  N2_13 
REMARK    6  A    between atoms: N2_13  and  C11_14 
REMARK    7  A    between atoms: C15_18  and  C16_19 
ROOT
HETATM    1  C7  UNL     1      21.576   0.442  51.449  1.00  0.00     0.029 C 
HETATM    2  C8  UNL     1      21.897  -0.091  52.625  1.00  0.00     0.043 A 
HETATM    3  C9  UNL     1      23.320  -0.093  53.053  1.00  0.00     0.137 A 
HETATM    4  C10 UNL     1      23.484  -0.725  54.363  1.00  0.00     0.111 A 
HETATM    5  N3  UNL     1      22.506  -1.221  55.067  1.00  0.00    -0.228 NA
HETATM    6  C18 UNL     1      21.161  -1.191  54.615  1.00  0.00     0.235 A 
HETATM    7  N4  UNL     1      20.912  -0.646  53.452  1.00  0.00    -0.246 NA
ENDROOT
BRANCH   1   8
HETATM    8  C6  UNL     1      20.175   0.452  51.015  1.00  0.00     0.027 C 
HETATM    9  C5  UNL     1      19.634   1.585  50.596  1.00  0.00     0.012 C 
BRANCH   9  10
HETATM   10  N1  UNL     1      20.424   2.781  50.575  1.00  0.00    -0.327 N 
HETATM   11  C4  UNL     1      20.549   3.677  51.648  1.00  0.00     0.245 C 
HETATM   12  O1  UNL     1      19.890   3.325  52.656  1.00  0.00    -0.268 OA
HETATM   13  H6  UNL     1      20.918   2.937  49.657  1.00  0.00     0.169 HD
BRANCH  11  14
HETATM   14  C3  UNL     1      21.368   4.878  51.564  1.00  0.00     0.070 C 
HETATM   15  C2  UNL     1      22.637   4.886  51.933  1.00  0.00    -0.026 C 
HETATM   16  C1  UNL     1      23.293   3.660  52.455  1.00  0.00     0.036 C 
ENDBRANCH  11  14
ENDBRANCH   9  10
BRANCH   9  17
HETATM   17  C19 UNL     1      18.218   1.627  50.149  1.00  0.00     0.052 C 
HETATM   18  C20 UNL     1      17.683   0.212  50.201  1.00  0.00     0.011 C 
ENDBRANCH   9  17
ENDBRANCH   1   8
BRANCH   4  19
HETATM   19  N2  UNL     1      24.755  -0.849  54.971  1.00  0.00    -0.344 N 
HETATM   20  H11 UNL     1      24.773  -1.150  55.994  1.00  0.00     0.167 HD
BRANCH  19  21
HETATM   21  C11 UNL     1      26.009  -0.616  54.345  1.00  0.00     0.034 A 
HETATM   22  C12 UNL     1      26.483  -1.518  53.408  1.00  0.00     0.029 A 
HETATM   23  C13 UNL     1      27.669  -1.404  52.734  1.00  0.00     0.003 A 
HETATM   24  C14 UNL     1      28.486  -0.336  52.967  1.00  0.00     0.013 A 
HETATM   25  C15 UNL     1      28.015   0.552  53.892  1.00  0.00    -0.010 A 
HETATM   26  C17 UNL     1      26.828   0.460  54.581  1.00  0.00     0.043 A 
BRANCH  25  27
HETATM   27  C16 UNL     1      28.787   1.730  54.231  1.00  0.00     0.389 C 
HETATM   28  O2  UNL     1      29.536   2.305  55.038  1.00  0.00    -0.405 OA
ENDBRANCH  25  27
ENDBRANCH  19  21
ENDBRANCH   4  19
TORSDOF 7
ENDMDL
MODEL 7
REMARK VINA RESULT:      -7.6      4.575      6.646
REMARK  7 active torsions:
REMARK  status: ('A' for Active; 'I' for Inactive)
REMARK    1  A    between atoms: C3_3  and  C4_4 
REMARK       I    between atoms: C4_4  and  N1_6 
REMARK    2  A    between atoms: N1_6  and  C5_7 
REMARK    3  A    between atoms: C5_7  and  C19_25 
REMARK    4  A    between atoms: C6_8  and  C7_9 
REMARK    5  A    between atoms: C10_12  and  N2_13 
REMARK    6  A    between atoms: N2_13  and  C11_14 
REMARK    7  A    between atoms: C15_18  and  C16_19 
ROOT
HETATM    1  C7  UNL     1      26.243   2.114  51.012  1.00  0.00     0.029 C 
HETATM    2  C8  UNL     1      25.854   3.266  50.472  1.00  0.00     0.043 A 
HETATM    3  C9  UNL     1      26.783   3.988  49.565  1.00  0.00     0.137 A 
HETATM    4  C10 UNL     1      26.191   5.234  49.075  1.00  0.00     0.111 A 
HETATM    5  N3  UNL     1      25.000   5.656  49.392  1.00  0.00    -0.228 NA
HETATM    6  C18 UNL     1      24.148   4.926  50.261  1.00  0.00     0.235 A 
HETATM    7  N4  UNL     1      24.588   3.797  50.753  1.00  0.00    -0.246 NA
ENDROOT
BRANCH   1   8
HETATM    8  C6  UNL     1      25.336   1.390  51.909  1.00  0.00     0.027 C 
HETATM    9  C5  UNL     1      25.823   0.449  52.702  1.00  0.00     0.012 C 
BRANCH   9  10
HETATM   10  N1  UNL     1      27.225   0.153  52.672  1.00  0.00    -0.327 N 
HETATM   11  C4  UNL     1      28.113   0.367  53.738  1.00  0.00     0.245 C 
HETATM   12  O1  UNL     1      27.551   0.852  54.749  1.00  0.00    -0.268 OA
HETATM   13  H6  UNL     1      27.545  -0.250  51.752  1.00  0.00     0.169 HD
BRANCH  11  14
HETATM   14  C3  UNL     1      29.530   0.046  53.644  1.00  0.00     0.070 C 
HETATM   15  C2  UNL     1      29.954  -1.184  53.415  1.00  0.00    -0.026 C 
HETATM   16  C1  UNL     1      28.997  -2.306  53.241  1.00  0.00     0.036 C 
ENDBRANCH  11  14
ENDBRANCH   9  10
BRANCH   9  17
HETATM   17  C19 UNL     1      24.930  -0.302  53.622  1.00  0.00     0.052 C 
HETATM   18  C20 UNL     1      23.512   0.152  53.349  1.00  0.00     0.011 C 
ENDBRANCH   9  17
ENDBRANCH   1   8
BRANCH   4  19
HETATM   19  N2  UNL     1      26.896   6.095  48.201  1.00  0.00    -0.344 N 
HETATM   20  H11 UNL     1      26.375   6.433  47.334  1.00  0.00     0.167 HD
BRANCH  19  21
HETATM   21  C11 UNL     1      28.229   6.554  48.373  1.00  0.00     0.034 A 
HETATM   22  C12 UNL     1      28.463   7.892  48.637  1.00  0.00     0.029 A 
HETATM   23  C13 UNL     1      29.696   8.456  48.827  1.00  0.00     0.003 A 
HETATM   24  C14 UNL     1      30.817   7.680  48.761  1.00  0.00     0.013 A 
HETATM   25  C15 UNL     1      30.583   6.360  48.501  1.00  0.00    -0.010 A 
HETATM   26  C17 UNL     1      29.355   5.771  48.307  1.00  0.00     0.043 A 
BRANCH  25  27
HETATM   27  C16 UNL     1      31.689   5.428  48.405  1.00  0.00     0.389 C 
HETATM   28  O2  UNL     1      32.076   4.267  48.190  1.00  0.00    -0.405 OA
ENDBRANCH  25  27
ENDBRANCH  19  21
ENDBRANCH   4  19
TORSDOF 7
ENDMDL
MODEL 8
REMARK VINA RESULT:      -7.6      2.368      7.922
REMARK  7 active torsions:
REMARK  status: ('A' for Active; 'I' for Inactive)
REMARK    1  A    between atoms: C3_3  and  C4_4 
REMARK       I    between atoms: C4_4  and  N1_6 
REMARK    2  A    between atoms: N1_6  and  C5_7 
REMARK    3  A    between atoms: C5_7  and  C19_25 
REMARK    4  A    between atoms: C6_8  and  C7_9 
REMARK    5  A    between atoms: C10_12  and  N2_13 
REMARK    6  A    between atoms: N2_13  and  C11_14 
REMARK    7  A    between atoms: C15_18  and  C16_19 
ROOT
HETATM    1  C7  UNL     1      24.656   0.500  52.760  1.00  0.00     0.029 C 
HETATM    2  C8  UNL     1      23.888  -0.184  53.605  1.00  0.00     0.043 A 
HETATM    3  C9  UNL     1      22.438  -0.319  53.314  1.00  0.00     0.137 A 
HETATM    4  C10 UNL     1      21.754  -1.092  54.353  1.00  0.00     0.111 A 
HETATM    5  N3  UNL     1      22.343  -1.600  55.398  1.00  0.00    -0.228 NA
HETATM    6  C18 UNL     1      23.735  -1.445  55.628  1.00  0.00     0.235 A 
HETATM    7  N4  UNL     1      24.434  -0.768  54.755  1.00  0.00    -0.246 NA
ENDROOT
BRANCH   1   8
HETATM    8  C6  UNL     1      26.090   0.641  53.034  1.00  0.00     0.027 C 
HETATM    9  C5  UNL     1      26.700   1.776  52.729  1.00  0.00     0.012 C 
BRANCH   9  10
HETATM   10  N1  UNL     1      25.951   2.845  52.136  1.00  0.00    -0.327 N 
HETATM   11  C4  UNL     1      26.034   3.230  50.789  1.00  0.00     0.245 C 
HETATM   12  O1  UNL     1      26.846   2.534  50.132  1.00  0.00    -0.268 OA
HETATM   13  H6  UNL     1      25.312   3.332  52.818  1.00  0.00     0.169 HD
BRANCH  11  14
HETATM   14  C3  UNL     1      25.246   4.328  50.246  1.00  0.00     0.070 C 
HETATM   15  C2  UNL     1      24.045   4.136  49.727  1.00  0.00    -0.026 C 
HETATM   16  C1  UNL     1      23.440   2.781  49.673  1.00  0.00     0.036 C 
ENDBRANCH  11  14
ENDBRANCH   9  10
BRANCH   9  17
HETATM   17  C19 UNL     1      28.151   1.950  52.994  1.00  0.00     0.052 C 
HETATM   18  C20 UNL     1      28.613   0.751  53.794  1.00  0.00     0.011 C 
ENDBRANCH   9  17
ENDBRANCH   1   8
BRANCH   4  19
HETATM   19  N2  UNL     1      20.364  -1.345  54.292  1.00  0.00    -0.344 N 
HETATM   20  H11 UNL     1      19.942  -1.914  55.090  1.00  0.00     0.167 HD
BRANCH  19  21
HETATM   21  C11 UNL     1      19.477  -0.906  53.273  1.00  0.00     0.034 A 
HETATM   22  C12 UNL     1      18.166  -1.351  53.269  1.00  0.00     0.029 A 
HETATM   23  C13 UNL     1      17.216  -0.999  52.348  1.00  0.00     0.003 A 
HETATM   24  C14 UNL     1      17.536  -0.146  51.332  1.00  0.00     0.013 A 
HETATM   25  C15 UNL     1      18.830   0.292  51.339  1.00  0.00    -0.010 A 
HETATM   26  C17 UNL     1      19.800  -0.047  52.253  1.00  0.00     0.043 A 
BRANCH  25  27
HETATM   27  C16 UNL     1      19.297   1.203  50.314  1.00  0.00     0.389 C 
HETATM   28  O2  UNL     1      20.012   1.392  49.316  1.00  0.00    -0.405 OA
ENDBRANCH  25  27
ENDBRANCH  19  21
ENDBRANCH   4  19
TORSDOF 7
ENDMDL
MODEL 9
REMARK VINA RESULT:      -7.4      4.491      6.362
REMARK  7 active torsions:
REMARK  status: ('A' for Active; 'I' for Inactive)
REMARK    1  A    between atoms: C3_3  and  C4_4 
REMARK       I    between atoms: C4_4  and  N1_6 
REMARK    2  A    between atoms: N1_6  and  C5_7 
REMARK    3  A    between atoms: C5_7  and  C19_25 
REMARK    4  A    between atoms: C6_8  and  C7_9 
REMARK    5  A    between atoms: C10_12  and  N2_13 
REMARK    6  A    between atoms: N2_13  and  C11_14 
REMARK    7  A    between atoms: C15_18  and  C16_19 
ROOT
HETATM    1  C7  UNL     1      24.440   2.644  52.536  1.00  0.00     0.029 C 
HETATM    2  C8  UNL     1      24.186   3.149  51.331  1.00  0.00     0.043 A 
HETATM    3  C9  UNL     1      24.952   4.335  50.870  1.00  0.00     0.137 A 
HETATM    4  C10 UNL     1      24.533   4.756  49.532  1.00  0.00     0.111 A 
HETATM    5  N3  UNL     1      23.607   4.162  48.832  1.00  0.00    -0.228 NA
HETATM    6  C18 UNL     1      22.907   3.028  49.318  1.00  0.00     0.235 A 
HETATM    7  N4  UNL     1      23.209   2.576  50.507  1.00  0.00    -0.246 NA
ENDROOT
BRANCH   1   8
HETATM    8  C6  UNL     1      23.693   1.472  53.004  1.00  0.00     0.027 C 
HETATM    9  C5  UNL     1      24.325   0.320  53.163  1.00  0.00     0.012 C 
BRANCH   9  10
HETATM   10  N1  UNL     1      25.727   0.237  52.874  1.00  0.00    -0.327 N 
HETATM   11  C4  UNL     1      26.738   0.111  53.841  1.00  0.00     0.245 C 
HETATM   12  O1  UNL     1      26.290   0.075  55.012  1.00  0.00    -0.268 OA
HETATM   13  H6  UNL     1      25.942   0.280  51.844  1.00  0.00     0.169 HD
BRANCH  11  14
HETATM   14  C3  UNL     1      28.147   0.032  53.483  1.00  0.00     0.070 C 
HETATM   15  C2  UNL     1      28.899   1.112  53.364  1.00  0.00    -0.026 C 
HETATM   16  C1  UNL     1      28.337   2.468  53.590  1.00  0.00     0.036 C 
ENDBRANCH  11  14
ENDBRANCH   9  10
BRANCH   9  17
HETATM   17  C19 UNL     1      23.596  -0.884  53.636  1.00  0.00     0.052 C 
HETATM   18  C20 UNL     1      22.235  -0.431  54.118  1.00  0.00     0.011 C 
ENDBRANCH   9  17
ENDBRANCH   1   8
BRANCH   4  19
HETATM   19  N2  UNL     1      25.118   5.871  48.889  1.00  0.00    -0.344 N 
HETATM   20  H11 UNL     1      24.455   6.629  48.538  1.00  0.00     0.167 HD
BRANCH  19  21
HETATM   21  C11 UNL     1      26.507   6.078  48.672  1.00  0.00     0.034 A 
HETATM   22  C12 UNL     1      27.358   4.988  48.598  1.00  0.00     0.029 A 
HETATM   23  C13 UNL     1      28.709   5.054  48.389  1.00  0.00     0.003 A 
HETATM   24  C14 UNL     1      29.316   6.267  48.235  1.00  0.00     0.013 A 
HETATM   25  C15 UNL     1      28.474   7.340  48.308  1.00  0.00    -0.010 A 
HETATM   26  C17 UNL     1      27.115   7.299  48.517  1.00  0.00     0.043 A 
BRANCH  25  27
HETATM   27  C16 UNL     1      28.993   8.685  48.161  1.00  0.00     0.389 C 
HETATM   28  O2  UNL     1      29.841   9.531  48.490  1.00  0.00    -0.405 OA
ENDBRANCH  25  27
ENDBRANCH  19  21
ENDBRANCH   4  19
TORSDOF 7
ENDMDL
