MODEL 1
REMARK VINA RESULT:      -7.0      0.000      0.000
REMARK  6 active torsions:
REMARK  status: ('A' for Active; 'I' for Inactive)
REMARK    1  A    between atoms: C4_5  and  C5_6 
REMARK    2  A    between atoms: N2_8  and  C6_9 
REMARK    3  A    between atoms: C6_9  and  C7_10 
REMARK    4  A    between atoms: C7_10  and  N3_11 
REMARK    5  A    between atoms: N3_11  and  S1_12 
REMARK    6  A    between atoms: S1_12  and  C8_15 
ROOT
HETATM    1  N3  UNL     1      26.363   2.856  51.876  1.00  0.00    -0.217 NA
HETATM    2  H10 UNL     1      26.263   3.110  52.893  1.00  0.00     0.139 HD
ENDROOT
BRANCH   1   3
HETATM    3  C7  UNL     1      26.618   1.452  51.719  1.00  0.00     0.124 C 
BRANCH   3   4
HETATM    4  C6  UNL     1      26.584   0.703  53.038  1.00  0.00     0.146 C 
BRANCH   4   5
HETATM    5  N2  UNL     1      27.764  -0.056  53.307  1.00  0.00    -0.331 N 
HETATM    6  C2  UNL     1      27.841  -1.380  53.002  1.00  0.00     0.102 A 
HETATM    7  C1  UNL     1      26.886  -2.351  52.385  1.00  0.00     0.091 C 
HETATM    8  N1  UNL     1      29.041  -1.869  53.352  1.00  0.00    -0.245 NA
HETATM    9  C3  UNL     1      29.784  -0.886  53.892  1.00  0.00     0.151 A 
HETATM   10  C4  UNL     1      28.964   0.224  53.849  1.00  0.00     0.091 A 
BRANCH  10  11
HETATM   11  C5  UNL     1      29.280   1.570  54.315  1.00  0.00     0.289 C 
HETATM   12  O1  UNL     1      28.641   2.652  54.235  1.00  0.00    -0.300 OA
ENDBRANCH  10  11
ENDBRANCH   4   5
ENDBRANCH   3   4
ENDBRANCH   1   3
BRANCH   1  13
HETATM   13  S1  UNL     1      24.902   3.291  51.090  1.00  0.00     0.220 S 
HETATM   14  O2  UNL     1      23.926   2.129  51.086  1.00  0.00    -0.210 OA
HETATM   15  O3  UNL     1      24.188   4.381  51.879  1.00  0.00    -0.210 OA
BRANCH  13  16
HETATM   16  C8  UNL     1      25.080   3.812  49.429  1.00  0.00     0.170 A 
HETATM   17  C9  UNL     1      24.550   5.155  49.126  1.00  0.00    -0.000 A 
HETATM   18  C10 UNL     1      25.530   5.986  48.753  1.00  0.00     0.016 A 
HETATM   19  C11 UNL     1      26.816   5.261  48.773  1.00  0.00     0.008 A 
HETATM   20 BR1  UNL     1      28.648   5.622  48.411  1.00  0.00    -0.051 Br
HETATM   21  C12 UNL     1      26.558   4.022  49.159  1.00  0.00     0.017 A 
ENDBRANCH  13  16
ENDBRANCH   1  13
TORSDOF 6
ENDMDL
MODEL 2
REMARK VINA RESULT:      -6.6      3.393      4.197
REMARK  6 active torsions:
REMARK  status: ('A' for Active; 'I' for Inactive)
REMARK    1  A    between atoms: C4_5  and  C5_6 
REMARK    2  A    between atoms: N2_8  and  C6_9 
REMARK    3  A    between atoms: C6_9  and  C7_10 
REMARK    4  A    between atoms: C7_10  and  N3_11 
REMARK    5  A    between atoms: N3_11  and  S1_12 
REMARK    6  A    between atoms: S1_12  and  C8_15 
ROOT
HETATM    1  N3  UNL     1      25.551   3.218  52.056  1.00  0.00    -0.217 NA
HETATM    2  H10 UNL     1      25.548   3.677  53.004  1.00  0.00     0.139 HD
ENDROOT
BRANCH   1   3
HETATM    3  C7  UNL     1      26.304   1.995  52.079  1.00  0.00     0.124 C 
BRANCH   3   4
HETATM    4  C6  UNL     1      26.630   1.539  53.489  1.00  0.00     0.146 C 
BRANCH   4   5
HETATM    5  N2  UNL     1      27.700   0.595  53.562  1.00  0.00    -0.331 N 
HETATM    6  C2  UNL     1      27.515  -0.714  53.236  1.00  0.00     0.102 A 
HETATM    7  C1  UNL     1      26.335  -1.501  52.766  1.00  0.00     0.091 C 
HETATM    8  N1  UNL     1      28.661  -1.396  53.388  1.00  0.00    -0.245 NA
HETATM    9  C3  UNL     1      29.626  -0.562  53.815  1.00  0.00     0.151 A 
HETATM   10  C4  UNL     1      28.997   0.664  53.912  1.00  0.00     0.091 A 
BRANCH  10  11
HETATM   11  C5  UNL     1      29.593   1.927  54.336  1.00  0.00     0.289 C 
HETATM   12  O1  UNL     1      29.780   2.420  55.479  1.00  0.00    -0.300 OA
ENDBRANCH  10  11
ENDBRANCH   4   5
ENDBRANCH   3   4
ENDBRANCH   1   3
BRANCH   1  13
HETATM   13  S1  UNL     1      23.918   2.907  51.630  1.00  0.00     0.220 S 
HETATM   14  O2  UNL     1      22.973   3.746  52.470  1.00  0.00    -0.210 OA
HETATM   15  O3  UNL     1      23.656   3.362  50.200  1.00  0.00    -0.210 OA
BRANCH  13  16
HETATM   16  C8  UNL     1      23.411   1.241  51.803  1.00  0.00     0.170 A 
HETATM   17  C9  UNL     1      23.065   0.825  53.176  1.00  0.00    -0.000 A 
HETATM   18  C10 UNL     1      21.772   0.491  53.265  1.00  0.00     0.016 A 
HETATM   19  C11 UNL     1      21.135   0.657  51.944  1.00  0.00     0.008 A 
HETATM   20 BR1  UNL     1      19.414   0.429  51.167  1.00  0.00    -0.051 Br
HETATM   21  C12 UNL     1      22.070   1.084  51.111  1.00  0.00     0.017 A 
ENDBRANCH  13  16
ENDBRANCH   1  13
TORSDOF 6
ENDMDL
MODEL 3
REMARK VINA RESULT:      -6.6      3.467      7.079
REMARK  6 active torsions:
REMARK  status: ('A' for Active; 'I' for Inactive)
REMARK    1  A    between atoms: C4_5  and  C5_6 
REMARK    2  A    between atoms: N2_8  and  C6_9 
REMARK    3  A    between atoms: C6_9  and  C7_10 
REMARK    4  A    between atoms: C7_10  and  N3_11 
REMARK    5  A    between atoms: N3_11  and  S1_12 
REMARK    6  A    between atoms: S1_12  and  C8_15 
ROOT
HETATM    1  N3  UNL     1      25.822   3.189  51.887  1.00  0.00    -0.217 NA
HETATM    2  H10 UNL     1      26.035   4.126  52.318  1.00  0.00     0.139 HD
ENDROOT
BRANCH   1   3
HETATM    3  C7  UNL     1      26.290   3.129  50.531  1.00  0.00     0.124 C 
BRANCH   3   4
HETATM    4  C6  UNL     1      25.443   3.960  49.585  1.00  0.00     0.146 C 
BRANCH   4   5
HETATM    5  N2  UNL     1      25.600   5.370  49.750  1.00  0.00    -0.331 N 
HETATM    6  C2  UNL     1      26.645   6.038  49.190  1.00  0.00     0.102 A 
HETATM    7  C1  UNL     1      27.804   5.614  48.346  1.00  0.00     0.091 C 
HETATM    8  N1  UNL     1      26.576   7.345  49.490  1.00  0.00    -0.245 NA
HETATM    9  C3  UNL     1      25.490   7.572  50.250  1.00  0.00     0.151 A 
HETATM   10  C4  UNL     1      24.907   6.328  50.393  1.00  0.00     0.091 A 
BRANCH  10  11
HETATM   11  C5  UNL     1      23.692   6.006  51.134  1.00  0.00     0.289 C 
HETATM   12  O1  UNL     1      23.508   5.334  52.183  1.00  0.00    -0.300 OA
ENDBRANCH  10  11
ENDBRANCH   4   5
ENDBRANCH   3   4
ENDBRANCH   1   3
BRANCH   1  13
HETATM   13  S1  UNL     1      26.598   1.994  52.842  1.00  0.00     0.220 S 
HETATM   14  O2  UNL     1      28.080   1.927  52.521  1.00  0.00    -0.210 OA
HETATM   15  O3  UNL     1      26.548   2.387  54.313  1.00  0.00    -0.210 OA
BRANCH  13  16
HETATM   16  C8  UNL     1      25.964   0.373  52.660  1.00  0.00     0.170 A 
HETATM   17  C9  UNL     1      26.225  -0.538  53.791  1.00  0.00    -0.000 A 
HETATM   18  C10 UNL     1      25.082  -0.914  54.378  1.00  0.00     0.016 A 
HETATM   19  C11 UNL     1      23.946  -0.280  53.681  1.00  0.00     0.008 A 
HETATM   20 BR1  UNL     1      22.049  -0.243  53.814  1.00  0.00    -0.051 Br
HETATM   21  C12 UNL     1      24.450   0.453  52.702  1.00  0.00     0.017 A 
ENDBRANCH  13  16
ENDBRANCH   1  13
TORSDOF 6
ENDMDL
MODEL 4
REMARK VINA RESULT:      -6.4      3.566      4.189
REMARK  6 active torsions:
REMARK  status: ('A' for Active; 'I' for Inactive)
REMARK    1  A    between atoms: C4_5  and  C5_6 
REMARK    2  A    between atoms: N2_8  and  C6_9 
REMARK    3  A    between atoms: C6_9  and  C7_10 
REMARK    4  A    between atoms: C7_10  and  N3_11 
REMARK    5  A    between atoms: N3_11  and  S1_12 
REMARK    6  A    between atoms: S1_12  and  C8_15 
ROOT
HETATM    1  N3  UNL     1      24.352   3.462  52.987  1.00  0.00    -0.217 NA
HETATM    2  H10 UNL     1      23.657   3.060  53.669  1.00  0.00     0.139 HD
ENDROOT
BRANCH   1   3
HETATM    3  C7  UNL     1      25.397   2.520  52.703  1.00  0.00     0.124 C 
BRANCH   3   4
HETATM    4  C6  UNL     1      26.056   1.985  53.961  1.00  0.00     0.146 C 
BRANCH   4   5
HETATM    5  N2  UNL     1      26.826   0.800  53.755  1.00  0.00    -0.331 N 
HETATM    6  C2  UNL     1      26.229  -0.404  53.537  1.00  0.00     0.102 A 
HETATM    7  C1  UNL     1      24.804  -0.846  53.449  1.00  0.00     0.091 C 
HETATM    8  N1  UNL     1      27.158  -1.361  53.377  1.00  0.00    -0.245 NA
HETATM    9  C3  UNL     1      28.383  -0.817  53.484  1.00  0.00     0.151 A 
HETATM   10  C4  UNL     1      28.142   0.523  53.718  1.00  0.00     0.091 A 
BRANCH  10  11
HETATM   11  C5  UNL     1      29.135   1.575  53.913  1.00  0.00     0.289 C 
HETATM   12  O1  UNL     1      29.446   2.250  54.930  1.00  0.00    -0.300 OA
ENDBRANCH  10  11
ENDBRANCH   4   5
ENDBRANCH   3   4
ENDBRANCH   1   3
BRANCH   1  13
HETATM   13  S1  UNL     1      23.497   3.858  51.553  1.00  0.00     0.220 S 
HETATM   14  O2  UNL     1      23.058   5.311  51.571  1.00  0.00    -0.210 OA
HETATM   15  O3  UNL     1      24.422   3.757  50.348  1.00  0.00    -0.210 OA
BRANCH  13  16
HETATM   16  C8  UNL     1      22.064   2.898  51.256  1.00  0.00     0.170 A 
HETATM   17  C9  UNL     1      22.280   1.662  50.480  1.00  0.00    -0.000 A 
HETATM   18  C10 UNL     1      21.997   0.578  51.213  1.00  0.00     0.016 A 
HETATM   19  C11 UNL     1      21.561   1.002  52.558  1.00  0.00     0.008 A 
HETATM   20 BR1  UNL     1      20.989   0.189  54.180  1.00  0.00    -0.051 Br
HETATM   21  C12 UNL     1      21.599   2.324  52.582  1.00  0.00     0.017 A 
ENDBRANCH  13  16
ENDBRANCH   1  13
TORSDOF 6
ENDMDL
MODEL 5
REMARK VINA RESULT:      -6.4      2.181      2.532
REMARK  6 active torsions:
REMARK  status: ('A' for Active; 'I' for Inactive)
REMARK    1  A    between atoms: C4_5  and  C5_6 
REMARK    2  A    between atoms: N2_8  and  C6_9 
REMARK    3  A    between atoms: C6_9  and  C7_10 
REMARK    4  A    between atoms: C7_10  and  N3_11 
REMARK    5  A    between atoms: N3_11  and  S1_12 
REMARK    6  A    between atoms: S1_12  and  C8_15 
ROOT
HETATM    1  N3  UNL     1      23.258   3.175  51.456  1.00  0.00    -0.217 NA
HETATM    2  H10 UNL     1      22.783   2.305  51.102  1.00  0.00     0.139 HD
ENDROOT
BRANCH   1   3
HETATM    3  C7  UNL     1      24.269   2.852  52.424  1.00  0.00     0.124 C 
BRANCH   3   4
HETATM    4  C6  UNL     1      25.013   1.575  52.083  1.00  0.00     0.146 C 
BRANCH   4   5
HETATM    5  N2  UNL     1      25.609   0.930  53.210  1.00  0.00    -0.331 N 
HETATM    6  C2  UNL     1      24.970  -0.071  53.874  1.00  0.00     0.102 A 
HETATM    7  C1  UNL     1      23.646  -0.744  53.698  1.00  0.00     0.091 C 
HETATM    8  N1  UNL     1      25.726  -0.510  54.893  1.00  0.00    -0.245 NA
HETATM    9  C3  UNL     1      26.877   0.185  54.927  1.00  0.00     0.151 A 
HETATM   10  C4  UNL     1      26.773   1.069  53.872  1.00  0.00     0.091 A 
BRANCH  10  11
HETATM   11  C5  UNL     1      27.756   2.065  53.457  1.00  0.00     0.289 C 
HETATM   12  O1  UNL     1      28.670   2.650  54.094  1.00  0.00    -0.300 OA
ENDBRANCH  10  11
ENDBRANCH   4   5
ENDBRANCH   3   4
ENDBRANCH   1   3
BRANCH   1  13
HETATM   13  S1  UNL     1      23.956   3.967  50.103  1.00  0.00     0.220 S 
HETATM   14  O2  UNL     1      24.024   3.034  48.909  1.00  0.00    -0.210 OA
HETATM   15  O3  UNL     1      23.055   5.106  49.642  1.00  0.00    -0.210 OA
BRANCH  13  16
HETATM   16  C8  UNL     1      25.573   4.585  50.359  1.00  0.00     0.170 A 
HETATM   17  C9  UNL     1      26.651   3.829  49.692  1.00  0.00    -0.000 A 
HETATM   18  C10 UNL     1      27.268   4.583  48.773  1.00  0.00     0.016 A 
HETATM   19  C11 UNL     1      26.649   5.922  48.747  1.00  0.00     0.008 A 
HETATM   20 BR1  UNL     1      26.863   7.560  47.804  1.00  0.00    -0.051 Br
HETATM   21  C12 UNL     1      25.683   5.922  49.651  1.00  0.00     0.017 A 
ENDBRANCH  13  16
ENDBRANCH   1  13
TORSDOF 6
ENDMDL
MODEL 6
REMARK VINA RESULT:      -6.3      2.128      2.672
REMARK  6 active torsions:
REMARK  status: ('A' for Active; 'I' for Inactive)
REMARK    1  A    between atoms: C4_5  and  C5_6 
REMARK    2  A    between atoms: N2_8  and  C6_9 
REMARK    3  A    between atoms: C6_9  and  C7_10 
REMARK    4  A    between atoms: C7_10  and  N3_11 
REMARK    5  A    between atoms: N3_11  and  S1_12 
REMARK    6  A    between atoms: S1_12  and  C8_15 
ROOT
HETATM    1  N3  UNL     1      24.446   3.709  52.391  1.00  0.00    -0.217 NA
HETATM    2  H10 UNL     1      24.742   4.183  53.284  1.00  0.00     0.139 HD
ENDROOT
BRANCH   1   3
HETATM    3  C7  UNL     1      23.530   2.635  52.659  1.00  0.00     0.124 C 
BRANCH   3   4
HETATM    4  C6  UNL     1      23.929   1.344  51.969  1.00  0.00     0.146 C 
BRANCH   4   5
HETATM    5  N2  UNL     1      24.879   0.565  52.698  1.00  0.00    -0.331 N 
HETATM    6  C2  UNL     1      24.486  -0.333  53.642  1.00  0.00     0.102 A 
HETATM    7  C1  UNL     1      23.152  -0.757  54.168  1.00  0.00     0.091 C 
HETATM    8  N1  UNL     1      25.556  -0.934  54.186  1.00  0.00    -0.245 NA
HETATM    9  C3  UNL     1      26.676  -0.452  53.619  1.00  0.00     0.151 A 
HETATM   10  C4  UNL     1      26.222   0.474  52.701  1.00  0.00     0.091 A 
BRANCH  10  11
HETATM   11  C5  UNL     1      27.031   1.297  51.807  1.00  0.00     0.289 C 
HETATM   12  O1  UNL     1      27.291   2.529  51.814  1.00  0.00    -0.300 OA
ENDBRANCH  10  11
ENDBRANCH   4   5
ENDBRANCH   3   4
ENDBRANCH   1   3
BRANCH   1  13
HETATM   13  S1  UNL     1      23.703   4.895  51.399  1.00  0.00     0.220 S 
HETATM   14  O2  UNL     1      22.193   4.845  51.537  1.00  0.00    -0.210 OA
HETATM   15  O3  UNL     1      24.081   6.290  51.880  1.00  0.00    -0.210 OA
BRANCH  13  16
HETATM   16  C8  UNL     1      24.062   4.762  49.691  1.00  0.00     0.170 A 
HETATM   17  C9  UNL     1      23.900   6.005  48.912  1.00  0.00    -0.000 A 
HETATM   18  C10 UNL     1      25.071   6.412  48.408  1.00  0.00     0.016 A 
HETATM   19  C11 UNL     1      26.129   5.465  48.810  1.00  0.00     0.008 A 
HETATM   20 BR1  UNL     1      28.004   5.254  48.566  1.00  0.00    -0.051 Br
HETATM   21  C12 UNL     1      25.553   4.525  49.541  1.00  0.00     0.017 A 
ENDBRANCH  13  16
ENDBRANCH   1  13
TORSDOF 6
ENDMDL
MODEL 7
REMARK VINA RESULT:      -6.2      1.762      2.548
REMARK  6 active torsions:
REMARK  status: ('A' for Active; 'I' for Inactive)
REMARK    1  A    between atoms: C4_5  and  C5_6 
REMARK    2  A    between atoms: N2_8  and  C6_9 
REMARK    3  A    between atoms: C6_9  and  C7_10 
REMARK    4  A    between atoms: C7_10  and  N3_11 
REMARK    5  A    between atoms: N3_11  and  S1_12 
REMARK    6  A    between atoms: S1_12  and  C8_15 
ROOT
HETATM    1  N3  UNL     1      25.831   3.385  51.500  1.00  0.00    -0.217 NA
HETATM    2  H10 UNL     1      25.810   3.695  52.506  1.00  0.00     0.139 HD
ENDROOT
BRANCH   1   3
HETATM    3  C7  UNL     1      26.091   1.977  51.401  1.00  0.00     0.124 C 
BRANCH   3   4
HETATM    4  C6  UNL     1      26.101   1.290  52.754  1.00  0.00     0.146 C 
BRANCH   4   5
HETATM    5  N2  UNL     1      27.293   0.550  53.022  1.00  0.00    -0.331 N 
HETATM    6  C2  UNL     1      28.438   1.168  53.421  1.00  0.00     0.102 A 
HETATM    7  C1  UNL     1      28.801   2.595  53.680  1.00  0.00     0.091 C 
HETATM    8  N1  UNL     1      29.414   0.265  53.604  1.00  0.00    -0.245 NA
HETATM    9  C3  UNL     1      28.942  -0.965  53.334  1.00  0.00     0.151 A 
HETATM   10  C4  UNL     1      27.626  -0.753  52.976  1.00  0.00     0.091 A 
BRANCH  10  11
HETATM   11  C5  UNL     1      26.648  -1.763  52.581  1.00  0.00     0.289 C 
HETATM   12  O1  UNL     1      26.754  -2.791  51.862  1.00  0.00    -0.300 OA
ENDBRANCH  10  11
ENDBRANCH   4   5
ENDBRANCH   3   4
ENDBRANCH   1   3
BRANCH   1  13
HETATM   13  S1  UNL     1      24.305   3.762  50.812  1.00  0.00     0.220 S 
HETATM   14  O2  UNL     1      23.847   2.657  49.879  1.00  0.00    -0.210 OA
HETATM   15  O3  UNL     1      23.239   3.805  51.899  1.00  0.00    -0.210 OA
BRANCH  13  16
HETATM   16  C8  UNL     1      24.252   5.254  49.899  1.00  0.00     0.170 A 
HETATM   17  C9  UNL     1      24.406   6.488  50.694  1.00  0.00    -0.000 A 
HETATM   18  C10 UNL     1      25.523   7.143  50.354  1.00  0.00     0.016 A 
HETATM   19  C11 UNL     1      26.220   6.394  49.289  1.00  0.00     0.008 A 
HETATM   20 BR1  UNL     1      27.802   6.562  48.248  1.00  0.00    -0.051 Br
HETATM   21  C12 UNL     1      25.494   5.318  49.031  1.00  0.00     0.017 A 
ENDBRANCH  13  16
ENDBRANCH   1  13
TORSDOF 6
ENDMDL
MODEL 8
REMARK VINA RESULT:      -6.2      2.941      3.926
REMARK  6 active torsions:
REMARK  status: ('A' for Active; 'I' for Inactive)
REMARK    1  A    between atoms: C4_5  and  C5_6 
REMARK    2  A    between atoms: N2_8  and  C6_9 
REMARK    3  A    between atoms: C6_9  and  C7_10 
REMARK    4  A    between atoms: C7_10  and  N3_11 
REMARK    5  A    between atoms: N3_11  and  S1_12 
REMARK    6  A    between atoms: S1_12  and  C8_15 
ROOT
HETATM    1  N3  UNL     1      22.395   2.874  51.643  1.00  0.00    -0.217 NA
HETATM    2  H10 UNL     1      21.718   2.189  51.217  1.00  0.00     0.139 HD
ENDROOT
BRANCH   1   3
HETATM    3  C7  UNL     1      23.272   2.219  52.573  1.00  0.00     0.124 C 
BRANCH   3   4
HETATM    4  C6  UNL     1      23.445   0.743  52.269  1.00  0.00     0.146 C 
BRANCH   4   5
HETATM    5  N2  UNL     1      24.040  -0.004  53.331  1.00  0.00    -0.331 N 
HETATM    6  C2  UNL     1      25.389  -0.160  53.420  1.00  0.00     0.102 A 
HETATM    7  C1  UNL     1      26.537   0.310  52.586  1.00  0.00     0.091 C 
HETATM    8  N1  UNL     1      25.701  -0.900  54.496  1.00  0.00    -0.245 NA
HETATM    9  C3  UNL     1      24.574  -1.249  55.141  1.00  0.00     0.151 A 
HETATM   10  C4  UNL     1      23.563  -0.679  54.394  1.00  0.00     0.091 A 
BRANCH  10  11
HETATM   11  C5  UNL     1      22.128  -0.750  54.654  1.00  0.00     0.289 C 
HETATM   12  O1  UNL     1      21.400  -1.694  55.057  1.00  0.00    -0.300 OA
ENDBRANCH  10  11
ENDBRANCH   4   5
ENDBRANCH   3   4
ENDBRANCH   1   3
BRANCH   1  13
HETATM   13  S1  UNL     1      23.296   3.574  50.362  1.00  0.00     0.220 S 
HETATM   14  O2  UNL     1      23.349   2.639  49.167  1.00  0.00    -0.210 OA
HETATM   15  O3  UNL     1      22.584   4.815  49.839  1.00  0.00    -0.210 OA
BRANCH  13  16
HETATM   16  C8  UNL     1      24.949   3.988  50.758  1.00  0.00     0.170 A 
HETATM   17  C9  UNL     1      25.979   3.100  50.182  1.00  0.00    -0.000 A 
HETATM   18  C10 UNL     1      26.761   3.766  49.323  1.00  0.00     0.016 A 
HETATM   19  C11 UNL     1      26.317   5.171  49.250  1.00  0.00     0.008 A 
HETATM   20 BR1  UNL     1      26.812   6.765  48.337  1.00  0.00    -0.051 Br
HETATM   21  C12 UNL     1      25.284   5.297  50.068  1.00  0.00     0.017 A 
ENDBRANCH  13  16
ENDBRANCH   1  13
TORSDOF 6
ENDMDL
MODEL 9
REMARK VINA RESULT:      -6.2      3.557      4.251
REMARK  6 active torsions:
REMARK  status: ('A' for Active; 'I' for Inactive)
REMARK    1  A    between atoms: C4_5  and  C5_6 
REMARK    2  A    between atoms: N2_8  and  C6_9 
REMARK    3  A    between atoms: C6_9  and  C7_10 
REMARK    4  A    between atoms: C7_10  and  N3_11 
REMARK    5  A    between atoms: N3_11  and  S1_12 
REMARK    6  A    between atoms: S1_12  and  C8_15 
ROOT
HETATM    1  N3  UNL     1      22.291   2.865  51.809  1.00  0.00    -0.217 NA
HETATM    2  H10 UNL     1      21.542   2.249  51.399  1.00  0.00     0.139 HD
ENDROOT
BRANCH   1   3
HETATM    3  C7  UNL     1      23.142   2.120  52.694  1.00  0.00     0.124 C 
BRANCH   3   4
HETATM    4  C6  UNL     1      23.122   0.631  52.404  1.00  0.00     0.146 C 
BRANCH   4   5
HETATM    5  N2  UNL     1      22.964  -0.186  53.565  1.00  0.00    -0.331 N 
HETATM    6  C2  UNL     1      21.732  -0.552  54.013  1.00  0.00     0.102 A 
HETATM    7  C1  UNL     1      20.341  -0.281  53.537  1.00  0.00     0.091 C 
HETATM    8  N1  UNL     1      21.845  -1.310  55.115  1.00  0.00    -0.245 NA
HETATM    9  C3  UNL     1      23.146  -1.465  55.420  1.00  0.00     0.151 A 
HETATM   10  C4  UNL     1      23.812  -0.756  54.441  1.00  0.00     0.091 A 
BRANCH  10  11
HETATM   11  C5  UNL     1      25.256  -0.593  54.300  1.00  0.00     0.289 C 
HETATM   12  O1  UNL     1      26.179  -0.562  55.156  1.00  0.00    -0.300 OA
ENDBRANCH  10  11
ENDBRANCH   4   5
ENDBRANCH   3   4
ENDBRANCH   1   3
BRANCH   1  13
HETATM   13  S1  UNL     1      23.201   3.509  50.505  1.00  0.00     0.220 S 
HETATM   14  O2  UNL     1      23.232   2.538  49.339  1.00  0.00    -0.210 OA
HETATM   15  O3  UNL     1      22.510   4.746  49.946  1.00  0.00    -0.210 OA
BRANCH  13  16
HETATM   16  C8  UNL     1      24.863   3.903  50.884  1.00  0.00     0.170 A 
HETATM   17  C9  UNL     1      25.875   2.992  50.315  1.00  0.00    -0.000 A 
HETATM   18  C10 UNL     1      26.660   3.632  49.441  1.00  0.00     0.016 A 
HETATM   19  C11 UNL     1      26.237   5.044  49.350  1.00  0.00     0.008 A 
HETATM   20 BR1  UNL     1      26.751   6.615  48.409  1.00  0.00    -0.051 Br
HETATM   21  C12 UNL     1      25.213   5.197  50.173  1.00  0.00     0.017 A 
ENDBRANCH  13  16
ENDBRANCH   1  13
TORSDOF 6
ENDMDL
