MODEL 1
REMARK VINA RESULT:      -9.0      0.000      0.000
REMARK  3 active torsions:
REMARK  status: ('A' for Active; 'I' for Inactive)
REMARK    1  A    between atoms: N2_18  and  C15_19 
REMARK    2  A    between atoms: C15_19  and  C16_20 
REMARK    3  A    between atoms: C21_26  and  O3_27 
ROOT
HETATM    1  O1  UNL     1      23.096   1.825  52.253  1.00  0.00    -0.122 OA
HETATM    2  C1  UNL     1      23.182   2.939  52.689  1.00  0.00     0.451 A 
HETATM    3  N1  UNL     1      21.855   3.176  52.133  1.00  0.00    -0.324 N 
HETATM    4  C2  UNL     1      20.746   2.547  51.392  1.00  0.00     0.039 A 
HETATM    5  C3  UNL     1      20.170   3.404  50.521  1.00  0.00     0.030 A 
HETATM    6  C4  UNL     1      19.143   2.933  49.754  1.00  0.00     0.002 A 
HETATM    7  C5  UNL     1      18.756   1.631  49.910  1.00  0.00     0.001 A 
HETATM    8  C6  UNL     1      19.393   0.847  50.810  1.00  0.00     0.010 A 
HETATM    9  C7  UNL     1      20.458   1.188  51.663  1.00  0.00    -0.022 A 
HETATM   10  C8  UNL     1      20.956   0.147  52.546  1.00  0.00     0.068 C 
HETATM   11  C9  UNL     1      22.262  -0.491  52.214  1.00  0.00    -0.006 C 
HETATM   12  C10 UNL     1      23.393  -0.348  53.017  1.00  0.00    -0.031 C 
HETATM   13  C11 UNL     1      23.500  -0.893  54.356  1.00  0.00     0.032 C 
HETATM   14  C12 UNL     1      22.432  -0.989  55.176  1.00  0.00     0.135 C 
HETATM   15  O2  UNL     1      21.099  -0.621  54.867  1.00  0.00    -0.362 OA
HETATM   16  C13 UNL     1      20.810   0.501  54.011  1.00  0.00     0.187 C 
HETATM   17  C14 UNL     1      24.436   0.494  52.282  1.00  0.00     0.319 C 
HETATM   18  N2  UNL     1      24.214   1.893  52.836  1.00  0.00     0.121 N 
HETATM   19  H1  UNL     1      21.865   4.163  52.464  1.00  0.00     0.165 HD
ENDROOT
BRANCH  18  20
HETATM   20  C15 UNL     1      25.229   2.462  53.741  1.00  0.00     0.322 C 
BRANCH  20  21
HETATM   21  C16 UNL     1      26.485   1.686  53.766  1.00  0.00     0.004 A 
HETATM   22  C17 UNL     1      26.614   0.708  54.757  1.00  0.00     0.013 A 
HETATM   23  C18 UNL     1      27.798  -0.038  54.790  1.00  0.00     0.024 A 
HETATM   24  C19 UNL     1      28.761   0.228  53.859  1.00  0.00     0.036 A 
HETATM   25 CL1  UNL     1      30.201  -0.769  53.997  1.00  0.00    -0.084 Cl
HETATM   26  C20 UNL     1      28.669   1.183  52.871  1.00  0.00     0.060 A 
HETATM   27  C21 UNL     1      27.486   1.917  52.849  1.00  0.00     0.075 A 
BRANCH  27  28
HETATM   28  O3  UNL     1      27.386   2.879  51.856  1.00  0.00    -0.360 OA
HETATM   29  H19 UNL     1      27.910   2.660  51.002  1.00  0.00     0.217 HD
ENDBRANCH  27  28
ENDBRANCH  20  21
ENDBRANCH  18  20
TORSDOF 3
ENDMDL
MODEL 2
REMARK VINA RESULT:      -8.8      2.204      3.043
REMARK  3 active torsions:
REMARK  status: ('A' for Active; 'I' for Inactive)
REMARK    1  A    between atoms: N2_18  and  C15_19 
REMARK    2  A    between atoms: C15_19  and  C16_20 
REMARK    3  A    between atoms: C21_26  and  O3_27 
ROOT
HETATM    1  O1  UNL     1      23.205   3.847  51.704  1.00  0.00    -0.122 OA
HETATM    2  C1  UNL     1      23.529   4.471  52.676  1.00  0.00     0.451 A 
HETATM    3  N1  UNL     1      22.597   5.500  52.229  1.00  0.00    -0.324 N 
HETATM    4  C2  UNL     1      21.620   5.846  51.182  1.00  0.00     0.039 A 
HETATM    5  C3  UNL     1      21.664   7.158  50.863  1.00  0.00     0.030 A 
HETATM    6  C4  UNL     1      20.821   7.602  49.884  1.00  0.00     0.002 A 
HETATM    7  C5  UNL     1      19.985   6.700  49.285  1.00  0.00     0.001 A 
HETATM    8  C6  UNL     1      20.012   5.404  49.672  1.00  0.00     0.010 A 
HETATM    9  C7  UNL     1      20.819   4.805  50.657  1.00  0.00    -0.022 A 
HETATM   10  C8  UNL     1      20.639   3.380  50.879  1.00  0.00     0.068 C 
HETATM   11  C9  UNL     1      21.684   2.451  50.362  1.00  0.00    -0.006 C 
HETATM   12  C10 UNL     1      22.496   1.692  51.204  1.00  0.00    -0.031 C 
HETATM   13  C11 UNL     1      22.001   0.620  52.045  1.00  0.00     0.032 C 
HETATM   14  C12 UNL     1      20.769   0.656  52.597  1.00  0.00     0.135 C 
HETATM   15  O2  UNL     1      19.802   1.678  52.428  1.00  0.00    -0.362 OA
HETATM   16  C13 UNL     1      20.186   3.059  52.288  1.00  0.00     0.187 C 
HETATM   17  C14 UNL     1      23.935   2.205  51.122  1.00  0.00     0.319 C 
HETATM   18  N2  UNL     1      24.047   3.134  52.321  1.00  0.00     0.121 N 
HETATM   19  H1  UNL     1      22.842   6.109  53.039  1.00  0.00     0.165 HD
ENDROOT
BRANCH  18  20
HETATM   20  C15 UNL     1      24.869   2.710  53.467  1.00  0.00     0.322 C 
BRANCH  20  21
HETATM   21  C16 UNL     1      25.574   1.433  53.236  1.00  0.00     0.004 A 
HETATM   22  C17 UNL     1      24.947   0.265  53.680  1.00  0.00     0.013 A 
HETATM   23  C18 UNL     1      25.601  -0.952  53.463  1.00  0.00     0.024 A 
HETATM   24  C19 UNL     1      26.812  -0.937  52.834  1.00  0.00     0.036 A 
HETATM   25 CL1  UNL     1      27.540  -2.522  52.616  1.00  0.00    -0.084 Cl
HETATM   26  C20 UNL     1      27.461   0.192  52.384  1.00  0.00     0.060 A 
HETATM   27  C21 UNL     1      26.798   1.396  52.605  1.00  0.00     0.075 A 
BRANCH  27  28
HETATM   28  O3  UNL     1      27.444   2.537  52.154  1.00  0.00    -0.360 OA
HETATM   29  H19 UNL     1      27.983   2.404  51.291  1.00  0.00     0.217 HD
ENDBRANCH  27  28
ENDBRANCH  20  21
ENDBRANCH  18  20
TORSDOF 3
ENDMDL
MODEL 3
REMARK VINA RESULT:      -8.4      3.856      6.238
REMARK  3 active torsions:
REMARK  status: ('A' for Active; 'I' for Inactive)
REMARK    1  A    between atoms: N2_18  and  C15_19 
REMARK    2  A    between atoms: C15_19  and  C16_20 
REMARK    3  A    between atoms: C21_26  and  O3_27 
ROOT
HETATM    1  O1  UNL     1      23.047   2.538  52.100  1.00  0.00    -0.122 OA
HETATM    2  C1  UNL     1      24.196   2.264  51.890  1.00  0.00     0.451 A 
HETATM    3  N1  UNL     1      23.918   0.971  52.505  1.00  0.00    -0.324 N 
HETATM    4  C2  UNL     1      22.862   0.151  53.124  1.00  0.00     0.039 A 
HETATM    5  C3  UNL     1      23.332  -0.583  54.157  1.00  0.00     0.030 A 
HETATM    6  C4  UNL     1      22.442  -1.369  54.833  1.00  0.00     0.002 A 
HETATM    7  C5  UNL     1      21.136  -1.372  54.429  1.00  0.00     0.001 A 
HETATM    8  C6  UNL     1      20.758  -0.604  53.382  1.00  0.00     0.010 A 
HETATM    9  C7  UNL     1      21.553   0.250  52.596  1.00  0.00    -0.022 A 
HETATM   10  C8  UNL     1      20.889   0.962  51.517  1.00  0.00     0.068 C 
HETATM   11  C9  UNL     1      20.621   2.417  51.695  1.00  0.00    -0.006 C 
HETATM   12  C10 UNL     1      21.241   3.395  50.917  1.00  0.00    -0.031 C 
HETATM   13  C11 UNL     1      21.008   3.556  49.495  1.00  0.00     0.032 C 
HETATM   14  C12 UNL     1      20.749   2.504  48.690  1.00  0.00     0.135 C 
HETATM   15  O2  UNL     1      20.639   1.148  49.088  1.00  0.00    -0.362 OA
HETATM   16  C13 UNL     1      21.445   0.610  50.153  1.00  0.00     0.187 C 
HETATM   17  C14 UNL     1      22.207   4.201  51.787  1.00  0.00     0.319 C 
HETATM   18  N2  UNL     1      23.552   3.542  51.523  1.00  0.00     0.121 N 
HETATM   19  H1  UNL     1      24.906   0.669  52.374  1.00  0.00     0.165 HD
ENDROOT
BRANCH  18  20
HETATM   20  C15 UNL     1      24.554   4.277  50.731  1.00  0.00     0.322 C 
BRANCH  20  21
HETATM   21  C16 UNL     1      24.069   5.586  50.251  1.00  0.00     0.004 A 
HETATM   22  C17 UNL     1      23.618   5.657  48.929  1.00  0.00     0.013 A 
HETATM   23  C18 UNL     1      23.151   6.890  48.462  1.00  0.00     0.024 A 
HETATM   24  C19 UNL     1      23.160   7.955  49.316  1.00  0.00     0.036 A 
HETATM   25 CL1  UNL     1      22.551   9.451  48.621  1.00  0.00    -0.084 Cl
HETATM   26  C20 UNL     1      23.596   7.924  50.622  1.00  0.00     0.060 A 
HETATM   27  C21 UNL     1      24.058   6.691  51.074  1.00  0.00     0.075 A 
BRANCH  27  28
HETATM   28  O3  UNL     1      24.497   6.651  52.388  1.00  0.00    -0.360 OA
HETATM   29  H19 UNL     1      23.919   6.075  53.009  1.00  0.00     0.217 HD
ENDBRANCH  27  28
ENDBRANCH  20  21
ENDBRANCH  18  20
TORSDOF 3
ENDMDL
MODEL 4
REMARK VINA RESULT:      -8.3      3.604      7.650
REMARK  3 active torsions:
REMARK  status: ('A' for Active; 'I' for Inactive)
REMARK    1  A    between atoms: N2_18  and  C15_19 
REMARK    2  A    between atoms: C15_19  and  C16_20 
REMARK    3  A    between atoms: C21_26  and  O3_27 
ROOT
HETATM    1  O1  UNL     1      22.434   0.753  52.196  1.00  0.00    -0.122 OA
HETATM    2  C1  UNL     1      22.025   0.359  53.253  1.00  0.00     0.451 A 
HETATM    3  N1  UNL     1      23.412   0.057  53.589  1.00  0.00    -0.324 N 
HETATM    4  C2  UNL     1      24.797   0.120  53.090  1.00  0.00     0.039 A 
HETATM    5  C3  UNL     1      25.518  -0.959  53.464  1.00  0.00     0.030 A 
HETATM    6  C4  UNL     1      26.816  -1.031  53.041  1.00  0.00     0.002 A 
HETATM    7  C5  UNL     1      27.309  -0.015  52.271  1.00  0.00     0.001 A 
HETATM    8  C6  UNL     1      26.510   1.027  51.948  1.00  0.00     0.010 A 
HETATM    9  C7  UNL     1      25.166   1.239  52.305  1.00  0.00    -0.022 A 
HETATM   10  C8  UNL     1      24.539   2.459  51.824  1.00  0.00     0.068 C 
HETATM   11  C9  UNL     1      23.562   2.353  50.704  1.00  0.00    -0.006 C 
HETATM   12  C10 UNL     1      22.207   2.639  50.859  1.00  0.00    -0.031 C 
HETATM   13  C11 UNL     1      21.694   3.965  51.142  1.00  0.00     0.032 C 
HETATM   14  C12 UNL     1      22.383   4.853  51.890  1.00  0.00     0.135 C 
HETATM   15  O2  UNL     1      23.663   4.654  52.464  1.00  0.00    -0.362 OA
HETATM   16  C13 UNL     1      24.076   3.362  52.948  1.00  0.00     0.187 C 
HETATM   17  C14 UNL     1      21.396   1.348  50.734  1.00  0.00     0.319 C 
HETATM   18  N2  UNL     1      21.182   0.924  52.179  1.00  0.00     0.121 N 
HETATM   19  H1  UNL     1      23.130  -0.320  54.518  1.00  0.00     0.165 HD
ENDROOT
BRANCH  18  20
HETATM   20  C15 UNL     1      19.831   1.041  52.756  1.00  0.00     0.322 C 
BRANCH  20  21
HETATM   21  C16 UNL     1      18.768   1.117  51.734  1.00  0.00     0.004 A 
HETATM   22  C17 UNL     1      18.405  -0.074  51.097  1.00  0.00     0.013 A 
HETATM   23  C18 UNL     1      17.396  -0.018  50.129  1.00  0.00     0.024 A 
HETATM   24  C19 UNL     1      16.822   1.191  49.858  1.00  0.00     0.036 A 
HETATM   25 CL1  UNL     1      15.568   1.141  48.627  1.00  0.00    -0.084 Cl
HETATM   26  C20 UNL     1      17.153   2.383  50.463  1.00  0.00     0.060 A 
HETATM   27  C21 UNL     1      18.158   2.312  51.424  1.00  0.00     0.075 A 
BRANCH  27  28
HETATM   28  O3  UNL     1      18.496   3.508  52.038  1.00  0.00    -0.360 OA
HETATM   29  H19 UNL     1      18.140   3.607  52.995  1.00  0.00     0.217 HD
ENDBRANCH  27  28
ENDBRANCH  20  21
ENDBRANCH  18  20
TORSDOF 3
ENDMDL
MODEL 5
REMARK VINA RESULT:      -7.9      2.060      3.774
REMARK  3 active torsions:
REMARK  status: ('A' for Active; 'I' for Inactive)
REMARK    1  A    between atoms: N2_18  and  C15_19 
REMARK    2  A    between atoms: C15_19  and  C16_20 
REMARK    3  A    between atoms: C21_26  and  O3_27 
ROOT
HETATM    1  O1  UNL     1      22.292   2.213  51.430  1.00  0.00    -0.122 OA
HETATM    2  C1  UNL     1      22.610   1.436  50.572  1.00  0.00     0.451 A 
HETATM    3  N1  UNL     1      21.185   1.237  50.334  1.00  0.00    -0.324 N 
HETATM    4  C2  UNL     1      19.838   1.657  50.759  1.00  0.00     0.039 A 
HETATM    5  C3  UNL     1      18.963   0.628  50.756  1.00  0.00     0.030 A 
HETATM    6  C4  UNL     1      17.682   0.883  51.156  1.00  0.00     0.002 A 
HETATM    7  C5  UNL     1      17.358   2.157  51.532  1.00  0.00     0.001 A 
HETATM    8  C6  UNL     1      18.303   3.124  51.502  1.00  0.00     0.010 A 
HETATM    9  C7  UNL     1      19.652   3.013  51.118  1.00  0.00    -0.022 A 
HETATM   10  C8  UNL     1      20.456   4.223  51.173  1.00  0.00     0.068 C 
HETATM   11  C9  UNL     1      21.442   4.361  52.281  1.00  0.00    -0.006 C 
HETATM   12  C10 UNL     1      22.819   4.385  52.061  1.00  0.00    -0.031 C 
HETATM   13  C11 UNL     1      23.501   5.454  51.359  1.00  0.00     0.032 C 
HETATM   14  C12 UNL     1      22.919   6.129  50.345  1.00  0.00     0.135 C 
HETATM   15  O2  UNL     1      21.606   5.932  49.850  1.00  0.00    -0.362 OA
HETATM   16  C13 UNL     1      21.003   4.625  49.820  1.00  0.00     0.187 C 
HETATM   17  C14 UNL     1      23.447   3.110  52.625  1.00  0.00     0.319 C 
HETATM   18  N2  UNL     1      23.555   2.202  51.410  1.00  0.00     0.121 N 
HETATM   19  H1  UNL     1      21.382   0.536  49.589  1.00  0.00     0.165 HD
ENDROOT
BRANCH  18  20
HETATM   20  C15 UNL     1      24.891   1.929  50.850  1.00  0.00     0.322 C 
BRANCH  20  21
HETATM   21  C16 UNL     1      25.864   1.475  51.864  1.00  0.00     0.004 A 
HETATM   22  C17 UNL     1      25.530   0.339  52.609  1.00  0.00     0.013 A 
HETATM   23  C18 UNL     1      26.444  -0.105  53.571  1.00  0.00     0.024 A 
HETATM   24  C19 UNL     1      27.608   0.590  53.732  1.00  0.00     0.036 A 
HETATM   25 CL1  UNL     1      28.679  -0.058  54.966  1.00  0.00    -0.084 Cl
HETATM   26  C20 UNL     1      27.970   1.712  53.019  1.00  0.00     0.060 A 
HETATM   27  C21 UNL     1      27.052   2.142  52.065  1.00  0.00     0.075 A 
BRANCH  27  28
HETATM   28  O3  UNL     1      27.409   3.269  51.343  1.00  0.00    -0.360 OA
HETATM   29  H19 UNL     1      28.296   3.181  50.834  1.00  0.00     0.217 HD
ENDBRANCH  27  28
ENDBRANCH  20  21
ENDBRANCH  18  20
TORSDOF 3
ENDMDL
MODEL 6
REMARK VINA RESULT:      -7.9      4.993      6.747
REMARK  3 active torsions:
REMARK  status: ('A' for Active; 'I' for Inactive)
REMARK    1  A    between atoms: N2_18  and  C15_19 
REMARK    2  A    between atoms: C15_19  and  C16_20 
REMARK    3  A    between atoms: C21_26  and  O3_27 
ROOT
HETATM    1  O1  UNL     1      22.570   4.776  50.795  1.00  0.00    -0.122 OA
HETATM    2  C1  UNL     1      22.405   5.322  51.851  1.00  0.00     0.451 A 
HETATM    3  N1  UNL     1      21.747   4.098  52.293  1.00  0.00    -0.324 N 
HETATM    4  C2  UNL     1      21.364   2.737  51.877  1.00  0.00     0.039 A 
HETATM    5  C3  UNL     1      20.160   2.377  52.372  1.00  0.00     0.030 A 
HETATM    6  C4  UNL     1      19.680   1.142  52.037  1.00  0.00     0.002 A 
HETATM    7  C5  UNL     1      20.440   0.345  51.228  1.00  0.00     0.001 A 
HETATM    8  C6  UNL     1      21.636   0.791  50.781  1.00  0.00     0.010 A 
HETATM    9  C7  UNL     1      22.256   2.028  51.038  1.00  0.00    -0.022 A 
HETATM   10  C8  UNL     1      23.558   2.251  50.431  1.00  0.00     0.068 C 
HETATM   11  C9  UNL     1      23.640   3.173  49.264  1.00  0.00    -0.006 C 
HETATM   12  C10 UNL     1      24.317   4.391  49.314  1.00  0.00    -0.031 C 
HETATM   13  C11 UNL     1      25.754   4.504  49.468  1.00  0.00     0.032 C 
HETATM   14  C12 UNL     1      26.468   3.615  50.191  1.00  0.00     0.135 C 
HETATM   15  O2  UNL     1      25.960   2.471  50.855  1.00  0.00    -0.362 OA
HETATM   16  C13 UNL     1      24.651   2.472  51.456  1.00  0.00     0.187 C 
HETATM   17  C14 UNL     1      23.309   5.538  49.233  1.00  0.00     0.319 C 
HETATM   18  N2  UNL     1      23.093   5.921  50.689  1.00  0.00     0.121 N 
HETATM   19  H1  UNL     1      21.550   4.512  53.228  1.00  0.00     0.165 HD
ENDROOT
BRANCH  18  20
HETATM   20  C15 UNL     1      23.644   7.200  51.171  1.00  0.00     0.322 C 
BRANCH  20  21
HETATM   21  C16 UNL     1      24.162   8.055  50.085  1.00  0.00     0.004 A 
HETATM   22  C17 UNL     1      23.224   8.650  49.235  1.00  0.00     0.013 A 
HETATM   23  C18 UNL     1      23.701   9.467  48.203  1.00  0.00     0.024 A 
HETATM   24  C19 UNL     1      25.049   9.639  48.080  1.00  0.00     0.036 A 
HETATM   25 CL1  UNL     1      25.531  10.684  46.751  1.00  0.00    -0.084 Cl
HETATM   26  C20 UNL     1      26.002   9.070  48.896  1.00  0.00     0.060 A 
HETATM   27  C21 UNL     1      25.514   8.260  49.919  1.00  0.00     0.075 A 
BRANCH  27  28
HETATM   28  O3  UNL     1      26.466   7.685  50.745  1.00  0.00    -0.360 OA
HETATM   29  H19 UNL     1      27.347   8.208  50.802  1.00  0.00     0.217 HD
ENDBRANCH  27  28
ENDBRANCH  20  21
ENDBRANCH  18  20
TORSDOF 3
ENDMDL
MODEL 7
REMARK VINA RESULT:      -7.7      6.187      8.092
REMARK  3 active torsions:
REMARK  status: ('A' for Active; 'I' for Inactive)
REMARK    1  A    between atoms: N2_18  and  C15_19 
REMARK    2  A    between atoms: C15_19  and  C16_20 
REMARK    3  A    between atoms: C21_26  and  O3_27 
ROOT
HETATM    1  O1  UNL     1      25.935   5.669  49.998  1.00  0.00    -0.122 OA
HETATM    2  C1  UNL     1      26.512   5.172  49.071  1.00  0.00     0.451 A 
HETATM    3  N1  UNL     1      26.202   3.880  49.671  1.00  0.00    -0.324 N 
HETATM    4  C2  UNL     1      25.527   3.227  50.806  1.00  0.00     0.039 A 
HETATM    5  C3  UNL     1      26.206   2.144  51.243  1.00  0.00     0.030 A 
HETATM    6  C4  UNL     1      25.694   1.463  52.312  1.00  0.00     0.002 A 
HETATM    7  C5  UNL     1      24.532   1.911  52.874  1.00  0.00     0.001 A 
HETATM    8  C6  UNL     1      23.922   3.007  52.367  1.00  0.00     0.010 A 
HETATM    9  C7  UNL     1      24.325   3.805  51.281  1.00  0.00    -0.022 A 
HETATM   10  C8  UNL     1      23.474   4.931  50.938  1.00  0.00     0.068 C 
HETATM   11  C9  UNL     1      23.941   6.300  51.297  1.00  0.00    -0.006 C 
HETATM   12  C10 UNL     1      24.274   7.256  50.338  1.00  0.00    -0.031 C 
HETATM   13  C11 UNL     1      23.311   7.853  49.433  1.00  0.00     0.032 C 
HETATM   14  C12 UNL     1      22.247   7.166  48.966  1.00  0.00     0.135 C 
HETATM   15  O2  UNL     1      21.900   5.831  49.292  1.00  0.00    -0.362 OA
HETATM   16  C13 UNL     1      22.908   4.832  49.536  1.00  0.00     0.187 C 
HETATM   17  C14 UNL     1      25.780   7.513  50.376  1.00  0.00     0.319 C 
HETATM   18  N2  UNL     1      26.318   6.624  49.265  1.00  0.00     0.121 N 
HETATM   19  H1  UNL     1      26.704   3.378  48.908  1.00  0.00     0.165 HD
ENDROOT
BRANCH  18  20
HETATM   20  C15 UNL     1      26.820   7.259  48.034  1.00  0.00     0.322 C 
BRANCH  20  21
HETATM   21  C16 UNL     1      27.690   8.423  48.294  1.00  0.00     0.004 A 
HETATM   22  C17 UNL     1      27.165   9.690  48.018  1.00  0.00     0.013 A 
HETATM   23  C18 UNL     1      27.978  10.803  48.263  1.00  0.00     0.024 A 
HETATM   24  C19 UNL     1      29.234  10.595  48.756  1.00  0.00     0.036 A 
HETATM   25 CL1  UNL     1      30.162  12.063  49.025  1.00  0.00    -0.084 Cl
HETATM   26  C20 UNL     1      29.784   9.364  49.038  1.00  0.00     0.060 A 
HETATM   27  C21 UNL     1      28.965   8.266  48.790  1.00  0.00     0.075 A 
BRANCH  27  28
HETATM   28  O3  UNL     1      29.511   7.024  49.073  1.00  0.00    -0.360 OA
HETATM   29  H19 UNL     1      29.317   6.684  50.021  1.00  0.00     0.217 HD
ENDBRANCH  27  28
ENDBRANCH  20  21
ENDBRANCH  18  20
TORSDOF 3
ENDMDL
MODEL 8
REMARK VINA RESULT:      -7.6      3.742      6.727
REMARK  3 active torsions:
REMARK  status: ('A' for Active; 'I' for Inactive)
REMARK    1  A    between atoms: N2_18  and  C15_19 
REMARK    2  A    between atoms: C15_19  and  C16_20 
REMARK    3  A    between atoms: C21_26  and  O3_27 
ROOT
HETATM    1  O1  UNL     1      20.878   2.475  51.225  1.00  0.00    -0.122 OA
HETATM    2  C1  UNL     1      20.182   3.158  51.925  1.00  0.00     0.451 A 
HETATM    3  N1  UNL     1      20.524   2.253  53.016  1.00  0.00    -0.324 N 
HETATM    4  C2  UNL     1      21.310   1.057  53.366  1.00  0.00     0.039 A 
HETATM    5  C3  UNL     1      20.658   0.262  54.243  1.00  0.00     0.030 A 
HETATM    6  C4  UNL     1      21.273  -0.895  54.629  1.00  0.00     0.002 A 
HETATM    7  C5  UNL     1      22.506  -1.182  54.112  1.00  0.00     0.001 A 
HETATM    8  C6  UNL     1      23.082  -0.324  53.240  1.00  0.00     0.010 A 
HETATM    9  C7  UNL     1      22.575   0.895  52.752  1.00  0.00    -0.022 A 
HETATM   10  C8  UNL     1      23.411   1.630  51.818  1.00  0.00     0.068 C 
HETATM   11  C9  UNL     1      23.028   1.626  50.378  1.00  0.00    -0.006 C 
HETATM   12  C10 UNL     1      22.611   2.776  49.709  1.00  0.00    -0.031 C 
HETATM   13  C11 UNL     1      23.476   3.909  49.445  1.00  0.00     0.032 C 
HETATM   14  C12 UNL     1      24.458   4.272  50.297  1.00  0.00     0.135 C 
HETATM   15  O2  UNL     1      24.804   3.620  51.507  1.00  0.00    -0.362 OA
HETATM   16  C13 UNL     1      23.805   2.998  52.336  1.00  0.00     0.187 C 
HETATM   17  C14 UNL     1      21.127   2.653  49.362  1.00  0.00     0.319 C 
HETATM   18  N2  UNL     1      20.437   3.404  50.491  1.00  0.00     0.121 N 
HETATM   19  H1  UNL     1      19.922   2.785  53.679  1.00  0.00     0.165 HD
ENDROOT
BRANCH  18  20
HETATM   20  C15 UNL     1      19.812   4.704  50.194  1.00  0.00     0.322 C 
BRANCH  20  21
HETATM   21  C16 UNL     1      20.792   5.759  49.866  1.00  0.00     0.004 A 
HETATM   22  C17 UNL     1      21.476   6.351  50.933  1.00  0.00     0.013 A 
HETATM   23  C18 UNL     1      22.412   7.349  50.637  1.00  0.00     0.024 A 
HETATM   24  C19 UNL     1      22.606   7.692  49.330  1.00  0.00     0.036 A 
HETATM   25 CL1  UNL     1      23.803   8.954  49.078  1.00  0.00    -0.084 Cl
HETATM   26  C20 UNL     1      21.951   7.132  48.255  1.00  0.00     0.060 A 
HETATM   27  C21 UNL     1      21.024   6.140  48.563  1.00  0.00     0.075 A 
BRANCH  27  28
HETATM   28  O3  UNL     1      20.361   5.572  47.487  1.00  0.00    -0.360 OA
HETATM   29  H19 UNL     1      20.979   5.143  46.790  1.00  0.00     0.217 HD
ENDBRANCH  27  28
ENDBRANCH  20  21
ENDBRANCH  18  20
TORSDOF 3
ENDMDL
MODEL 9
REMARK VINA RESULT:      -7.6      3.677      7.530
REMARK  3 active torsions:
REMARK  status: ('A' for Active; 'I' for Inactive)
REMARK    1  A    between atoms: N2_18  and  C15_19 
REMARK    2  A    between atoms: C15_19  and  C16_20 
REMARK    3  A    between atoms: C21_26  and  O3_27 
ROOT
HETATM    1  O1  UNL     1      22.227   0.950  51.939  1.00  0.00    -0.122 OA
HETATM    2  C1  UNL     1      21.796   0.864  53.056  1.00  0.00     0.451 A 
HETATM    3  N1  UNL     1      23.157   0.546  53.473  1.00  0.00    -0.324 N 
HETATM    4  C2  UNL     1      24.539   0.376  52.992  1.00  0.00     0.039 A 
HETATM    5  C3  UNL     1      25.176  -0.630  53.630  1.00  0.00     0.030 A 
HETATM    6  C4  UNL     1      26.460  -0.907  53.255  1.00  0.00     0.002 A 
HETATM    7  C5  UNL     1      27.027  -0.154  52.264  1.00  0.00     0.001 A 
HETATM    8  C6  UNL     1      26.310   0.835  51.683  1.00  0.00     0.010 A 
HETATM    9  C7  UNL     1      24.989   1.232  51.959  1.00  0.00    -0.022 A 
HETATM   10  C8  UNL     1      24.458   2.340  51.183  1.00  0.00     0.068 C 
HETATM   11  C9  UNL     1      23.468   2.037  50.112  1.00  0.00    -0.006 C 
HETATM   12  C10 UNL     1      22.140   2.457  50.175  1.00  0.00    -0.031 C 
HETATM   13  C11 UNL     1      21.736   3.849  50.114  1.00  0.00     0.032 C 
HETATM   14  C12 UNL     1      22.498   4.838  50.628  1.00  0.00     0.135 C 
HETATM   15  O2  UNL     1      23.763   4.687  51.249  1.00  0.00    -0.362 OA
HETATM   16  C13 UNL     1      24.076   3.527  52.042  1.00  0.00     0.187 C 
HETATM   17  C14 UNL     1      21.229   1.244  50.363  1.00  0.00     0.319 C 
HETATM   18  N2  UNL     1      20.993   1.209  51.865  1.00  0.00     0.121 N 
HETATM   19  H1  UNL     1      22.853   0.434  54.463  1.00  0.00     0.165 HD
ENDROOT
BRANCH  18  20
HETATM   20  C15 UNL     1      19.659   1.570  52.377  1.00  0.00     0.322 C 
BRANCH  20  21
HETATM   21  C16 UNL     1      18.708   0.441  52.369  1.00  0.00     0.004 A 
HETATM   22  C17 UNL     1      18.935  -0.594  53.281  1.00  0.00     0.013 A 
HETATM   23  C18 UNL     1      18.039  -1.669  53.287  1.00  0.00     0.024 A 
HETATM   24  C19 UNL     1      16.996  -1.652  52.407  1.00  0.00     0.036 A 
HETATM   25 CL1  UNL     1      15.936  -3.051  52.505  1.00  0.00    -0.084 Cl
HETATM   26  C20 UNL     1      16.742  -0.651  51.495  1.00  0.00     0.060 A 
HETATM   27  C21 UNL     1      17.640   0.412  51.499  1.00  0.00     0.075 A 
BRANCH  27  28
HETATM   28  O3  UNL     1      17.390   1.423  50.585  1.00  0.00    -0.360 OA
HETATM   29  H19 UNL     1      16.465   1.376  50.145  1.00  0.00     0.217 HD
ENDBRANCH  27  28
ENDBRANCH  20  21
ENDBRANCH  18  20
TORSDOF 3
ENDMDL
