MODEL 1
REMARK VINA RESULT:      -8.5      0.000      0.000
REMARK  4 active torsions:
REMARK  status: ('A' for Active; 'I' for Inactive)
REMARK    1  A    between atoms: C2_2  and  C3_3 
REMARK    2  A    between atoms: C8_11  and  N3_12 
REMARK    3  A    between atoms: C10_14  and  C11_15 
REMARK    4  A    between atoms: C12_17  and  C13_18 
ROOT
HETATM    1  C3  UNL     1      17.826   1.701  51.940  1.00  0.00     0.184 C 
HETATM    2  O1  UNL     1      18.106   0.216  51.810  1.00  0.00    -0.338 OA
HETATM    3  C4  UNL     1      19.226  -0.195  52.575  1.00  0.00     0.108 A 
HETATM    4  C5  UNL     1      19.766  -0.934  53.589  1.00  0.00     0.072 A 
HETATM    5  C6  UNL     1      21.090  -0.889  53.889  1.00  0.00     0.077 A 
HETATM    6  N1  UNL     1      21.544  -1.632  54.897  1.00  0.00    -0.241 NA
HETATM    7  C7  UNL     1      22.876  -1.586  55.216  1.00  0.00     0.236 A 
HETATM    8  N2  UNL     1      23.733  -0.809  54.532  1.00  0.00    -0.224 NA
HETATM    9  C8  UNL     1      23.354  -0.035  53.507  1.00  0.00     0.143 A 
HETATM   10  C14 UNL     1      22.024  -0.134  53.254  1.00  0.00     0.075 A 
HETATM   11  C15 UNL     1      21.566   0.644  52.211  1.00  0.00     0.121 A 
HETATM   12  C16 UNL     1      20.187   0.588  51.883  1.00  0.00     0.140 A 
HETATM   13  O2  UNL     1      19.775   1.423  50.741  1.00  0.00    -0.312 OA
HETATM   14  C17 UNL     1      19.014   2.481  51.435  1.00  0.00     0.295 C 
HETATM   15  O3  UNL     1      19.870   3.114  52.237  1.00  0.00    -0.356 OA
HETATM   16  C18 UNL     1      21.118   3.465  52.028  1.00  0.00     0.197 C 
HETATM   17  C19 UNL     1      22.120   2.812  51.123  1.00  0.00     0.202 C 
HETATM   18  O4  UNL     1      22.572   1.468  51.581  1.00  0.00    -0.345 OA
ENDROOT
BRANCH   9  19
HETATM   19  N3  UNL     1      24.344   0.736  52.831  1.00  0.00    -0.350 N 
HETATM   20  C9  UNL     1      25.298   1.470  51.936  1.00  0.00     0.158 A 
HETATM   21  C10 UNL     1      25.440   1.665  53.372  1.00  0.00     0.166 A 
BRANCH  21  22
HETATM   22  C11 UNL     1      26.589   1.021  54.014  1.00  0.00     0.115 C 
HETATM   23  F1  UNL     1      26.397   0.769  55.345  1.00  0.00    -0.209 F 
HETATM   24  C12 UNL     1      27.802   0.583  53.742  1.00  0.00     0.028 C 
BRANCH  24  25
HETATM   25  C13 UNL     1      28.879  -0.075  54.559  1.00  0.00     0.144 C 
HETATM   26 CL1  UNL     1      30.144  -0.796  53.546  1.00  0.00    -0.126 Cl
ENDBRANCH  24  25
ENDBRANCH  21  22
ENDBRANCH   9  19
BRANCH   1  27
HETATM   27  C2  UNL     1      16.680   1.854  50.971  1.00  0.00     0.033 C 
HETATM   28  C1  UNL     1      16.327   0.597  50.266  1.00  0.00     0.007 C 
ENDBRANCH   1  27
TORSDOF 4
ENDMDL
MODEL 2
REMARK VINA RESULT:      -8.3      3.875      7.946
REMARK  4 active torsions:
REMARK  status: ('A' for Active; 'I' for Inactive)
REMARK    1  A    between atoms: C2_2  and  C3_3 
REMARK    2  A    between atoms: C8_11  and  N3_12 
REMARK    3  A    between atoms: C10_14  and  C11_15 
REMARK    4  A    between atoms: C12_17  and  C13_18 
ROOT
HETATM    1  C3  UNL     1      28.540   0.878  53.601  1.00  0.00     0.184 C 
HETATM    2  O1  UNL     1      28.039   0.796  52.172  1.00  0.00    -0.338 OA
HETATM    3  C4  UNL     1      26.705   1.253  52.037  1.00  0.00     0.108 A 
HETATM    4  C5  UNL     1      25.797   2.136  51.523  1.00  0.00     0.072 A 
HETATM    5  C6  UNL     1      24.471   2.056  51.808  1.00  0.00     0.077 A 
HETATM    6  N1  UNL     1      23.646   2.956  51.277  1.00  0.00    -0.241 NA
HETATM    7  C7  UNL     1      22.307   2.891  51.566  1.00  0.00     0.236 A 
HETATM    8  N2  UNL     1      21.811   1.938  52.373  1.00  0.00    -0.224 NA
HETATM    9  C8  UNL     1      22.576   0.998  52.944  1.00  0.00     0.143 A 
HETATM   10  C14 UNL     1      23.884   1.129  52.611  1.00  0.00     0.075 A 
HETATM   11  C15 UNL     1      24.730   0.194  53.172  1.00  0.00     0.121 A 
HETATM   12  C16 UNL     1      26.113   0.263  52.865  1.00  0.00     0.140 A 
HETATM   13  O2  UNL     1      26.949  -0.785  53.476  1.00  0.00    -0.312 OA
HETATM   14  C17 UNL     1      27.684   0.005  54.483  1.00  0.00     0.295 C 
HETATM   15  O3  UNL     1      26.780   0.487  55.336  1.00  0.00    -0.356 OA
HETATM   16  C18 UNL     1      25.714  -0.085  55.845  1.00  0.00     0.197 C 
HETATM   17  C19 UNL     1      24.877  -1.175  55.245  1.00  0.00     0.202 C 
HETATM   18  O4  UNL     1      24.086  -0.754  54.054  1.00  0.00    -0.345 OA
ENDROOT
BRANCH   9  19
HETATM   19  N3  UNL     1      21.950   0.015  53.766  1.00  0.00    -0.350 N 
HETATM   20  C9  UNL     1      21.486  -1.116  54.634  1.00  0.00     0.158 A 
HETATM   21  C10 UNL     1      20.513  -0.087  54.296  1.00  0.00     0.166 A 
BRANCH  21  22
HETATM   22  C11 UNL     1      19.479  -0.452  53.324  1.00  0.00     0.115 C 
HETATM   23  F1  UNL     1      19.007  -1.727  53.485  1.00  0.00    -0.209 F 
HETATM   24  C12 UNL     1      18.817   0.043  52.298  1.00  0.00     0.028 C 
BRANCH  24  25
HETATM   25  C13 UNL     1      17.751  -0.499  51.387  1.00  0.00     0.144 C 
HETATM   26 CL1  UNL     1      17.634   0.417  49.872  1.00  0.00    -0.126 Cl
ENDBRANCH  24  25
ENDBRANCH  21  22
ENDBRANCH   9  19
BRANCH   1  27
HETATM   27  C2  UNL     1      29.905   0.252  53.452  1.00  0.00     0.033 C 
HETATM   28  C1  UNL     1      29.931  -1.198  53.766  1.00  0.00     0.007 C 
ENDBRANCH   1  27
TORSDOF 4
ENDMDL
MODEL 3
REMARK VINA RESULT:      -8.2      3.703      7.388
REMARK  4 active torsions:
REMARK  status: ('A' for Active; 'I' for Inactive)
REMARK    1  A    between atoms: C2_2  and  C3_3 
REMARK    2  A    between atoms: C8_11  and  N3_12 
REMARK    3  A    between atoms: C10_14  and  C11_15 
REMARK    4  A    between atoms: C12_17  and  C13_18 
ROOT
HETATM    1  C3  UNL     1      27.758  -0.209  53.623  1.00  0.00     0.184 C 
HETATM    2  O1  UNL     1      27.038  -0.251  54.957  1.00  0.00    -0.338 OA
HETATM    3  C4  UNL     1      25.648  -0.487  54.817  1.00  0.00     0.108 A 
HETATM    4  C5  UNL     1      24.546  -1.265  55.035  1.00  0.00     0.072 A 
HETATM    5  C6  UNL     1      23.315  -0.916  54.580  1.00  0.00     0.077 A 
HETATM    6  N1  UNL     1      22.288  -1.729  54.824  1.00  0.00    -0.241 NA
HETATM    7  C7  UNL     1      21.043  -1.392  54.359  1.00  0.00     0.236 A 
HETATM    8  N2  UNL     1      20.836  -0.260  53.666  1.00  0.00    -0.224 NA
HETATM    9  C8  UNL     1      21.817   0.607  53.381  1.00  0.00     0.143 A 
HETATM   10  C14 UNL     1      23.016   0.205  53.872  1.00  0.00     0.075 A 
HETATM   11  C15 UNL     1      24.073   1.052  53.608  1.00  0.00     0.121 A 
HETATM   12  C16 UNL     1      25.358   0.702  54.095  1.00  0.00     0.140 A 
HETATM   13  O2  UNL     1      26.431   1.667  53.800  1.00  0.00    -0.312 OA
HETATM   14  C17 UNL     1      27.203   0.918  52.789  1.00  0.00     0.295 C 
HETATM   15  O3  UNL     1      26.396   0.729  51.745  1.00  0.00    -0.356 OA
HETATM   16  C18 UNL     1      25.528   1.545  51.193  1.00  0.00     0.197 C 
HETATM   17  C19 UNL     1      24.770   2.664  51.845  1.00  0.00     0.202 C 
HETATM   18  O4  UNL     1      23.735   2.215  52.818  1.00  0.00    -0.345 OA
ENDROOT
BRANCH   9  19
HETATM   19  N3  UNL     1      21.492   1.792  52.658  1.00  0.00    -0.350 N 
HETATM   20  C9  UNL     1      21.205   3.145  52.079  1.00  0.00     0.158 A 
HETATM   21  C10 UNL     1      21.002   1.990  51.216  1.00  0.00     0.166 A 
BRANCH  21  22
HETATM   22  C11 UNL     1      19.614   1.613  50.937  1.00  0.00     0.115 C 
HETATM   23  F1  UNL     1      18.709   2.585  51.267  1.00  0.00    -0.209 F 
HETATM   24  C12 UNL     1      18.901   0.614  50.458  1.00  0.00     0.028 C 
BRANCH  24  25
HETATM   25  C13 UNL     1      17.429   0.396  50.238  1.00  0.00     0.144 C 
HETATM   26 CL1  UNL     1      16.712  -0.646  51.482  1.00  0.00    -0.126 Cl
ENDBRANCH  24  25
ENDBRANCH  21  22
ENDBRANCH   9  19
BRANCH   1  27
HETATM   27  C2  UNL     1      29.155   0.144  54.072  1.00  0.00     0.033 C 
HETATM   28  C1  UNL     1      30.167  -0.886  53.727  1.00  0.00     0.007 C 
ENDBRANCH   1  27
TORSDOF 4
ENDMDL
MODEL 4
REMARK VINA RESULT:      -8.0      4.007      7.460
REMARK  4 active torsions:
REMARK  status: ('A' for Active; 'I' for Inactive)
REMARK    1  A    between atoms: C2_2  and  C3_3 
REMARK    2  A    between atoms: C8_11  and  N3_12 
REMARK    3  A    between atoms: C10_14  and  C11_15 
REMARK    4  A    between atoms: C12_17  and  C13_18 
ROOT
HETATM    1  C3  UNL     1      27.716  -0.383  53.741  1.00  0.00     0.184 C 
HETATM    2  O1  UNL     1      26.742  -0.334  54.903  1.00  0.00    -0.338 OA
HETATM    3  C4  UNL     1      25.390  -0.316  54.479  1.00  0.00     0.108 A 
HETATM    4  C5  UNL     1      24.153  -0.893  54.428  1.00  0.00     0.072 A 
HETATM    5  C6  UNL     1      23.116  -0.319  53.763  1.00  0.00     0.077 A 
HETATM    6  N1  UNL     1      21.940  -0.944  53.750  1.00  0.00    -0.241 NA
HETATM    7  C7  UNL     1      20.890  -0.380  53.072  1.00  0.00     0.236 A 
HETATM    8  N2  UNL     1      21.022   0.789  52.423  1.00  0.00    -0.224 NA
HETATM    9  C8  UNL     1      22.171   1.477  52.390  1.00  0.00     0.143 A 
HETATM   10  C14 UNL     1      23.160   0.855  53.081  1.00  0.00     0.075 A 
HETATM   11  C15 UNL     1      24.375   1.509  53.083  1.00  0.00     0.121 A 
HETATM   12  C16 UNL     1      25.457   0.924  53.790  1.00  0.00     0.140 A 
HETATM   13  O2  UNL     1      26.714   1.693  53.771  1.00  0.00    -0.312 OA
HETATM   14  C17 UNL     1      27.539   0.847  52.886  1.00  0.00     0.295 C 
HETATM   15  O3  UNL     1      26.942   0.832  51.695  1.00  0.00    -0.356 OA
HETATM   16  C18 UNL     1      26.354   1.802  51.035  1.00  0.00     0.197 C 
HETATM   17  C19 UNL     1      25.678   3.019  51.594  1.00  0.00     0.202 C 
HETATM   18  O4  UNL     1      24.406   2.735  52.316  1.00  0.00    -0.345 OA
ENDROOT
BRANCH   9  19
HETATM   19  N3  UNL     1      22.204   2.720  51.693  1.00  0.00    -0.350 N 
HETATM   20  C9  UNL     1      22.239   4.119  51.157  1.00  0.00     0.158 A 
HETATM   21  C10 UNL     1      22.241   3.030  50.190  1.00  0.00     0.166 A 
BRANCH  21  22
HETATM   22  C11 UNL     1      21.000   2.810  49.443  1.00  0.00     0.115 C 
HETATM   23  F1  UNL     1      20.878   1.538  48.953  1.00  0.00    -0.209 F 
HETATM   24  C12 UNL     1      19.910   3.443  49.058  1.00  0.00     0.028 C 
BRANCH  24  25
HETATM   25  C13 UNL     1      18.697   3.040  48.265  1.00  0.00     0.144 C 
HETATM   26 CL1  UNL     1      18.942   3.232  46.519  1.00  0.00    -0.126 Cl
ENDBRANCH  24  25
ENDBRANCH  21  22
ENDBRANCH   9  19
BRANCH   1  27
HETATM   27  C2  UNL     1      29.030  -0.296  54.476  1.00  0.00     0.033 C 
HETATM   28  C1  UNL     1      30.167  -0.892  53.733  1.00  0.00     0.007 C 
ENDBRANCH   1  27
TORSDOF 4
ENDMDL
MODEL 5
REMARK VINA RESULT:      -7.8      3.443      4.710
REMARK  4 active torsions:
REMARK  status: ('A' for Active; 'I' for Inactive)
REMARK    1  A    between atoms: C2_2  and  C3_3 
REMARK    2  A    between atoms: C8_11  and  N3_12 
REMARK    3  A    between atoms: C10_14  and  C11_15 
REMARK    4  A    between atoms: C12_17  and  C13_18 
ROOT
HETATM    1  C3  UNL     1      20.318  -0.348  53.789  1.00  0.00     0.184 C 
HETATM    2  O1  UNL     1      21.468  -1.230  53.343  1.00  0.00    -0.338 OA
HETATM    3  C4  UNL     1      22.667  -0.502  53.144  1.00  0.00     0.108 A 
HETATM    4  C5  UNL     1      23.967  -0.239  53.473  1.00  0.00     0.072 A 
HETATM    5  C6  UNL     1      24.691   0.723  52.843  1.00  0.00     0.077 A 
HETATM    6  N1  UNL     1      25.951   0.928  53.223  1.00  0.00    -0.241 NA
HETATM    7  C7  UNL     1      26.687   1.903  52.601  1.00  0.00     0.236 A 
HETATM    8  N2  UNL     1      26.165   2.654  51.617  1.00  0.00    -0.224 NA
HETATM    9  C8  UNL     1      24.908   2.508  51.179  1.00  0.00     0.143 A 
HETATM   10  C14 UNL     1      24.245   1.527  51.842  1.00  0.00     0.075 A 
HETATM   11  C15 UNL     1      22.939   1.327  51.443  1.00  0.00     0.121 A 
HETATM   12  C16 UNL     1      22.184   0.313  52.087  1.00  0.00     0.140 A 
HETATM   13  O2  UNL     1      20.808   0.139  51.589  1.00  0.00    -0.312 OA
HETATM   14  C17 UNL     1      20.036   0.682  52.724  1.00  0.00     0.295 C 
HETATM   15  O3  UNL     1      20.368   1.968  52.841  1.00  0.00    -0.356 OA
HETATM   16  C18 UNL     1      20.575   2.872  51.912  1.00  0.00     0.197 C 
HETATM   17  C19 UNL     1      21.055   2.657  50.507  1.00  0.00     0.202 C 
HETATM   18  O4  UNL     1      22.478   2.223  50.407  1.00  0.00    -0.345 OA
ENDROOT
BRANCH   9  19
HETATM   19  N3  UNL     1      24.454   3.339  50.113  1.00  0.00    -0.350 N 
HETATM   20  C9  UNL     1      23.889   4.032  48.910  1.00  0.00     0.158 A 
HETATM   21  C10 UNL     1      24.617   4.846  49.872  1.00  0.00     0.166 A 
BRANCH  21  22
HETATM   22  C11 UNL     1      25.949   5.307  49.471  1.00  0.00     0.115 C 
HETATM   23  F1  UNL     1      26.247   6.565  49.919  1.00  0.00    -0.209 F 
HETATM   24  C12 UNL     1      27.008   4.913  48.794  1.00  0.00     0.028 C 
BRANCH  24  25
HETATM   25  C13 UNL     1      28.335   5.545  48.475  1.00  0.00     0.144 C 
HETATM   26 CL1  UNL     1      28.161   6.999  47.473  1.00  0.00    -0.126 Cl
ENDBRANCH  24  25
ENDBRANCH  21  22
ENDBRANCH   9  19
BRANCH   1  27
HETATM   27  C2  UNL     1      19.194  -1.353  53.822  1.00  0.00     0.033 C 
HETATM   28  C1  UNL     1      17.995  -0.928  53.058  1.00  0.00     0.007 C 
ENDBRANCH   1  27
TORSDOF 4
ENDMDL
MODEL 6
REMARK VINA RESULT:      -7.7      3.859      7.050
REMARK  4 active torsions:
REMARK  status: ('A' for Active; 'I' for Inactive)
REMARK    1  A    between atoms: C2_2  and  C3_3 
REMARK    2  A    between atoms: C8_11  and  N3_12 
REMARK    3  A    between atoms: C10_14  and  C11_15 
REMARK    4  A    between atoms: C12_17  and  C13_18 
ROOT
HETATM    1  C3  UNL     1      26.722   3.644  49.298  1.00  0.00     0.184 C 
HETATM    2  O1  UNL     1      27.083   3.416  50.753  1.00  0.00    -0.338 OA
HETATM    3  C4  UNL     1      26.234   2.471  51.382  1.00  0.00     0.108 A 
HETATM    4  C5  UNL     1      26.049   1.270  52.006  1.00  0.00     0.072 A 
HETATM    5  C6  UNL     1      24.825   0.856  52.426  1.00  0.00     0.077 A 
HETATM    6  N1  UNL     1      24.720  -0.331  53.021  1.00  0.00    -0.241 NA
HETATM    7  C7  UNL     1      23.488  -0.764  53.438  1.00  0.00     0.236 A 
HETATM    8  N2  UNL     1      22.386  -0.016  53.262  1.00  0.00    -0.224 NA
HETATM    9  C8  UNL     1      22.410   1.187  52.673  1.00  0.00     0.143 A 
HETATM   10  C14 UNL     1      23.662   1.544  52.288  1.00  0.00     0.075 A 
HETATM   11  C15 UNL     1      23.757   2.773  51.668  1.00  0.00     0.121 A 
HETATM   12  C16 UNL     1      25.034   3.218  51.243  1.00  0.00     0.140 A 
HETATM   13  O2  UNL     1      25.063   4.551  50.616  1.00  0.00    -0.312 OA
HETATM   14  C17 UNL     1      25.318   4.186  49.208  1.00  0.00     0.295 C 
HETATM   15  O3  UNL     1      24.277   3.461  48.799  1.00  0.00    -0.356 OA
HETATM   16  C18 UNL     1      22.996   3.616  49.041  1.00  0.00     0.197 C 
HETATM   17  C19 UNL     1      22.353   4.250  50.239  1.00  0.00     0.202 C 
HETATM   18  O4  UNL     1      22.499   3.465  51.497  1.00  0.00    -0.345 OA
ENDROOT
BRANCH   9  19
HETATM   19  N3  UNL     1      21.190   1.914  52.553  1.00  0.00    -0.350 N 
HETATM   20  C9  UNL     1      19.978   2.795  52.595  1.00  0.00     0.158 A 
HETATM   21  C10 UNL     1      20.024   1.767  51.565  1.00  0.00     0.166 A 
BRANCH  21  22
HETATM   22  C11 UNL     1      19.147   0.608  51.751  1.00  0.00     0.115 C 
HETATM   23  F1  UNL     1      19.776  -0.589  51.543  1.00  0.00    -0.209 F 
HETATM   24  C12 UNL     1      17.902   0.304  52.061  1.00  0.00     0.028 C 
BRANCH  24  25
HETATM   25  C13 UNL     1      17.152  -0.991  52.209  1.00  0.00     0.144 C 
HETATM   26 CL1  UNL     1      17.744  -1.956  53.575  1.00  0.00    -0.126 Cl
ENDBRANCH  24  25
ENDBRANCH  21  22
ENDBRANCH   9  19
BRANCH   1  27
HETATM   27  C2  UNL     1      27.702   4.734  48.937  1.00  0.00     0.033 C 
HETATM   28  C1  UNL     1      27.057   5.960  48.406  1.00  0.00     0.007 C 
ENDBRANCH   1  27
TORSDOF 4
ENDMDL
MODEL 7
REMARK VINA RESULT:      -7.7      4.139      6.133
REMARK  4 active torsions:
REMARK  status: ('A' for Active; 'I' for Inactive)
REMARK    1  A    between atoms: C2_2  and  C3_3 
REMARK    2  A    between atoms: C8_11  and  N3_12 
REMARK    3  A    between atoms: C10_14  and  C11_15 
REMARK    4  A    between atoms: C12_17  and  C13_18 
ROOT
HETATM    1  C3  UNL     1      22.452  -0.812  52.878  1.00  0.00     0.184 C 
HETATM    2  O1  UNL     1      21.186  -0.321  52.204  1.00  0.00    -0.338 OA
HETATM    3  C4  UNL     1      21.452   0.534  51.105  1.00  0.00     0.108 A 
HETATM    4  C5  UNL     1      21.388   0.805  49.768  1.00  0.00     0.072 A 
HETATM    5  C6  UNL     1      21.904   1.944  49.237  1.00  0.00     0.077 A 
HETATM    6  N1  UNL     1      21.811   2.138  47.922  1.00  0.00    -0.241 NA
HETATM    7  C7  UNL     1      22.338   3.278  47.374  1.00  0.00     0.236 A 
HETATM    8  N2  UNL     1      22.945   4.205  48.135  1.00  0.00    -0.224 NA
HETATM    9  C8  UNL     1      23.077   4.083  49.462  1.00  0.00     0.143 A 
HETATM   10  C14 UNL     1      22.532   2.931  49.928  1.00  0.00     0.075 A 
HETATM   11  C15 UNL     1      22.639   2.740  51.291  1.00  0.00     0.121 A 
HETATM   12  C16 UNL     1      22.087   1.560  51.853  1.00  0.00     0.140 A 
HETATM   13  O2  UNL     1      22.214   1.439  53.316  1.00  0.00    -0.312 OA
HETATM   14  C17 UNL     1      23.225   0.367  53.415  1.00  0.00     0.295 C 
HETATM   15  O3  UNL     1      24.340   0.830  52.851  1.00  0.00    -0.356 OA
HETATM   16  C18 UNL     1      24.884   2.023  52.916  1.00  0.00     0.197 C 
HETATM   17  C19 UNL     1      24.197   3.339  53.137  1.00  0.00     0.202 C 
HETATM   18  O4  UNL     1      23.349   3.784  51.996  1.00  0.00    -0.345 OA
ENDROOT
BRANCH   9  19
HETATM   19  N3  UNL     1      23.716   5.133  50.185  1.00  0.00    -0.350 N 
HETATM   20  C9  UNL     1      24.188   6.306  50.991  1.00  0.00     0.158 A 
HETATM   21  C10 UNL     1      25.204   5.434  50.418  1.00  0.00     0.166 A 
BRANCH  21  22
HETATM   22  C11 UNL     1      25.955   5.959  49.275  1.00  0.00     0.115 C 
HETATM   23  F1  UNL     1      26.431   4.983  48.442  1.00  0.00    -0.209 F 
HETATM   24  C12 UNL     1      26.353   7.099  48.747  1.00  0.00     0.028 C 
BRANCH  24  25
HETATM   25  C13 UNL     1      27.147   7.459  47.522  1.00  0.00     0.144 C 
HETATM   26 CL1  UNL     1      28.819   6.871  47.610  1.00  0.00    -0.126 Cl
ENDBRANCH  24  25
ENDBRANCH  21  22
ENDBRANCH   9  19
BRANCH   1  27
HETATM   27  C2  UNL     1      21.868  -1.593  54.030  1.00  0.00     0.033 C 
HETATM   28  C1  UNL     1      22.657  -1.483  55.282  1.00  0.00     0.007 C 
ENDBRANCH   1  27
TORSDOF 4
ENDMDL
MODEL 8
REMARK VINA RESULT:      -7.5      1.384      1.638
REMARK  4 active torsions:
REMARK  status: ('A' for Active; 'I' for Inactive)
REMARK    1  A    between atoms: C2_2  and  C3_3 
REMARK    2  A    between atoms: C8_11  and  N3_12 
REMARK    3  A    between atoms: C10_14  and  C11_15 
REMARK    4  A    between atoms: C12_17  and  C13_18 
ROOT
HETATM    1  C3  UNL     1      16.530   0.920  51.902  1.00  0.00     0.184 C 
HETATM    2  O1  UNL     1      17.088  -0.489  51.839  1.00  0.00    -0.338 OA
HETATM    3  C4  UNL     1      18.342  -0.607  52.488  1.00  0.00     0.108 A 
HETATM    4  C5  UNL     1      19.124  -1.134  53.477  1.00  0.00     0.072 A 
HETATM    5  C6  UNL     1      20.436  -0.809  53.610  1.00  0.00     0.077 A 
HETATM    6  N1  UNL     1      21.134  -1.356  54.603  1.00  0.00    -0.241 NA
HETATM    7  C7  UNL     1      22.457  -1.027  54.753  1.00  0.00     0.236 A 
HETATM    8  N2  UNL     1      23.063  -0.165  53.919  1.00  0.00    -0.224 NA
HETATM    9  C8  UNL     1      22.429   0.426  52.898  1.00  0.00     0.143 A 
HETATM   10  C14 UNL     1      21.127   0.051  52.816  1.00  0.00     0.075 A 
HETATM   11  C15 UNL     1      20.413   0.629  51.786  1.00  0.00     0.121 A 
HETATM   12  C16 UNL     1      19.047   0.281  51.633  1.00  0.00     0.140 A 
HETATM   13  O2  UNL     1      18.357   0.914  50.495  1.00  0.00    -0.312 OA
HETATM   14  C17 UNL     1      17.477   1.864  51.204  1.00  0.00     0.295 C 
HETATM   15  O3  UNL     1      18.268   2.720  51.852  1.00  0.00    -0.356 OA
HETATM   16  C18 UNL     1      19.390   3.284  51.469  1.00  0.00     0.197 C 
HETATM   17  C19 UNL     1      20.402   2.757  50.495  1.00  0.00     0.202 C 
HETATM   18  O4  UNL     1      21.161   1.571  50.984  1.00  0.00    -0.345 OA
ENDROOT
BRANCH   9  19
HETATM   19  N3  UNL     1      23.166   1.309  52.055  1.00  0.00    -0.350 N 
HETATM   20  C9  UNL     1      23.860   2.122  51.004  1.00  0.00     0.158 A 
HETATM   21  C10 UNL     1      24.062   2.509  52.393  1.00  0.00     0.166 A 
BRANCH  21  22
HETATM   22  C11 UNL     1      25.371   2.207  52.977  1.00  0.00     0.115 C 
HETATM   23  F1  UNL     1      25.528   2.697  54.245  1.00  0.00    -0.209 F 
HETATM   24  C12 UNL     1      26.506   1.601  52.690  1.00  0.00     0.028 C 
BRANCH  24  25
HETATM   25  C13 UNL     1      27.790   1.384  53.442  1.00  0.00     0.144 C 
HETATM   26 CL1  UNL     1      27.694  -0.003  54.546  1.00  0.00    -0.126 Cl
ENDBRANCH  24  25
ENDBRANCH  21  22
ENDBRANCH   9  19
BRANCH   1  27
HETATM   27  C2  UNL     1      15.281   0.761  51.071  1.00  0.00     0.033 C 
HETATM   28  C1  UNL     1      14.329   1.892  51.208  1.00  0.00     0.007 C 
ENDBRANCH   1  27
TORSDOF 4
ENDMDL
MODEL 9
REMARK VINA RESULT:      -7.4      4.390      6.548
REMARK  4 active torsions:
REMARK  status: ('A' for Active; 'I' for Inactive)
REMARK    1  A    between atoms: C2_2  and  C3_3 
REMARK    2  A    between atoms: C8_11  and  N3_12 
REMARK    3  A    between atoms: C10_14  and  C11_15 
REMARK    4  A    between atoms: C12_17  and  C13_18 
ROOT
HETATM    1  C3  UNL     1      22.597  -1.012  53.333  1.00  0.00     0.184 C 
HETATM    2  O1  UNL     1      21.371  -0.216  52.928  1.00  0.00    -0.338 OA
HETATM    3  C4  UNL     1      21.519   0.404  51.663  1.00  0.00     0.108 A 
HETATM    4  C5  UNL     1      21.135   0.554  50.360  1.00  0.00     0.072 A 
HETATM    5  C6  UNL     1      21.758   1.419  49.519  1.00  0.00     0.077 A 
HETATM    6  N1  UNL     1      21.333   1.505  48.259  1.00  0.00    -0.241 NA
HETATM    7  C7  UNL     1      21.962   2.367  47.398  1.00  0.00     0.236 A 
HETATM    8  N2  UNL     1      22.996   3.126  47.798  1.00  0.00    -0.224 NA
HETATM    9  C8  UNL     1      23.481   3.095  49.046  1.00  0.00     0.143 A 
HETATM   10  C14 UNL     1      22.808   2.220  49.836  1.00  0.00     0.075 A 
HETATM   11  C15 UNL     1      23.261   2.136  51.137  1.00  0.00     0.121 A 
HETATM   12  C16 UNL     1      22.603   1.247  52.025  1.00  0.00     0.140 A 
HETATM   13  O2  UNL     1      23.123   1.231  53.403  1.00  0.00    -0.312 OA
HETATM   14  C17 UNL     1      23.785  -0.088  53.431  1.00  0.00     0.295 C 
HETATM   15  O3  UNL     1      24.763  -0.053  52.526  1.00  0.00    -0.356 OA
HETATM   16  C18 UNL     1      25.605   0.912  52.233  1.00  0.00     0.197 C 
HETATM   17  C19 UNL     1      25.401   2.390  52.382  1.00  0.00     0.202 C 
HETATM   18  O4  UNL     1      24.405   2.968  51.436  1.00  0.00    -0.345 OA
ENDROOT
BRANCH   9  19
HETATM   19  N3  UNL     1      24.568   3.956  49.379  1.00  0.00    -0.350 N 
HETATM   20  C9  UNL     1      25.788   4.693  49.841  1.00  0.00     0.158 A 
HETATM   21  C10 UNL     1      24.860   5.409  48.977  1.00  0.00     0.166 A 
BRANCH  21  22
HETATM   22  C11 UNL     1      24.037   6.444  49.607  1.00  0.00     0.115 C 
HETATM   23  F1  UNL     1      24.508   6.846  50.828  1.00  0.00    -0.209 F 
HETATM   24  C12 UNL     1      22.946   7.153  49.399  1.00  0.00     0.028 C 
BRANCH  24  25
HETATM   25  C13 UNL     1      22.224   8.210  50.189  1.00  0.00     0.144 C 
HETATM   26 CL1  UNL     1      20.461   8.056  50.060  1.00  0.00    -0.126 Cl
ENDBRANCH  24  25
ENDBRANCH  21  22
ENDBRANCH   9  19
BRANCH   1  27
HETATM   27  C2  UNL     1      22.195  -1.458  54.717  1.00  0.00     0.033 C 
HETATM   28  C1  UNL     1      23.306  -1.417  55.700  1.00  0.00     0.007 C 
ENDBRANCH   1  27
TORSDOF 4
ENDMDL
