MODEL 1
REMARK VINA RESULT:      -7.7      0.000      0.000
REMARK  8 active torsions:
REMARK  status: ('A' for Active; 'I' for Inactive)
REMARK    1  A    between atoms: C2_2  and  C3_3 
REMARK    2  A    between atoms: C4_4  and  S1_5 
REMARK    3  A    between atoms: S1_5  and  C5_6 
REMARK    4  A    between atoms: C6_8  and  C7_9 
REMARK    5  A    between atoms: C7_9  and  C8_10 
REMARK    6  A    between atoms: C8_10  and  O1_11 
REMARK    7  A    between atoms: O1_11  and  N2_12 
REMARK    8  A    between atoms: N5_26  and  O3_27 
ROOT
HETATM    1  C5  UNL     1      26.028   1.838  52.156  1.00  0.00     0.224 C 
HETATM    2  N1  UNL     1      25.083   1.495  52.936  1.00  0.00    -0.205 NA
HETATM    3  C6  UNL     1      23.702   1.562  52.777  1.00  0.00     0.131 C 
HETATM    4  N3  UNL     1      22.763   2.393  52.452  1.00  0.00    -0.238 NA
HETATM    5  C9  UNL     1      22.924   3.736  52.097  1.00  0.00     0.035 C 
HETATM    6  C10 UNL     1      23.378   4.766  53.067  1.00  0.00     0.070 C 
HETATM    7  C11 UNL     1      22.704   4.249  50.901  1.00  0.00    -0.049 C 
HETATM    8  C12 UNL     1      22.901   5.713  50.587  1.00  0.00     0.065 C 
HETATM    9  C13 UNL     1      24.213   5.845  49.831  1.00  0.00     0.003 C 
HETATM   10  C14 UNL     1      24.996   4.845  49.369  1.00  0.00     0.076 C 
HETATM   11  C15 UNL     1      26.338   5.200  48.965  1.00  0.00     0.102 C 
HETATM   12  N4  UNL     1      27.416   5.477  48.661  1.00  0.00    -0.191 NA
HETATM   13  C16 UNL     1      24.662   3.406  49.221  1.00  0.00     0.118 C 
HETATM   14  C17 UNL     1      23.415   3.025  48.863  1.00  0.00     0.019 C 
HETATM   15  C18 UNL     1      22.254   3.372  49.764  1.00  0.00     0.066 C 
HETATM   16  O2  UNL     1      25.826   2.646  49.514  1.00  0.00    -0.207 OA
HETATM   17  N5  UNL     1      25.956   2.406  50.858  1.00  0.00    -0.095 N 
ENDROOT
BRANCH  17  18
HETATM   18  O3  UNL     1      26.220   3.601  51.469  1.00  0.00    -0.261 OA
HETATM   19  H21 UNL     1      26.023   3.527  52.436  1.00  0.00     0.247 HD
ENDBRANCH  17  18
BRANCH   1  20
HETATM   20  S1  UNL     1      27.552   1.468  53.011  1.00  0.00    -0.059 SA
BRANCH  20  21
HETATM   21  C4  UNL     1      27.292   0.638  54.562  1.00  0.00     0.053 C 
HETATM   22  C3  UNL     1      28.361  -0.142  54.798  1.00  0.00     0.003 C 
BRANCH  22  23
HETATM   23  C2  UNL     1      29.421  -0.146  53.820  1.00  0.00    -0.026 C 
HETATM   24  C1  UNL     1      30.028  -1.276  53.497  1.00  0.00     0.031 C 
ENDBRANCH  22  23
ENDBRANCH  20  21
ENDBRANCH   1  20
BRANCH   3  25
HETATM   25  C7  UNL     1      23.225   0.185  53.117  1.00  0.00     0.108 C 
BRANCH  25  26
HETATM   26  C8  UNL     1      21.776   0.161  53.532  1.00  0.00     0.201 C 
BRANCH  26  27
HETATM   27  O1  UNL     1      21.565  -0.150  54.853  1.00  0.00    -0.308 OA
BRANCH  27  28
HETATM   28  N2  UNL     1      21.168  -1.445  54.957  1.00  0.00    -0.215 NA
HETATM   29  H10 UNL     1      20.186  -1.501  55.312  1.00  0.00     0.150 HD
HETATM   30  H11 UNL     1      21.308  -1.954  54.067  1.00  0.00     0.150 HD
ENDBRANCH  27  28
ENDBRANCH  26  27
ENDBRANCH  25  26
ENDBRANCH   3  25
TORSDOF 8
ENDMDL
MODEL 2
REMARK VINA RESULT:      -7.3      2.412      5.256
REMARK  8 active torsions:
REMARK  status: ('A' for Active; 'I' for Inactive)
REMARK    1  A    between atoms: C2_2  and  C3_3 
REMARK    2  A    between atoms: C4_4  and  S1_5 
REMARK    3  A    between atoms: S1_5  and  C5_6 
REMARK    4  A    between atoms: C6_8  and  C7_9 
REMARK    5  A    between atoms: C7_9  and  C8_10 
REMARK    6  A    between atoms: C8_10  and  O1_11 
REMARK    7  A    between atoms: O1_11  and  N2_12 
REMARK    8  A    between atoms: N5_26  and  O3_27 
ROOT
HETATM    1  C5  UNL     1      24.753   2.721  50.984  1.00  0.00     0.224 C 
HETATM    2  N1  UNL     1      24.710   3.456  49.945  1.00  0.00    -0.205 NA
HETATM    3  C6  UNL     1      23.654   4.152  49.366  1.00  0.00     0.131 C 
HETATM    4  N3  UNL     1      22.436   3.982  48.961  1.00  0.00    -0.238 NA
HETATM    5  C9  UNL     1      21.699   2.795  49.008  1.00  0.00     0.035 C 
HETATM    6  C10 UNL     1      22.044   1.610  48.182  1.00  0.00     0.070 C 
HETATM    7  C11 UNL     1      20.639   2.576  49.765  1.00  0.00    -0.049 C 
HETATM    8  C12 UNL     1      19.890   1.264  49.767  1.00  0.00     0.065 C 
HETATM    9  C13 UNL     1      20.297   0.509  51.022  1.00  0.00     0.003 C 
HETATM   10  C14 UNL     1      21.056   0.966  52.043  1.00  0.00     0.076 C 
HETATM   11  C15 UNL     1      21.570  -0.020  52.967  1.00  0.00     0.102 C 
HETATM   12  N4  UNL     1      21.999  -0.807  53.693  1.00  0.00    -0.191 NA
HETATM   13  C16 UNL     1      21.445   2.366  52.348  1.00  0.00     0.118 C 
HETATM   14  C17 UNL     1      20.585   3.383  52.111  1.00  0.00     0.019 C 
HETATM   15  C18 UNL     1      20.128   3.643  50.695  1.00  0.00     0.066 C 
HETATM   16  O2  UNL     1      22.763   2.358  52.876  1.00  0.00    -0.207 OA
HETATM   17  N5  UNL     1      23.711   2.385  51.886  1.00  0.00    -0.095 N 
ENDROOT
BRANCH  17  18
HETATM   18  O3  UNL     1      23.650   1.191  51.220  1.00  0.00    -0.261 OA
HETATM   19  H21 UNL     1      23.625   1.357  50.246  1.00  0.00     0.247 HD
ENDBRANCH  17  18
BRANCH   1  20
HETATM   20  S1  UNL     1      26.439   2.149  51.132  1.00  0.00    -0.059 SA
BRANCH  20  21
HETATM   21  C4  UNL     1      26.992   2.054  52.820  1.00  0.00     0.053 C 
HETATM   22  C3  UNL     1      27.082   0.755  53.153  1.00  0.00     0.003 C 
BRANCH  22  23
HETATM   23  C2  UNL     1      26.739  -0.223  52.150  1.00  0.00    -0.026 C 
HETATM   24  C1  UNL     1      26.727  -1.511  52.449  1.00  0.00     0.031 C 
ENDBRANCH  22  23
ENDBRANCH  20  21
ENDBRANCH   1  20
BRANCH   3  25
HETATM   25  C7  UNL     1      24.185   5.539  49.180  1.00  0.00     0.108 C 
BRANCH  25  26
HETATM   26  C8  UNL     1      23.460   6.555  50.025  1.00  0.00     0.201 C 
BRANCH  26  27
HETATM   27  O1  UNL     1      23.381   6.238  51.358  1.00  0.00    -0.308 OA
BRANCH  27  28
HETATM   28  N2  UNL     1      24.390   6.850  52.030  1.00  0.00    -0.215 NA
HETATM   29  H10 UNL     1      24.734   6.244  52.810  1.00  0.00     0.150 HD
HETATM   30  H11 UNL     1      25.143   7.151  51.387  1.00  0.00     0.150 HD
ENDBRANCH  27  28
ENDBRANCH  26  27
ENDBRANCH  25  26
ENDBRANCH   3  25
TORSDOF 8
ENDMDL
MODEL 3
REMARK VINA RESULT:      -7.3      2.712      5.146
REMARK  8 active torsions:
REMARK  status: ('A' for Active; 'I' for Inactive)
REMARK    1  A    between atoms: C2_2  and  C3_3 
REMARK    2  A    between atoms: C4_4  and  S1_5 
REMARK    3  A    between atoms: S1_5  and  C5_6 
REMARK    4  A    between atoms: C6_8  and  C7_9 
REMARK    5  A    between atoms: C7_9  and  C8_10 
REMARK    6  A    between atoms: C8_10  and  O1_11 
REMARK    7  A    between atoms: O1_11  and  N2_12 
REMARK    8  A    between atoms: N5_26  and  O3_27 
ROOT
HETATM    1  C5  UNL     1      25.788   3.435  49.790  1.00  0.00     0.224 C 
HETATM    2  N1  UNL     1      26.273   2.955  50.865  1.00  0.00    -0.205 NA
HETATM    3  C6  UNL     1      25.714   2.107  51.816  1.00  0.00     0.131 C 
HETATM    4  N3  UNL     1      24.661   1.978  52.558  1.00  0.00    -0.238 NA
HETATM    5  C9  UNL     1      23.567   2.848  52.613  1.00  0.00     0.035 C 
HETATM    6  C10 UNL     1      23.673   4.227  53.156  1.00  0.00     0.070 C 
HETATM    7  C11 UNL     1      22.343   2.573  52.203  1.00  0.00    -0.049 C 
HETATM    8  C12 UNL     1      21.207   3.564  52.290  1.00  0.00     0.065 C 
HETATM    9  C13 UNL     1      20.987   4.129  50.896  1.00  0.00     0.003 C 
HETATM   10  C14 UNL     1      21.570   3.722  49.747  1.00  0.00     0.076 C 
HETATM   11  C15 UNL     1      21.451   4.604  48.607  1.00  0.00     0.102 C 
HETATM   12  N4  UNL     1      21.374   5.315  47.701  1.00  0.00    -0.191 NA
HETATM   13  C16 UNL     1      22.334   2.475  49.491  1.00  0.00     0.118 C 
HETATM   14  C17 UNL     1      21.979   1.318  50.093  1.00  0.00     0.019 C 
HETATM   15  C18 UNL     1      22.021   1.232  51.601  1.00  0.00     0.066 C 
HETATM   16  O2  UNL     1      23.384   2.774  48.582  1.00  0.00    -0.207 OA
HETATM   17  N5  UNL     1      24.500   3.243  49.226  1.00  0.00    -0.095 N 
ENDROOT
BRANCH  17  18
HETATM   18  O3  UNL     1      24.196   4.473  49.742  1.00  0.00    -0.261 OA
HETATM   19  H21 UNL     1      23.271   4.716  49.492  1.00  0.00     0.247 HD
ENDBRANCH  17  18
BRANCH   1  20
HETATM   20  S1  UNL     1      27.066   4.449  49.064  1.00  0.00    -0.059 SA
BRANCH  20  21
HETATM   21  C4  UNL     1      26.534   6.117  48.751  1.00  0.00     0.053 C 
HETATM   22  C3  UNL     1      27.582   6.801  48.261  1.00  0.00     0.003 C 
BRANCH  22  23
HETATM   23  C2  UNL     1      28.829   6.095  48.099  1.00  0.00    -0.026 C 
HETATM   24  C1  UNL     1      29.859   6.685  47.515  1.00  0.00     0.031 C 
ENDBRANCH  22  23
ENDBRANCH  20  21
ENDBRANCH   1  20
BRANCH   3  25
HETATM   25  C7  UNL     1      26.728   1.017  51.979  1.00  0.00     0.108 C 
BRANCH  25  26
HETATM   26  C8  UNL     1      27.547   1.173  53.235  1.00  0.00     0.201 C 
BRANCH  26  27
HETATM   27  O1  UNL     1      28.841   1.582  53.027  1.00  0.00    -0.308 OA
BRANCH  27  28
HETATM   28  N2  UNL     1      28.885   2.939  52.973  1.00  0.00    -0.215 NA
HETATM   29  H10 UNL     1      28.638   3.352  53.900  1.00  0.00     0.150 HD
HETATM   30  H11 UNL     1      29.795   3.271  52.608  1.00  0.00     0.150 HD
ENDBRANCH  27  28
ENDBRANCH  26  27
ENDBRANCH  25  26
ENDBRANCH   3  25
TORSDOF 8
ENDMDL
MODEL 4
REMARK VINA RESULT:      -6.9      3.157      5.250
REMARK  8 active torsions:
REMARK  status: ('A' for Active; 'I' for Inactive)
REMARK    1  A    between atoms: C2_2  and  C3_3 
REMARK    2  A    between atoms: C4_4  and  S1_5 
REMARK    3  A    between atoms: S1_5  and  C5_6 
REMARK    4  A    between atoms: C6_8  and  C7_9 
REMARK    5  A    between atoms: C7_9  and  C8_10 
REMARK    6  A    between atoms: C8_10  and  O1_11 
REMARK    7  A    between atoms: O1_11  and  N2_12 
REMARK    8  A    between atoms: N5_26  and  O3_27 
ROOT
HETATM    1  C5  UNL     1      22.202   1.506  51.944  1.00  0.00     0.224 C 
HETATM    2  N1  UNL     1      23.413   1.351  51.581  1.00  0.00    -0.205 NA
HETATM    3  C6  UNL     1      24.343   2.268  51.101  1.00  0.00     0.131 C 
HETATM    4  N3  UNL     1      24.480   3.190  50.203  1.00  0.00    -0.238 NA
HETATM    5  C9  UNL     1      23.518   3.597  49.273  1.00  0.00     0.035 C 
HETATM    6  C10 UNL     1      23.053   2.716  48.170  1.00  0.00     0.070 C 
HETATM    7  C11 UNL     1      22.917   4.772  49.251  1.00  0.00    -0.049 C 
HETATM    8  C12 UNL     1      21.884   5.145  48.215  1.00  0.00     0.065 C 
HETATM    9  C13 UNL     1      20.518   5.042  48.875  1.00  0.00     0.003 C 
HETATM   10  C14 UNL     1      20.256   4.820  50.182  1.00  0.00     0.076 C 
HETATM   11  C15 UNL     1      18.901   4.448  50.523  1.00  0.00     0.102 C 
HETATM   12  N4  UNL     1      17.824   4.132  50.794  1.00  0.00    -0.191 NA
HETATM   13  C16 UNL     1      21.186   4.902  51.337  1.00  0.00     0.118 C 
HETATM   14  C17 UNL     1      22.165   5.835  51.363  1.00  0.00     0.019 C 
HETATM   15  C18 UNL     1      23.231   5.812  50.293  1.00  0.00     0.066 C 
HETATM   16  O2  UNL     1      20.831   3.891  52.269  1.00  0.00    -0.207 OA
HETATM   17  N5  UNL     1      21.420   2.689  51.970  1.00  0.00    -0.095 N 
ENDROOT
BRANCH  17  18
HETATM   18  O3  UNL     1      20.862   2.231  50.807  1.00  0.00    -0.261 OA
HETATM   19  H21 UNL     1      21.470   1.575  50.386  1.00  0.00     0.247 HD
ENDBRANCH  17  18
BRANCH   1  20
HETATM   20  S1  UNL     1      21.612  -0.103  52.447  1.00  0.00    -0.059 SA
BRANCH  20  21
HETATM   21  C4  UNL     1      20.607  -0.046  53.913  1.00  0.00     0.053 C 
HETATM   22  C3  UNL     1      21.311  -0.592  54.919  1.00  0.00     0.003 C 
BRANCH  22  23
HETATM   23  C2  UNL     1      22.638  -1.076  54.626  1.00  0.00    -0.026 C 
HETATM   24  C1  UNL     1      23.463  -1.400  55.609  1.00  0.00     0.031 C 
ENDBRANCH  22  23
ENDBRANCH  20  21
ENDBRANCH   1  20
BRANCH   3  25
HETATM   25  C7  UNL     1      25.553   2.044  51.954  1.00  0.00     0.108 C 
BRANCH  25  26
HETATM   26  C8  UNL     1      25.318   2.409  53.398  1.00  0.00     0.201 C 
BRANCH  26  27
HETATM   27  O1  UNL     1      26.323   2.033  54.254  1.00  0.00    -0.308 OA
BRANCH  27  28
HETATM   28  N2  UNL     1      27.478   2.649  53.896  1.00  0.00    -0.215 NA
HETATM   29  H10 UNL     1      27.316   3.298  53.093  1.00  0.00     0.150 HD
HETATM   30  H11 UNL     1      27.926   3.110  54.707  1.00  0.00     0.150 HD
ENDBRANCH  27  28
ENDBRANCH  26  27
ENDBRANCH  25  26
ENDBRANCH   3  25
TORSDOF 8
ENDMDL
MODEL 5
REMARK VINA RESULT:      -6.8      3.135      6.077
REMARK  8 active torsions:
REMARK  status: ('A' for Active; 'I' for Inactive)
REMARK    1  A    between atoms: C2_2  and  C3_3 
REMARK    2  A    between atoms: C4_4  and  S1_5 
REMARK    3  A    between atoms: S1_5  and  C5_6 
REMARK    4  A    between atoms: C6_8  and  C7_9 
REMARK    5  A    between atoms: C7_9  and  C8_10 
REMARK    6  A    between atoms: C8_10  and  O1_11 
REMARK    7  A    between atoms: O1_11  and  N2_12 
REMARK    8  A    between atoms: N5_26  and  O3_27 
ROOT
HETATM    1  C5  UNL     1      24.292   4.424  49.805  1.00  0.00     0.224 C 
HETATM    2  N1  UNL     1      23.569   4.792  48.824  1.00  0.00    -0.205 NA
HETATM    3  C6  UNL     1      22.190   4.743  48.643  1.00  0.00     0.131 C 
HETATM    4  N3  UNL     1      21.191   3.923  48.718  1.00  0.00    -0.238 NA
HETATM    5  C9  UNL     1      21.245   2.574  49.079  1.00  0.00     0.035 C 
HETATM    6  C10 UNL     1      21.908   1.548  48.233  1.00  0.00     0.070 C 
HETATM    7  C11 UNL     1      20.735   2.049  50.179  1.00  0.00    -0.049 C 
HETATM    8  C12 UNL     1      20.832   0.579  50.507  1.00  0.00     0.065 C 
HETATM    9  C13 UNL     1      21.920   0.417  51.557  1.00  0.00     0.003 C 
HETATM   10  C14 UNL     1      22.579   1.399  52.211  1.00  0.00     0.076 C 
HETATM   11  C15 UNL     1      23.778   1.019  52.923  1.00  0.00     0.102 C 
HETATM   12  N4  UNL     1      24.747   0.722  53.475  1.00  0.00    -0.191 NA
HETATM   13  C16 UNL     1      22.236   2.842  52.296  1.00  0.00     0.118 C 
HETATM   14  C17 UNL     1      20.944   3.237  52.347  1.00  0.00     0.019 C 
HETATM   15  C18 UNL     1      20.032   2.919  51.186  1.00  0.00     0.066 C 
HETATM   16  O2  UNL     1      23.445   3.588  52.306  1.00  0.00    -0.207 OA
HETATM   17  N5  UNL     1      23.900   3.842  51.038  1.00  0.00    -0.095 N 
ENDROOT
BRANCH  17  18
HETATM   18  O3  UNL     1      24.291   2.651  50.490  1.00  0.00    -0.261 OA
HETATM   19  H21 UNL     1      23.516   2.038  50.447  1.00  0.00     0.247 HD
ENDBRANCH  17  18
BRANCH   1  20
HETATM   20  S1  UNL     1      25.983   4.782  49.352  1.00  0.00    -0.059 SA
BRANCH  20  21
HETATM   21  C4  UNL     1      26.186   6.411  48.665  1.00  0.00     0.053 C 
HETATM   22  C3  UNL     1      27.457   6.526  48.245  1.00  0.00     0.003 C 
BRANCH  22  23
HETATM   23  C2  UNL     1      28.330   5.392  48.422  1.00  0.00    -0.026 C 
HETATM   24  C1  UNL     1      29.608   5.475  48.090  1.00  0.00     0.031 C 
ENDBRANCH  22  23
ENDBRANCH  20  21
ENDBRANCH   1  20
BRANCH   3  25
HETATM   25  C7  UNL     1      21.826   6.132  48.219  1.00  0.00     0.108 C 
BRANCH  25  26
HETATM   26  C8  UNL     1      21.867   7.115  49.362  1.00  0.00     0.201 C 
BRANCH  26  27
HETATM   27  O1  UNL     1      21.217   6.699  50.497  1.00  0.00    -0.308 OA
BRANCH  27  28
HETATM   28  N2  UNL     1      22.105   6.604  51.519  1.00  0.00    -0.215 NA
HETATM   29  H10 UNL     1      22.045   5.664  51.973  1.00  0.00     0.150 HD
HETATM   30  H11 UNL     1      23.063   6.846  51.210  1.00  0.00     0.150 HD
ENDBRANCH  27  28
ENDBRANCH  26  27
ENDBRANCH  25  26
ENDBRANCH   3  25
TORSDOF 8
ENDMDL
MODEL 6
REMARK VINA RESULT:      -6.8      3.143      5.421
REMARK  8 active torsions:
REMARK  status: ('A' for Active; 'I' for Inactive)
REMARK    1  A    between atoms: C2_2  and  C3_3 
REMARK    2  A    between atoms: C4_4  and  S1_5 
REMARK    3  A    between atoms: S1_5  and  C5_6 
REMARK    4  A    between atoms: C6_8  and  C7_9 
REMARK    5  A    between atoms: C7_9  and  C8_10 
REMARK    6  A    between atoms: C8_10  and  O1_11 
REMARK    7  A    between atoms: O1_11  and  N2_12 
REMARK    8  A    between atoms: N5_26  and  O3_27 
ROOT
HETATM    1  C5  UNL     1      21.748   3.483  52.143  1.00  0.00     0.224 C 
HETATM    2  N1  UNL     1      22.831   2.837  52.318  1.00  0.00    -0.205 NA
HETATM    3  C6  UNL     1      24.157   3.218  52.139  1.00  0.00     0.131 C 
HETATM    4  N3  UNL     1      24.942   3.755  51.260  1.00  0.00    -0.238 NA
HETATM    5  C9  UNL     1      24.587   4.189  49.979  1.00  0.00     0.035 C 
HETATM    6  C10 UNL     1      24.175   3.248  48.905  1.00  0.00     0.070 C 
HETATM    7  C11 UNL     1      24.570   5.443  49.568  1.00  0.00    -0.049 C 
HETATM    8  C12 UNL     1      24.173   5.841  48.166  1.00  0.00     0.065 C 
HETATM    9  C13 UNL     1      22.756   6.388  48.231  1.00  0.00     0.003 C 
HETATM   10  C14 UNL     1      22.025   6.637  49.340  1.00  0.00     0.076 C 
HETATM   11  C15 UNL     1      20.607   6.851  49.153  1.00  0.00     0.102 C 
HETATM   12  N4  UNL     1      19.472   7.002  49.009  1.00  0.00    -0.191 NA
HETATM   13  C16 UNL     1      22.484   6.717  50.750  1.00  0.00     0.118 C 
HETATM   14  C17 UNL     1      23.698   7.235  51.046  1.00  0.00     0.019 C 
HETATM   15  C18 UNL     1      24.937   6.561  50.506  1.00  0.00     0.066 C 
HETATM   16  O2  UNL     1      21.466   6.181  51.583  1.00  0.00    -0.207 OA
HETATM   17  N5  UNL     1      21.564   4.819  51.701  1.00  0.00    -0.095 N 
ENDROOT
BRANCH  17  18
HETATM   18  O3  UNL     1      21.268   4.273  50.481  1.00  0.00    -0.261 OA
HETATM   19  H21 UNL     1      20.518   3.636  50.578  1.00  0.00     0.247 HD
ENDBRANCH  17  18
BRANCH   1  20
HETATM   20  S1  UNL     1      20.417   2.370  52.568  1.00  0.00    -0.059 SA
BRANCH  20  21
HETATM   21  C4  UNL     1      20.515   0.814  51.712  1.00  0.00     0.053 C 
HETATM   22  C3  UNL     1      20.769  -0.143  52.622  1.00  0.00     0.003 C 
BRANCH  22  23
HETATM   23  C2  UNL     1      20.900   0.258  54.001  1.00  0.00    -0.026 C 
HETATM   24  C1  UNL     1      21.542  -0.513  54.863  1.00  0.00     0.031 C 
ENDBRANCH  22  23
ENDBRANCH  20  21
ENDBRANCH   1  20
BRANCH   3  25
HETATM   25  C7  UNL     1      24.824   2.845  53.426  1.00  0.00     0.108 C 
BRANCH  25  26
HETATM   26  C8  UNL     1      26.037   1.975  53.217  1.00  0.00     0.201 C 
BRANCH  26  27
HETATM   27  O1  UNL     1      26.973   2.048  54.220  1.00  0.00    -0.308 OA
BRANCH  27  28
HETATM   28  N2  UNL     1      27.992   2.857  53.832  1.00  0.00    -0.215 NA
HETATM   29  H10 UNL     1      28.364   2.560  52.902  1.00  0.00     0.150 HD
HETATM   30  H11 UNL     1      27.713   3.853  53.861  1.00  0.00     0.150 HD
ENDBRANCH  27  28
ENDBRANCH  26  27
ENDBRANCH  25  26
ENDBRANCH   3  25
TORSDOF 8
ENDMDL
MODEL 7
REMARK VINA RESULT:      -6.7      6.952      9.717
REMARK  8 active torsions:
REMARK  status: ('A' for Active; 'I' for Inactive)
REMARK    1  A    between atoms: C2_2  and  C3_3 
REMARK    2  A    between atoms: C4_4  and  S1_5 
REMARK    3  A    between atoms: S1_5  and  C5_6 
REMARK    4  A    between atoms: C6_8  and  C7_9 
REMARK    5  A    between atoms: C7_9  and  C8_10 
REMARK    6  A    between atoms: C8_10  and  O1_11 
REMARK    7  A    between atoms: O1_11  and  N2_12 
REMARK    8  A    between atoms: N5_26  and  O3_27 
ROOT
HETATM    1  C5  UNL     1      31.531   6.382  47.616  1.00  0.00     0.224 C 
HETATM    2  N1  UNL     1      30.429   6.417  48.252  1.00  0.00    -0.205 NA
HETATM    3  C6  UNL     1      29.384   7.335  48.212  1.00  0.00     0.131 C 
HETATM    4  N3  UNL     1      29.156   8.607  48.295  1.00  0.00    -0.238 NA
HETATM    5  C9  UNL     1      30.106   9.614  48.488  1.00  0.00     0.035 C 
HETATM    6  C10 UNL     1      30.866   9.759  49.756  1.00  0.00     0.070 C 
HETATM    7  C11 UNL     1      30.443  10.535  47.604  1.00  0.00    -0.049 C 
HETATM    8  C12 UNL     1      31.482  11.595  47.880  1.00  0.00     0.065 C 
HETATM    9  C13 UNL     1      32.757  11.183  47.162  1.00  0.00     0.003 C 
HETATM   10  C14 UNL     1      32.914  10.154  46.299  1.00  0.00     0.076 C 
HETATM   11  C15 UNL     1      34.271   9.762  45.990  1.00  0.00     0.102 C 
HETATM   12  N4  UNL     1      35.353   9.435  45.758  1.00  0.00    -0.191 NA
HETATM   13  C16 UNL     1      31.866   9.353  45.617  1.00  0.00     0.118 C 
HETATM   14  C17 UNL     1      30.715   9.936  45.211  1.00  0.00     0.019 C 
HETATM   15  C18 UNL     1      29.803  10.559  46.242  1.00  0.00     0.066 C 
HETATM   16  O2  UNL     1      32.322   8.012  45.520  1.00  0.00    -0.207 OA
HETATM   17  N5  UNL     1      32.037   7.291  46.652  1.00  0.00    -0.095 N 
ENDROOT
BRANCH  17  18
HETATM   18  O3  UNL     1      32.805   7.793  47.667  1.00  0.00    -0.261 OA
HETATM   19  H21 UNL     1      32.219   8.096  48.404  1.00  0.00     0.247 HD
ENDBRANCH  17  18
BRANCH   1  20
HETATM   20  S1  UNL     1      32.390   4.915  48.167  1.00  0.00    -0.059 SA
BRANCH  20  21
HETATM   21  C4  UNL     1      33.848   4.566  47.210  1.00  0.00     0.053 C 
HETATM   22  C3  UNL     1      33.669   3.381  46.602  1.00  0.00     0.003 C 
BRANCH  22  23
HETATM   23  C2  UNL     1      32.426   2.688  46.830  1.00  0.00    -0.026 C 
HETATM   24  C1  UNL     1      32.394   1.366  46.863  1.00  0.00     0.031 C 
ENDBRANCH  22  23
ENDBRANCH  20  21
ENDBRANCH   1  20
BRANCH   3  25
HETATM   25  C7  UNL     1      28.162   6.494  48.011  1.00  0.00     0.108 C 
BRANCH  25  26
HETATM   26  C8  UNL     1      26.893   7.221  48.375  1.00  0.00     0.201 C 
BRANCH  26  27
HETATM   27  O1  UNL     1      26.448   6.988  49.653  1.00  0.00    -0.308 OA
BRANCH  27  28
HETATM   28  N2  UNL     1      26.695   8.078  50.425  1.00  0.00    -0.215 NA
HETATM   29  H10 UNL     1      26.540   7.856  51.435  1.00  0.00     0.150 HD
HETATM   30  H11 UNL     1      27.633   8.469  50.233  1.00  0.00     0.150 HD
ENDBRANCH  27  28
ENDBRANCH  26  27
ENDBRANCH  25  26
ENDBRANCH   3  25
TORSDOF 8
ENDMDL
MODEL 8
REMARK VINA RESULT:      -6.6      6.257      9.924
REMARK  8 active torsions:
REMARK  status: ('A' for Active; 'I' for Inactive)
REMARK    1  A    between atoms: C2_2  and  C3_3 
REMARK    2  A    between atoms: C4_4  and  S1_5 
REMARK    3  A    between atoms: S1_5  and  C5_6 
REMARK    4  A    between atoms: C6_8  and  C7_9 
REMARK    5  A    between atoms: C7_9  and  C8_10 
REMARK    6  A    between atoms: C8_10  and  O1_11 
REMARK    7  A    between atoms: O1_11  and  N2_12 
REMARK    8  A    between atoms: N5_26  and  O3_27 
ROOT
HETATM    1  C5  UNL     1      28.323   8.326  48.650  1.00  0.00     0.224 C 
HETATM    2  N1  UNL     1      29.474   7.829  48.430  1.00  0.00    -0.205 NA
HETATM    3  C6  UNL     1      30.727   8.431  48.361  1.00  0.00     0.131 C 
HETATM    4  N3  UNL     1      31.344   9.412  47.786  1.00  0.00    -0.238 NA
HETATM    5  C9  UNL     1      30.794  10.328  46.884  1.00  0.00     0.035 C 
HETATM    6  C10 UNL     1      30.341   9.934  45.525  1.00  0.00     0.070 C 
HETATM    7  C11 UNL     1      30.610  11.616  47.109  1.00  0.00    -0.049 C 
HETATM    8  C12 UNL     1      30.008  12.550  46.086  1.00  0.00     0.065 C 
HETATM    9  C13 UNL     1      28.566  12.804  46.495  1.00  0.00     0.003 C 
HETATM   10  C14 UNL     1      27.958  12.415  47.637  1.00  0.00     0.076 C 
HETATM   11  C15 UNL     1      26.514  12.491  47.668  1.00  0.00     0.102 C 
HETATM   12  N4  UNL     1      25.361  12.531  47.687  1.00  0.00    -0.191 NA
HETATM   13  C16 UNL     1      28.579  11.906  48.886  1.00  0.00     0.118 C 
HETATM   14  C17 UNL     1      29.767  12.396  49.309  1.00  0.00     0.019 C 
HETATM   15  C18 UNL     1      30.986  12.222  48.434  1.00  0.00     0.066 C 
HETATM   16  O2  UNL     1      27.726  10.914  49.438  1.00  0.00    -0.207 OA
HETATM   17  N5  UNL     1      27.963   9.676  48.898  1.00  0.00    -0.095 N 
ENDROOT
BRANCH  17  18
HETATM   18  O3  UNL     1      27.569   9.712  47.588  1.00  0.00    -0.261 OA
HETATM   19  H21 UNL     1      26.738   9.187  47.479  1.00  0.00     0.247 HD
ENDBRANCH  17  18
BRANCH   1  20
HETATM   20  S1  UNL     1      27.163   6.969  48.594  1.00  0.00    -0.059 SA
BRANCH  20  21
HETATM   21  C4  UNL     1      27.959   5.382  48.470  1.00  0.00     0.053 C 
HETATM   22  C3  UNL     1      27.112   4.457  48.952  1.00  0.00     0.003 C 
BRANCH  22  23
HETATM   23  C2  UNL     1      25.828   4.904  49.434  1.00  0.00    -0.026 C 
HETATM   24  C1  UNL     1      24.808   4.064  49.495  1.00  0.00     0.031 C 
ENDBRANCH  22  23
ENDBRANCH  20  21
ENDBRANCH   1  20
BRANCH   3  25
HETATM   25  C7  UNL     1      31.580   7.609  49.277  1.00  0.00     0.108 C 
BRANCH  25  26
HETATM   26  C8  UNL     1      31.593   6.149  48.900  1.00  0.00     0.201 C 
BRANCH  26  27
HETATM   27  O1  UNL     1      32.176   5.323  49.829  1.00  0.00    -0.308 OA
BRANCH  27  28
HETATM   28  N2  UNL     1      31.565   5.488  51.030  1.00  0.00    -0.215 NA
HETATM   29  H10 UNL     1      31.774   6.434  51.423  1.00  0.00     0.150 HD
HETATM   30  H11 UNL     1      30.551   5.289  50.967  1.00  0.00     0.150 HD
ENDBRANCH  27  28
ENDBRANCH  26  27
ENDBRANCH  25  26
ENDBRANCH   3  25
TORSDOF 8
ENDMDL
MODEL 9
REMARK VINA RESULT:      -6.3      8.115     10.646
REMARK  8 active torsions:
REMARK  status: ('A' for Active; 'I' for Inactive)
REMARK    1  A    between atoms: C2_2  and  C3_3 
REMARK    2  A    between atoms: C4_4  and  S1_5 
REMARK    3  A    between atoms: S1_5  and  C5_6 
REMARK    4  A    between atoms: C6_8  and  C7_9 
REMARK    5  A    between atoms: C7_9  and  C8_10 
REMARK    6  A    between atoms: C8_10  and  O1_11 
REMARK    7  A    between atoms: O1_11  and  N2_12 
REMARK    8  A    between atoms: N5_26  and  O3_27 
ROOT
HETATM    1  C5  UNL     1      31.892   6.452  47.677  1.00  0.00     0.224 C 
HETATM    2  N1  UNL     1      33.052   6.933  47.470  1.00  0.00    -0.205 NA
HETATM    3  C6  UNL     1      33.549   8.220  47.652  1.00  0.00     0.131 C 
HETATM    4  N3  UNL     1      33.286   9.454  47.359  1.00  0.00    -0.238 NA
HETATM    5  C9  UNL     1      32.195   9.921  46.621  1.00  0.00     0.035 C 
HETATM    6  C10 UNL     1      32.033   9.635  45.172  1.00  0.00     0.070 C 
HETATM    7  C11 UNL     1      31.200  10.649  47.093  1.00  0.00    -0.049 C 
HETATM    8  C12 UNL     1      30.049  11.119  46.236  1.00  0.00     0.065 C 
HETATM    9  C13 UNL     1      28.857  10.229  46.547  1.00  0.00     0.003 C 
HETATM   10  C14 UNL     1      28.764   9.293  47.517  1.00  0.00     0.076 C 
HETATM   11  C15 UNL     1      27.664   8.359  47.422  1.00  0.00     0.102 C 
HETATM   12  N4  UNL     1      26.798   7.601  47.337  1.00  0.00    -0.191 NA
HETATM   13  C16 UNL     1      29.657   9.084  48.685  1.00  0.00     0.118 C 
HETATM   14  C17 UNL     1      30.219  10.140  49.315  1.00  0.00     0.019 C 
HETATM   15  C18 UNL     1      31.160  11.038  48.546  1.00  0.00     0.066 C 
HETATM   16  O2  UNL     1      29.752   7.688  48.930  1.00  0.00    -0.207 OA
HETATM   17  N5  UNL     1      30.729   7.100  48.167  1.00  0.00    -0.095 N 
ENDROOT
BRANCH  17  18
HETATM   18  O3  UNL     1      30.320   7.145  46.862  1.00  0.00    -0.261 OA
HETATM   19  H21 UNL     1      29.332   7.135  46.825  1.00  0.00     0.247 HD
ENDBRANCH  17  18
BRANCH   1  20
HETATM   20  S1  UNL     1      31.969   4.726  47.223  1.00  0.00    -0.059 SA
BRANCH  20  21
HETATM   21  C4  UNL     1      33.399   4.331  46.243  1.00  0.00     0.053 C 
HETATM   22  C3  UNL     1      33.714   3.044  46.470  1.00  0.00     0.003 C 
BRANCH  22  23
HETATM   23  C2  UNL     1      32.889   2.302  47.392  1.00  0.00    -0.026 C 
HETATM   24  C1  UNL     1      32.450   1.096  47.074  1.00  0.00     0.031 C 
ENDBRANCH  22  23
ENDBRANCH  20  21
ENDBRANCH   1  20
BRANCH   3  25
HETATM   25  C7  UNL     1      34.799   8.022  48.453  1.00  0.00     0.108 C 
BRANCH  25  26
HETATM   26  C8  UNL     1      35.418   6.666  48.231  1.00  0.00     0.201 C 
BRANCH  26  27
HETATM   27  O1  UNL     1      35.809   6.021  49.379  1.00  0.00    -0.308 OA
BRANCH  27  28
HETATM   28  N2  UNL     1      35.298   4.763  49.389  1.00  0.00    -0.215 NA
HETATM   29  H10 UNL     1      34.952   4.515  50.344  1.00  0.00     0.150 HD
HETATM   30  H11 UNL     1      34.581   4.643  48.653  1.00  0.00     0.150 HD
ENDBRANCH  27  28
ENDBRANCH  26  27
ENDBRANCH  25  26
ENDBRANCH   3  25
TORSDOF 8
ENDMDL
