MODEL 1
REMARK VINA RESULT:      -9.1      0.000      0.000
REMARK  2 active torsions:
REMARK  status: ('A' for Active; 'I' for Inactive)
REMARK    1  A    between atoms: N1_1  and  C1_2 
REMARK    2  A    between atoms: C1_2  and  C2_3 
ROOT
HETATM    1  C2  UNL     1      27.855   0.732  54.240  1.00  0.00     0.070 C 
HETATM    2  C3  UNL     1      27.599  -0.484  53.269  1.00  0.00     0.075 C 
HETATM    3  C4  UNL     1      26.125  -0.209  52.859  1.00  0.00     0.077 A 
HETATM    4  N2  UNL     1      25.278  -0.992  53.535  1.00  0.00    -0.162 NA
HETATM    5  N3  UNL     1      24.107  -0.429  53.234  1.00  0.00     0.007 NA
HETATM    6  N4  UNL     1      24.304   0.626  52.419  1.00  0.00    -0.252 N 
HETATM    7  C5  UNL     1      25.590   0.892  52.073  1.00  0.00     0.063 A 
HETATM    8  C6  UNL     1      26.723   1.591  51.414  1.00  0.00     0.067 C 
HETATM    9  C7  UNL     1      27.541   2.149  52.595  1.00  0.00     0.011 C 
HETATM   10  C8  UNL     1      27.032   1.853  53.782  1.00  0.00     0.031 C 
HETATM   11  N5  UNL     1      26.045   2.836  53.708  1.00  0.00    -0.280 N 
HETATM   12  N6  UNL     1      24.750   2.805  53.329  1.00  0.00    -0.149 NA
HETATM   13  C9  UNL     1      24.052   3.496  52.449  1.00  0.00     0.185 C 
HETATM   14  C10 UNL     1      23.953   4.565  51.381  1.00  0.00     0.060 C 
HETATM   15  C11 UNL     1      24.573   5.047  50.395  1.00  0.00     0.004 C 
HETATM   16  C12 UNL     1      25.734   4.928  49.548  1.00  0.00    -0.004 C 
HETATM   17  C13 UNL     1      26.488   3.799  49.736  1.00  0.00    -0.026 C 
HETATM   18  C14 UNL     1      26.475   2.634  50.547  1.00  0.00     0.042 C 
HETATM   19  O1  UNL     1      23.025   2.623  52.849  1.00  0.00    -0.312 OA
HETATM   20  C15 UNL     1      23.019   1.256  52.298  1.00  0.00     0.324 C 
HETATM   21  H10 UNL     1      26.315   3.822  54.011  1.00  0.00     0.189 HD
ENDROOT
BRANCH   1  22
HETATM   22  C1  UNL     1      29.297   0.987  54.298  1.00  0.00     0.277 C 
BRANCH  22  23
HETATM   23  N1  UNL     1      30.119   0.120  53.482  1.00  0.00     0.079 N 
HETATM   24  H1  UNL     1      30.079  -0.856  53.809  1.00  0.00     0.312 HD
HETATM   25  H2  UNL     1      29.807   0.218  52.476  1.00  0.00     0.312 HD
ENDBRANCH  22  23
ENDBRANCH   1  22
TORSDOF 2
ENDMDL
MODEL 2
REMARK VINA RESULT:      -8.6      2.514      5.378
REMARK  2 active torsions:
REMARK  status: ('A' for Active; 'I' for Inactive)
REMARK    1  A    between atoms: N1_1  and  C1_2 
REMARK    2  A    between atoms: C1_2  and  C2_3 
ROOT
HETATM    1  C2  UNL     1      23.210  -0.030  54.091  1.00  0.00     0.070 C 
HETATM    2  C3  UNL     1      23.082   0.152  52.530  1.00  0.00     0.075 C 
HETATM    3  C4  UNL     1      24.371   0.969  52.237  1.00  0.00     0.077 A 
HETATM    4  N2  UNL     1      24.099   2.268  52.083  1.00  0.00    -0.162 NA
HETATM    5  N3  UNL     1      25.325   2.794  52.102  1.00  0.00     0.007 NA
HETATM    6  N4  UNL     1      26.239   1.816  52.259  1.00  0.00    -0.252 N 
HETATM    7  C5  UNL     1      25.759   0.549  52.353  1.00  0.00     0.063 A 
HETATM    8  C6  UNL     1      25.791  -0.930  52.498  1.00  0.00     0.067 C 
HETATM    9  C7  UNL     1      25.062  -1.179  53.833  1.00  0.00     0.011 C 
HETATM   10  C8  UNL     1      24.636  -0.070  54.421  1.00  0.00     0.031 C 
HETATM   11  N5  UNL     1      25.897   0.263  54.914  1.00  0.00    -0.280 N 
HETATM   12  N6  UNL     1      26.872   1.078  54.457  1.00  0.00    -0.149 NA
HETATM   13  C9  UNL     1      28.154   0.897  54.206  1.00  0.00     0.185 C 
HETATM   14  C10 UNL     1      29.381   0.013  54.153  1.00  0.00     0.060 C 
HETATM   15  C11 UNL     1      29.757  -1.151  53.849  1.00  0.00     0.004 C 
HETATM   16  C12 UNL     1      29.356  -2.425  53.303  1.00  0.00    -0.004 C 
HETATM   17  C13 UNL     1      28.096  -2.465  52.765  1.00  0.00    -0.026 C 
HETATM   18  C14 UNL     1      27.002  -1.587  52.553  1.00  0.00     0.042 C 
HETATM   19  O1  UNL     1      28.071   2.231  53.769  1.00  0.00    -0.312 OA
HETATM   20  C15 UNL     1      27.492   2.494  52.439  1.00  0.00     0.324 C 
HETATM   21  H10 UNL     1      26.193  -0.178  55.839  1.00  0.00     0.189 HD
ENDROOT
BRANCH   1  22
HETATM   22  C1  UNL     1      22.435  -1.209  54.489  1.00  0.00     0.277 C 
BRANCH  22  23
HETATM   23  N1  UNL     1      21.037  -0.971  54.777  1.00  0.00     0.079 N 
HETATM   24  H1  UNL     1      20.919  -0.256  55.511  1.00  0.00     0.312 HD
HETATM   25  H2  UNL     1      20.554  -0.702  53.875  1.00  0.00     0.312 HD
ENDBRANCH  22  23
ENDBRANCH   1  22
TORSDOF 2
ENDMDL
MODEL 3
REMARK VINA RESULT:      -8.0      1.633      2.211
REMARK  2 active torsions:
REMARK  status: ('A' for Active; 'I' for Inactive)
REMARK    1  A    between atoms: N1_1  and  C1_2 
REMARK    2  A    between atoms: C1_2  and  C2_3 
ROOT
HETATM    1  C2  UNL     1      25.404   0.741  54.026  1.00  0.00     0.070 C 
HETATM    2  C3  UNL     1      24.667  -0.202  52.999  1.00  0.00     0.075 C 
HETATM    3  C4  UNL     1      23.549   0.752  52.495  1.00  0.00     0.077 A 
HETATM    4  N2  UNL     1      22.379   0.482  53.083  1.00  0.00    -0.162 NA
HETATM    5  N3  UNL     1      21.654   1.542  52.719  1.00  0.00     0.007 NA
HETATM    6  N4  UNL     1      22.401   2.364  51.956  1.00  0.00    -0.252 N 
HETATM    7  C5  UNL     1      23.677   1.970  51.710  1.00  0.00     0.063 A 
HETATM    8  C6  UNL     1      25.055   2.027  51.156  1.00  0.00     0.067 C 
HETATM    9  C7  UNL     1      25.946   2.124  52.411  1.00  0.00     0.011 C 
HETATM   10  C8  UNL     1      25.265   2.119  53.548  1.00  0.00     0.031 C 
HETATM   11  N5  UNL     1      24.888   3.457  53.437  1.00  0.00    -0.280 N 
HETATM   12  N6  UNL     1      23.775   4.057  52.966  1.00  0.00    -0.149 NA
HETATM   13  C9  UNL     1      23.570   4.996  52.062  1.00  0.00     0.185 C 
HETATM   14  C10 UNL     1      24.084   5.972  51.027  1.00  0.00     0.060 C 
HETATM   15  C11 UNL     1      24.935   6.087  50.104  1.00  0.00     0.004 C 
HETATM   16  C12 UNL     1      25.955   5.415  49.337  1.00  0.00    -0.004 C 
HETATM   17  C13 UNL     1      26.050   4.063  49.540  1.00  0.00    -0.026 C 
HETATM   18  C14 UNL     1      25.411   3.055  50.309  1.00  0.00     0.042 C 
HETATM   19  O1  UNL     1      22.220   4.733  52.360  1.00  0.00    -0.312 OA
HETATM   20  C15 UNL     1      21.596   3.538  51.764  1.00  0.00     0.324 C 
HETATM   21  H10 UNL     1      25.577   4.190  53.791  1.00  0.00     0.189 HD
ENDROOT
BRANCH   1  22
HETATM   22  C1  UNL     1      26.780   0.265  54.193  1.00  0.00     0.277 C 
BRANCH  22  23
HETATM   23  N1  UNL     1      27.016  -1.111  53.813  1.00  0.00     0.079 N 
HETATM   24  H1  UNL     1      26.740  -1.763  54.562  1.00  0.00     0.312 HD
HETATM   25  H2  UNL     1      26.499  -1.298  52.909  1.00  0.00     0.312 HD
ENDBRANCH  22  23
ENDBRANCH   1  22
TORSDOF 2
ENDMDL
MODEL 4
REMARK VINA RESULT:      -7.9      2.343      5.654
REMARK  2 active torsions:
REMARK  status: ('A' for Active; 'I' for Inactive)
REMARK    1  A    between atoms: N1_1  and  C1_2 
REMARK    2  A    between atoms: C1_2  and  C2_3 
ROOT
HETATM    1  C2  UNL     1      23.488   5.258  51.417  1.00  0.00     0.070 C 
HETATM    2  C3  UNL     1      23.759   4.719  49.960  1.00  0.00     0.075 C 
HETATM    3  C4  UNL     1      24.853   3.655  50.253  1.00  0.00     0.077 A 
HETATM    4  N2  UNL     1      26.072   4.117  49.958  1.00  0.00    -0.162 NA
HETATM    5  N3  UNL     1      26.845   3.181  50.510  1.00  0.00     0.007 NA
HETATM    6  N4  UNL     1      26.077   2.236  51.088  1.00  0.00    -0.252 N 
HETATM    7  C5  UNL     1      24.733   2.407  50.992  1.00  0.00     0.063 A 
HETATM    8  C6  UNL     1      23.289   2.110  51.177  1.00  0.00     0.067 C 
HETATM    9  C7  UNL     1      22.786   3.277  52.049  1.00  0.00     0.011 C 
HETATM   10  C8  UNL     1      23.729   4.157  52.353  1.00  0.00     0.031 C 
HETATM   11  N5  UNL     1      24.286   3.357  53.350  1.00  0.00    -0.280 N 
HETATM   12  N6  UNL     1      25.323   2.493  53.356  1.00  0.00    -0.149 NA
HETATM   13  C9  UNL     1      25.442   1.228  53.712  1.00  0.00     0.185 C 
HETATM   14  C10 UNL     1      24.848  -0.060  54.239  1.00  0.00     0.060 C 
HETATM   15  C11 UNL     1      23.819  -0.784  54.169  1.00  0.00     0.004 C 
HETATM   16  C12 UNL     1      22.535  -0.965  53.537  1.00  0.00    -0.004 C 
HETATM   17  C13 UNL     1      22.267  -0.120  52.492  1.00  0.00    -0.026 C 
HETATM   18  C14 UNL     1      22.904   0.935  51.787  1.00  0.00     0.042 C 
HETATM   19  O1  UNL     1      26.757   1.409  53.247  1.00  0.00    -0.312 OA
HETATM   20  C15 UNL     1      26.991   1.382  51.792  1.00  0.00     0.324 C 
HETATM   21  H10 UNL     1      23.849   3.410  54.321  1.00  0.00     0.189 HD
ENDROOT
BRANCH   1  22
HETATM   22  C1  UNL     1      22.144   5.839  51.457  1.00  0.00     0.277 C 
BRANCH  22  23
HETATM   23  N1  UNL     1      22.071   7.265  51.220  1.00  0.00     0.079 N 
HETATM   24  H1  UNL     1      22.629   7.541  50.398  1.00  0.00     0.312 HD
HETATM   25  H2  UNL     1      21.052   7.533  51.119  1.00  0.00     0.312 HD
ENDBRANCH  22  23
ENDBRANCH   1  22
TORSDOF 2
ENDMDL
MODEL 5
REMARK VINA RESULT:      -7.6      2.458      3.336
REMARK  2 active torsions:
REMARK  status: ('A' for Active; 'I' for Inactive)
REMARK    1  A    between atoms: N1_1  and  C1_2 
REMARK    2  A    between atoms: C1_2  and  C2_3 
ROOT
HETATM    1  C2  UNL     1      25.049   1.712  53.400  1.00  0.00     0.070 C 
HETATM    2  C3  UNL     1      24.499   0.303  52.954  1.00  0.00     0.075 C 
HETATM    3  C4  UNL     1      22.994   0.637  52.764  1.00  0.00     0.077 A 
HETATM    4  N2  UNL     1      22.268   0.226  53.808  1.00  0.00    -0.162 NA
HETATM    5  N3  UNL     1      21.100   0.824  53.565  1.00  0.00     0.007 NA
HETATM    6  N4  UNL     1      21.182   1.538  52.425  1.00  0.00    -0.252 N 
HETATM    7  C5  UNL     1      22.373   1.504  51.773  1.00  0.00     0.063 A 
HETATM    8  C6  UNL     1      23.375   1.802  50.717  1.00  0.00     0.067 C 
HETATM    9  C7  UNL     1      24.473   2.580  51.469  1.00  0.00     0.011 C 
HETATM   10  C8  UNL     1      24.222   2.738  52.761  1.00  0.00     0.031 C 
HETATM   11  N5  UNL     1      23.314   3.776  52.553  1.00  0.00    -0.280 N 
HETATM   12  N6  UNL     1      21.968   3.808  52.458  1.00  0.00    -0.149 NA
HETATM   13  C9  UNL     1      21.140   4.282  51.547  1.00  0.00     0.185 C 
HETATM   14  C10 UNL     1      20.877   4.970  50.226  1.00  0.00     0.060 C 
HETATM   15  C11 UNL     1      21.292   5.033  49.037  1.00  0.00     0.004 C 
HETATM   16  C12 UNL     1      22.223   4.499  48.073  1.00  0.00    -0.004 C 
HETATM   17  C13 UNL     1      22.922   3.392  48.479  1.00  0.00    -0.026 C 
HETATM   18  C14 UNL     1      23.010   2.549  49.617  1.00  0.00     0.042 C 
HETATM   19  O1  UNL     1      20.171   3.725  52.402  1.00  0.00    -0.312 OA
HETATM   20  C15 UNL     1      19.948   2.269  52.347  1.00  0.00     0.324 C 
HETATM   21  H10 UNL     1      23.712   4.761  52.455  1.00  0.00     0.189 HD
ENDROOT
BRANCH   1  22
HETATM   22  C1  UNL     1      26.481   1.772  53.095  1.00  0.00     0.277 C 
BRANCH  22  23
HETATM   23  N1  UNL     1      27.266   2.642  53.944  1.00  0.00     0.079 N 
HETATM   24  H1  UNL     1      27.153   3.632  53.678  1.00  0.00     0.312 HD
HETATM   25  H2  UNL     1      26.987   2.464  54.949  1.00  0.00     0.312 HD
ENDBRANCH  22  23
ENDBRANCH   1  22
TORSDOF 2
ENDMDL
MODEL 6
REMARK VINA RESULT:      -7.5      3.453      5.503
REMARK  2 active torsions:
REMARK  status: ('A' for Active; 'I' for Inactive)
REMARK    1  A    between atoms: N1_1  and  C1_2 
REMARK    2  A    between atoms: C1_2  and  C2_3 
ROOT
HETATM    1  C2  UNL     1      24.951   4.714  49.569  1.00  0.00     0.070 C 
HETATM    2  C3  UNL     1      24.828   5.658  50.825  1.00  0.00     0.075 C 
HETATM    3  C4  UNL     1      23.423   5.248  51.348  1.00  0.00     0.077 A 
HETATM    4  N2  UNL     1      22.493   6.140  50.995  1.00  0.00    -0.162 NA
HETATM    5  N3  UNL     1      21.373   5.485  51.305  1.00  0.00     0.007 NA
HETATM    6  N4  UNL     1      21.679   4.274  51.814  1.00  0.00    -0.252 N 
HETATM    7  C5  UNL     1      23.000   3.976  51.915  1.00  0.00     0.063 A 
HETATM    8  C6  UNL     1      24.212   3.179  52.235  1.00  0.00     0.067 C 
HETATM    9  C7  UNL     1      24.863   2.940  50.858  1.00  0.00     0.011 C 
HETATM   10  C8  UNL     1      24.197   3.490  49.853  1.00  0.00     0.031 C 
HETATM   11  N5  UNL     1      23.230   2.486  49.821  1.00  0.00    -0.280 N 
HETATM   12  N6  UNL     1      21.999   2.385  50.364  1.00  0.00    -0.149 NA
HETATM   13  C9  UNL     1      21.426   1.485  51.140  1.00  0.00     0.185 C 
HETATM   14  C10 UNL     1      21.472   0.193  51.927  1.00  0.00     0.060 C 
HETATM   15  C11 UNL     1      22.220  -0.486  52.681  1.00  0.00     0.004 C 
HETATM   16  C12 UNL     1      23.485  -0.532  53.372  1.00  0.00    -0.004 C 
HETATM   17  C13 UNL     1      24.207   0.633  53.359  1.00  0.00    -0.026 C 
HETATM   18  C14 UNL     1      24.083   1.955  52.856  1.00  0.00     0.042 C 
HETATM   19  O1  UNL     1      20.354   2.394  51.096  1.00  0.00    -0.312 OA
HETATM   20  C15 UNL     1      20.422   3.593  51.951  1.00  0.00     0.324 C 
HETATM   21  H10 UNL     1      23.456   1.607  49.261  1.00  0.00     0.189 HD
ENDROOT
BRANCH   1  22
HETATM   22  C1  UNL     1      26.372   4.525  49.264  1.00  0.00     0.277 C 
BRANCH  22  23
HETATM   23  N1  UNL     1      27.188   5.718  49.320  1.00  0.00     0.079 N 
HETATM   24  H1  UNL     1      27.395   5.989  50.293  1.00  0.00     0.312 HD
HETATM   25  H2  UNL     1      28.067   5.545  48.758  1.00  0.00     0.312 HD
ENDBRANCH  22  23
ENDBRANCH   1  22
TORSDOF 2
ENDMDL
MODEL 7
REMARK VINA RESULT:      -7.3      2.751      4.134
REMARK  2 active torsions:
REMARK  status: ('A' for Active; 'I' for Inactive)
REMARK    1  A    between atoms: N1_1  and  C1_2 
REMARK    2  A    between atoms: C1_2  and  C2_3 
ROOT
HETATM    1  C2  UNL     1      23.376   1.520  52.939  1.00  0.00     0.070 C 
HETATM    2  C3  UNL     1      22.554   1.015  51.691  1.00  0.00     0.075 C 
HETATM    3  C4  UNL     1      22.058   2.370  51.115  1.00  0.00     0.077 A 
HETATM    4  N2  UNL     1      20.785   2.604  51.448  1.00  0.00    -0.162 NA
HETATM    5  N3  UNL     1      20.653   3.883  51.091  1.00  0.00     0.007 NA
HETATM    6  N4  UNL     1      21.814   4.335  50.578  1.00  0.00    -0.252 N 
HETATM    7  C5  UNL     1      22.838   3.444  50.517  1.00  0.00     0.063 A 
HETATM    8  C6  UNL     1      24.201   2.929  50.229  1.00  0.00     0.067 C 
HETATM    9  C7  UNL     1      24.765   2.595  51.624  1.00  0.00     0.011 C 
HETATM   10  C8  UNL     1      23.918   2.841  52.613  1.00  0.00     0.031 C 
HETATM   11  N5  UNL     1      24.155   4.215  52.598  1.00  0.00    -0.280 N 
HETATM   12  N6  UNL     1      23.512   5.247  52.013  1.00  0.00    -0.149 NA
HETATM   13  C9  UNL     1      23.906   6.214  51.206  1.00  0.00     0.185 C 
HETATM   14  C10 UNL     1      24.982   6.913  50.404  1.00  0.00     0.060 C 
HETATM   15  C11 UNL     1      25.979   6.687  49.668  1.00  0.00     0.004 C 
HETATM   16  C12 UNL     1      26.772   5.671  49.019  1.00  0.00    -0.004 C 
HETATM   17  C13 UNL     1      26.260   4.401  49.073  1.00  0.00    -0.026 C 
HETATM   18  C14 UNL     1      25.117   3.736  49.588  1.00  0.00     0.042 C 
HETATM   19  O1  UNL     1      22.538   6.541  51.225  1.00  0.00    -0.312 OA
HETATM   20  C15 UNL     1      21.621   5.746  50.389  1.00  0.00     0.324 C 
HETATM   21  H10 UNL     1      24.991   4.573  53.155  1.00  0.00     0.189 HD
ENDROOT
BRANCH   1  22
HETATM   22  C1  UNL     1      24.366   0.498  53.290  1.00  0.00     0.277 C 
BRANCH  22  23
HETATM   23  N1  UNL     1      23.828  -0.786  53.683  1.00  0.00     0.079 N 
HETATM   24  H1  UNL     1      23.827  -0.897  54.708  1.00  0.00     0.312 HD
HETATM   25  H2  UNL     1      22.858  -0.879  53.271  1.00  0.00     0.312 HD
ENDBRANCH  22  23
ENDBRANCH   1  22
TORSDOF 2
ENDMDL
MODEL 8
REMARK VINA RESULT:      -7.2      7.931      9.403
REMARK  2 active torsions:
REMARK  status: ('A' for Active; 'I' for Inactive)
REMARK    1  A    between atoms: N1_1  and  C1_2 
REMARK    2  A    between atoms: C1_2  and  C2_3 
ROOT
HETATM    1  C2  UNL     1      33.104   5.324  48.575  1.00  0.00     0.070 C 
HETATM    2  C3  UNL     1      32.258   4.860  47.328  1.00  0.00     0.075 C 
HETATM    3  C4  UNL     1      30.996   5.751  47.498  1.00  0.00     0.077 A 
HETATM    4  N2  UNL     1      29.983   5.063  48.032  1.00  0.00    -0.162 NA
HETATM    5  N3  UNL     1      29.126   6.044  48.321  1.00  0.00     0.007 NA
HETATM    6  N4  UNL     1      29.651   7.231  47.957  1.00  0.00    -0.252 N 
HETATM    7  C5  UNL     1      30.884   7.198  47.387  1.00  0.00     0.063 A 
HETATM    8  C6  UNL     1      32.123   7.717  46.754  1.00  0.00     0.067 C 
HETATM    9  C7  UNL     1      33.226   7.361  47.770  1.00  0.00     0.011 C 
HETATM   10  C8  UNL     1      32.776   6.726  48.842  1.00  0.00     0.031 C 
HETATM   11  N5  UNL     1      32.287   7.887  49.440  1.00  0.00    -0.280 N 
HETATM   12  N6  UNL     1      31.063   8.456  49.467  1.00  0.00    -0.149 NA
HETATM   13  C9  UNL     1      30.622   9.661  49.162  1.00  0.00     0.185 C 
HETATM   14  C10 UNL     1      30.857  11.072  48.667  1.00  0.00     0.060 C 
HETATM   15  C11 UNL     1      31.506  11.730  47.811  1.00  0.00     0.004 C 
HETATM   16  C12 UNL     1      32.409  11.655  46.688  1.00  0.00    -0.004 C 
HETATM   17  C13 UNL     1      32.641  10.395  46.202  1.00  0.00    -0.026 C 
HETATM   18  C14 UNL     1      32.235   9.061  46.467  1.00  0.00     0.042 C 
HETATM   19  O1  UNL     1      29.376   9.085  49.471  1.00  0.00    -0.312 OA
HETATM   20  C15 UNL     1      28.740   8.219  48.462  1.00  0.00     0.324 C 
HETATM   21  H10 UNL     1      32.975   8.471  50.009  1.00  0.00     0.189 HD
ENDROOT
BRANCH   1  22
HETATM   22  C1  UNL     1      34.518   5.044  48.310  1.00  0.00     0.277 C 
BRANCH  22  23
HETATM   23  N1  UNL     1      35.355   4.891  49.480  1.00  0.00     0.079 N 
HETATM   24  H1  UNL     1      35.703   3.925  49.573  1.00  0.00     0.312 HD
HETATM   25  H2  UNL     1      36.143   5.595  49.418  1.00  0.00     0.312 HD
ENDBRANCH  22  23
ENDBRANCH   1  22
TORSDOF 2
ENDMDL
MODEL 9
REMARK VINA RESULT:      -7.1      2.980      5.499
REMARK  2 active torsions:
REMARK  status: ('A' for Active; 'I' for Inactive)
REMARK    1  A    between atoms: N1_1  and  C1_2 
REMARK    2  A    between atoms: C1_2  and  C2_3 
ROOT
HETATM    1  C2  UNL     1      23.783   3.086  52.655  1.00  0.00     0.070 C 
HETATM    2  C3  UNL     1      24.636   2.045  51.834  1.00  0.00     0.075 C 
HETATM    3  C4  UNL     1      24.015   0.713  52.338  1.00  0.00     0.077 A 
HETATM    4  N2  UNL     1      24.791   0.132  53.258  1.00  0.00    -0.162 NA
HETATM    5  N3  UNL     1      23.977  -0.816  53.724  1.00  0.00     0.007 NA
HETATM    6  N4  UNL     1      22.794  -0.758  53.081  1.00  0.00    -0.252 N 
HETATM    7  C5  UNL     1      22.670   0.199  52.125  1.00  0.00     0.063 A 
HETATM    8  C6  UNL     1      22.027   1.000  51.052  1.00  0.00     0.067 C 
HETATM    9  C7  UNL     1      21.949   2.417  51.653  1.00  0.00     0.011 C 
HETATM   10  C8  UNL     1      22.457   2.504  52.874  1.00  0.00     0.031 C 
HETATM   11  N5  UNL     1      21.335   1.941  53.481  1.00  0.00    -0.280 N 
HETATM   12  N6  UNL     1      21.042   0.683  53.873  1.00  0.00    -0.149 NA
HETATM   13  C9  UNL     1      20.034  -0.129  53.619  1.00  0.00     0.185 C 
HETATM   14  C10 UNL     1      18.721  -0.435  52.931  1.00  0.00     0.060 C 
HETATM   15  C11 UNL     1      18.110  -0.280  51.839  1.00  0.00     0.004 C 
HETATM   16  C12 UNL     1      18.198   0.215  50.487  1.00  0.00    -0.004 C 
HETATM   17  C13 UNL     1      19.449   0.604  50.082  1.00  0.00    -0.026 C 
HETATM   18  C14 UNL     1      20.766   0.663  50.608  1.00  0.00     0.042 C 
HETATM   19  O1  UNL     1      20.792  -1.021  54.398  1.00  0.00    -0.312 OA
HETATM   20  C15 UNL     1      21.944  -1.691  53.767  1.00  0.00     0.324 C 
HETATM   21  H10 UNL     1      20.525   2.595  53.714  1.00  0.00     0.189 HD
ENDROOT
BRANCH   1  22
HETATM   22  C1  UNL     1      23.802   4.369  51.947  1.00  0.00     0.277 C 
BRANCH  22  23
HETATM   23  N1  UNL     1      23.792   5.548  52.785  1.00  0.00     0.079 N 
HETATM   24  H1  UNL     1      22.891   5.659  53.272  1.00  0.00     0.312 HD
HETATM   25  H2  UNL     1      24.605   5.481  53.460  1.00  0.00     0.312 HD
ENDBRANCH  22  23
ENDBRANCH   1  22
TORSDOF 2
ENDMDL
