MODEL 1
REMARK VINA RESULT:      -9.3      0.000      0.000
REMARK  4 active torsions:
REMARK  status: ('A' for Active; 'I' for Inactive)
REMARK    1  A    between atoms: C3_4  and  C4_5 
REMARK    2  A    between atoms: C4_5  and  N1_6 
REMARK    3  A    between atoms: N1_6  and  C5_7 
REMARK    4  A    between atoms: C10_14  and  C11_15 
ROOT
HETATM    1  C5  UNL     1      22.792   4.399  52.094  1.00  0.00     0.137 A 
HETATM    2  N2  UNL     1      21.511   4.761  51.960  1.00  0.00    -0.224 NA
HETATM    3  C6  UNL     1      20.486   3.887  52.002  1.00  0.00     0.235 A 
HETATM    4  N3  UNL     1      20.726   2.550  52.187  1.00  0.00    -0.241 NA
HETATM    5  C7  UNL     1      22.026   2.142  52.327  1.00  0.00     0.072 A 
HETATM    6  C8  UNL     1      22.126   0.776  52.592  1.00  0.00     0.033 A 
HETATM    7  C9  UNL     1      23.339   0.281  52.840  1.00  0.00     0.010 A 
HETATM    8  C10 UNL     1      24.327   1.234  52.792  1.00  0.00    -0.045 A 
HETATM    9  C18 UNL     1      24.285   2.616  52.524  1.00  0.00     0.025 A 
HETATM   10  C19 UNL     1      23.022   3.056  52.281  1.00  0.00     0.039 A 
ENDROOT
BRANCH   8  11
HETATM   11  C11 UNL     1      25.770   0.833  53.390  1.00  0.00     0.028 A 
HETATM   12  C12 UNL     1      26.425   1.600  54.235  1.00  0.00     0.044 A 
HETATM   13  C13 UNL     1      26.856   0.321  53.723  1.00  0.00     0.066 A 
HETATM   14  C14 UNL     1      26.159  -0.700  52.665  1.00  0.00     0.046 A 
HETATM   15  O2  UNL     1      27.994   0.804  54.728  1.00  0.00    -0.378 OA
HETATM   16  C16 UNL     1      26.806  -0.388  53.269  1.00  0.00     0.017 A 
HETATM   17  C15 UNL     1      27.101  -1.646  52.691  1.00  0.00     0.013 A 
HETATM   18  O1  UNL     1      28.176  -1.072  53.656  1.00  0.00     0.000 OA
HETATM   19  C17 UNL     1      29.018  -0.295  54.623  1.00  0.00     0.195 A 
ENDBRANCH   8  11
BRANCH   1  20
HETATM   20  N1  UNL     1      23.896   5.333  51.951  1.00  0.00    -0.369 N 
HETATM   21  H5  UNL     1      24.570   5.633  52.674  1.00  0.00     0.161 HD
BRANCH  20  22
HETATM   22  C4  UNL     1      23.939   5.831  50.544  1.00  0.00     0.167 C 
BRANCH  22  23
HETATM   23  C3  UNL     1      25.182   5.344  49.960  1.00  0.00     0.000 A 
HETATM   24  S1  UNL     1      26.078   6.740  49.148  1.00  0.00    -0.105 SA
HETATM   25  C2  UNL     1      27.508   5.696  48.516  1.00  0.00     0.050 A 
HETATM   26  C1  UNL     1      27.215   4.304  48.976  1.00  0.00     0.008 A 
HETATM   27  C20 UNL     1      26.087   4.394  49.622  1.00  0.00     0.017 A 
ENDBRANCH  22  23
ENDBRANCH  20  22
ENDBRANCH   1  20
TORSDOF 4
ENDMDL
MODEL 2
REMARK VINA RESULT:      -9.1      1.354      2.086
REMARK  4 active torsions:
REMARK  status: ('A' for Active; 'I' for Inactive)
REMARK    1  A    between atoms: C3_4  and  C4_5 
REMARK    2  A    between atoms: C4_5  and  N1_6 
REMARK    3  A    between atoms: N1_6  and  C5_7 
REMARK    4  A    between atoms: C10_14  and  C11_15 
ROOT
HETATM    1  C5  UNL     1      24.165   2.939  50.949  1.00  0.00     0.137 A 
HETATM    2  N2  UNL     1      23.043   3.666  50.998  1.00  0.00    -0.224 NA
HETATM    3  C6  UNL     1      21.978   3.335  51.754  1.00  0.00     0.235 A 
HETATM    4  N3  UNL     1      22.005   2.201  52.526  1.00  0.00    -0.241 NA
HETATM    5  C7  UNL     1      23.138   1.431  52.500  1.00  0.00     0.072 A 
HETATM    6  C8  UNL     1      23.068   0.359  53.389  1.00  0.00     0.033 A 
HETATM    7  C9  UNL     1      24.151  -0.409  53.518  1.00  0.00     0.010 A 
HETATM    8  C10 UNL     1      25.196   0.001  52.726  1.00  0.00    -0.045 A 
HETATM    9  C18 UNL     1      25.319   1.064  51.811  1.00  0.00     0.025 A 
HETATM   10  C19 UNL     1      24.183   1.805  51.728  1.00  0.00     0.039 A 
ENDROOT
BRANCH   8  11
HETATM   11  C11 UNL     1      26.647  -0.634  53.032  1.00  0.00     0.028 A 
HETATM   12  C12 UNL     1      26.991  -1.840  52.633  1.00  0.00     0.044 A 
HETATM   13  C13 UNL     1      27.813  -0.912  53.372  1.00  0.00     0.066 A 
HETATM   14  C14 UNL     1      27.499   0.580  53.942  1.00  0.00     0.046 A 
HETATM   15  O2  UNL     1      28.716  -2.201  53.118  1.00  0.00    -0.378 OA
HETATM   16  C16 UNL     1      28.004  -0.192  53.768  1.00  0.00     0.017 A 
HETATM   17  C15 UNL     1      28.694   0.812  54.487  1.00  0.00     0.013 A 
HETATM   18  O1  UNL     1      29.482  -0.502  54.228  1.00  0.00     0.000 OA
HETATM   19  C17 UNL     1      29.997  -1.852  53.827  1.00  0.00     0.195 A 
ENDBRANCH   8  11
BRANCH   1  20
HETATM   20  N1  UNL     1      25.269   3.251  50.058  1.00  0.00    -0.369 N 
HETATM   21  H5  UNL     1      26.098   2.671  49.849  1.00  0.00     0.161 HD
BRANCH  20  22
HETATM   22  C4  UNL     1      25.040   4.592  49.442  1.00  0.00     0.167 C 
BRANCH  22  23
HETATM   23  C3  UNL     1      26.342   5.090  49.016  1.00  0.00     0.000 A 
HETATM   24  S1  UNL     1      26.270   6.925  48.811  1.00  0.00    -0.105 SA
HETATM   25  C2  UNL     1      28.048   7.113  48.229  1.00  0.00     0.050 A 
HETATM   26  C1  UNL     1      28.612   5.729  48.227  1.00  0.00     0.008 A 
HETATM   27  C20 UNL     1      27.634   4.967  48.629  1.00  0.00     0.017 A 
ENDBRANCH  22  23
ENDBRANCH  20  22
ENDBRANCH   1  20
TORSDOF 4
ENDMDL
MODEL 3
REMARK VINA RESULT:      -9.0      1.854      2.301
REMARK  4 active torsions:
REMARK  status: ('A' for Active; 'I' for Inactive)
REMARK    1  A    between atoms: C3_4  and  C4_5 
REMARK    2  A    between atoms: C4_5  and  N1_6 
REMARK    3  A    between atoms: N1_6  and  C5_7 
REMARK    4  A    between atoms: C10_14  and  C11_15 
ROOT
HETATM    1  C5  UNL     1      21.589   1.046  51.223  1.00  0.00     0.137 A 
HETATM    2  N2  UNL     1      20.253   1.074  51.278  1.00  0.00    -0.224 NA
HETATM    3  C6  UNL     1      19.541   0.506  52.272  1.00  0.00     0.235 A 
HETATM    4  N3  UNL     1      20.180  -0.143  53.296  1.00  0.00    -0.241 NA
HETATM    5  C7  UNL     1      21.549  -0.192  53.272  1.00  0.00     0.072 A 
HETATM    6  C8  UNL     1      22.076  -0.805  54.409  1.00  0.00     0.033 A 
HETATM    7  C9  UNL     1      23.403  -0.828  54.541  1.00  0.00     0.010 A 
HETATM    8  C10 UNL     1      24.055  -0.220  53.497  1.00  0.00    -0.045 A 
HETATM    9  C18 UNL     1      23.579   0.404  52.328  1.00  0.00     0.025 A 
HETATM   10  C19 UNL     1      22.221   0.394  52.256  1.00  0.00     0.039 A 
ENDROOT
BRANCH   8  11
HETATM   11  C11 UNL     1      25.623   0.106  53.696  1.00  0.00     0.028 A 
HETATM   12  C12 UNL     1      26.049   1.214  54.262  1.00  0.00     0.044 A 
HETATM   13  C13 UNL     1      26.867   0.141  53.750  1.00  0.00     0.066 A 
HETATM   14  C14 UNL     1      26.467  -1.252  53.011  1.00  0.00     0.046 A 
HETATM   15  O2  UNL     1      27.874   1.218  54.356  1.00  0.00    -0.378 OA
HETATM   16  C16 UNL     1      27.030  -0.600  53.384  1.00  0.00     0.017 A 
HETATM   17  C15 UNL     1      27.706  -1.721  52.845  1.00  0.00     0.013 A 
HETATM   18  O1  UNL     1      28.609  -0.596  53.423  1.00  0.00     0.000 OA
HETATM   19  C17 UNL     1      29.221   0.618  54.054  1.00  0.00     0.195 A 
ENDBRANCH   8  11
BRANCH   1  20
HETATM   20  N1  UNL     1      22.344   1.575  50.100  1.00  0.00    -0.369 N 
HETATM   21  H5  UNL     1      22.730   1.055  49.295  1.00  0.00     0.161 HD
BRANCH  20  22
HETATM   22  C4  UNL     1      22.496   3.051  50.262  1.00  0.00     0.167 C 
BRANCH  22  23
HETATM   23  C3  UNL     1      23.920   3.345  50.152  1.00  0.00     0.000 A 
HETATM   24  S1  UNL     1      24.162   4.900  49.186  1.00  0.00    -0.105 SA
HETATM   25  C2  UNL     1      26.041   4.858  49.242  1.00  0.00     0.050 A 
HETATM   26  C1  UNL     1      26.386   3.629  50.019  1.00  0.00     0.008 A 
HETATM   27  C20 UNL     1      25.239   3.097  50.332  1.00  0.00     0.017 A 
ENDBRANCH  22  23
ENDBRANCH  20  22
ENDBRANCH   1  20
TORSDOF 4
ENDMDL
MODEL 4
REMARK VINA RESULT:      -8.9      2.681      4.703
REMARK  4 active torsions:
REMARK  status: ('A' for Active; 'I' for Inactive)
REMARK    1  A    between atoms: C3_4  and  C4_5 
REMARK    2  A    between atoms: C4_5  and  N1_6 
REMARK    3  A    between atoms: N1_6  and  C5_7 
REMARK    4  A    between atoms: C10_14  and  C11_15 
ROOT
HETATM    1  C5  UNL     1      22.294   2.582  50.919  1.00  0.00     0.137 A 
HETATM    2  N2  UNL     1      21.554   2.913  49.855  1.00  0.00    -0.224 NA
HETATM    3  C6  UNL     1      22.075   3.408  48.715  1.00  0.00     0.235 A 
HETATM    4  N3  UNL     1      23.428   3.599  48.600  1.00  0.00    -0.241 NA
HETATM    5  C7  UNL     1      24.218   3.271  49.671  1.00  0.00     0.072 A 
HETATM    6  C8  UNL     1      25.576   3.433  49.394  1.00  0.00     0.033 A 
HETATM    7  C9  UNL     1      26.447   3.056  50.332  1.00  0.00     0.010 A 
HETATM    8  C10 UNL     1      25.840   2.551  51.455  1.00  0.00    -0.045 A 
HETATM    9  C18 UNL     1      24.483   2.373  51.790  1.00  0.00     0.025 A 
HETATM   10  C19 UNL     1      23.651   2.775  50.793  1.00  0.00     0.039 A 
ENDROOT
BRANCH   8  11
HETATM   11  C11 UNL     1      26.774   1.767  52.510  1.00  0.00     0.028 A 
HETATM   12  C12 UNL     1      27.462   2.388  53.445  1.00  0.00     0.044 A 
HETATM   13  C13 UNL     1      27.417   0.964  53.213  1.00  0.00     0.066 A 
HETATM   14  C14 UNL     1      26.638   0.085  52.086  1.00  0.00     0.046 A 
HETATM   15  O2  UNL     1      28.363   1.179  54.478  1.00  0.00    -0.378 OA
HETATM   16  C16 UNL     1      27.184   0.249  52.833  1.00  0.00     0.017 A 
HETATM   17  C15 UNL     1      27.046  -1.118  52.493  1.00  0.00     0.013 A 
HETATM   18  O1  UNL     1      27.986  -0.806  53.690  1.00  0.00     0.000 OA
HETATM   19  C17 UNL     1      28.810  -0.223  54.799  1.00  0.00     0.195 A 
ENDBRANCH   8  11
BRANCH   1  20
HETATM   20  N1  UNL     1      21.716   2.142  52.177  1.00  0.00    -0.369 N 
HETATM   21  H5  UNL     1      21.524   2.708  53.019  1.00  0.00     0.161 HD
BRANCH  20  22
HETATM   22  C4  UNL     1      21.413   0.682  52.093  1.00  0.00     0.167 C 
BRANCH  22  23
HETATM   23  C3  UNL     1      22.267   0.015  53.068  1.00  0.00     0.000 A 
HETATM   24  S1  UNL     1      21.223  -0.900  54.287  1.00  0.00    -0.105 SA
HETATM   25  C2  UNL     1      22.662  -1.520  55.328  1.00  0.00     0.050 A 
HETATM   26  C1  UNL     1      23.889  -0.982  54.667  1.00  0.00     0.008 A 
HETATM   27  C20 UNL     1      23.451  -0.305  53.644  1.00  0.00     0.017 A 
ENDBRANCH  22  23
ENDBRANCH  20  22
ENDBRANCH   1  20
TORSDOF 4
ENDMDL
MODEL 5
REMARK VINA RESULT:      -8.9      3.347      5.432
REMARK  4 active torsions:
REMARK  status: ('A' for Active; 'I' for Inactive)
REMARK    1  A    between atoms: C3_4  and  C4_5 
REMARK    2  A    between atoms: C4_5  and  N1_6 
REMARK    3  A    between atoms: N1_6  and  C5_7 
REMARK    4  A    between atoms: C10_14  and  C11_15 
ROOT
HETATM    1  C5  UNL     1      26.594   2.321  52.046  1.00  0.00     0.137 A 
HETATM    2  N2  UNL     1      27.875   2.110  52.366  1.00  0.00    -0.224 NA
HETATM    3  C6  UNL     1      28.278   1.137  53.207  1.00  0.00     0.235 A 
HETATM    4  N3  UNL     1      27.358   0.300  53.787  1.00  0.00    -0.241 NA
HETATM    5  C7  UNL     1      26.035   0.488  53.482  1.00  0.00     0.072 A 
HETATM    6  C8  UNL     1      25.217  -0.478  54.068  1.00  0.00     0.033 A 
HETATM    7  C9  UNL     1      23.917  -0.451  53.768  1.00  0.00     0.010 A 
HETATM    8  C10 UNL     1      23.589   0.559  52.897  1.00  0.00    -0.045 A 
HETATM    9  C18 UNL     1      24.367   1.559  52.284  1.00  0.00     0.025 A 
HETATM   10  C19 UNL     1      25.679   1.476  52.631  1.00  0.00     0.039 A 
ENDROOT
BRANCH   8  11
HETATM   11  C11 UNL     1      22.132   0.494  52.208  1.00  0.00     0.028 A 
HETATM   12  C12 UNL     1      21.922   0.857  50.961  1.00  0.00     0.044 A 
HETATM   13  C13 UNL     1      20.936   0.354  51.887  1.00  0.00     0.066 A 
HETATM   14  C14 UNL     1      21.062  -0.097  53.446  1.00  0.00     0.046 A 
HETATM   15  O2  UNL     1      20.168   0.606  50.514  1.00  0.00    -0.378 OA
HETATM   16  C16 UNL     1      20.643   0.056  52.619  1.00  0.00     0.017 A 
HETATM   17  C15 UNL     1      19.787  -0.448  53.628  1.00  0.00     0.013 A 
HETATM   18  O1  UNL     1      19.117  -0.131  52.262  1.00  0.00     0.000 OA
HETATM   19  C17 UNL     1      18.747   0.245  50.858  1.00  0.00     0.195 A 
ENDBRANCH   8  11
BRANCH   1  20
HETATM   20  N1  UNL     1      26.160   3.432  51.217  1.00  0.00    -0.369 N 
HETATM   21  H5  UNL     1      25.713   4.313  51.520  1.00  0.00     0.161 HD
BRANCH  20  22
HETATM   22  C4  UNL     1      26.463   3.126  49.787  1.00  0.00     0.167 C 
BRANCH  22  23
HETATM   23  C3  UNL     1      27.042   4.332  49.209  1.00  0.00     0.000 A 
HETATM   24  S1  UNL     1      25.846   5.732  49.362  1.00  0.00    -0.105 SA
HETATM   25  C2  UNL     1      26.928   6.992  48.481  1.00  0.00     0.050 A 
HETATM   26  C1  UNL     1      28.175   6.256  48.113  1.00  0.00     0.008 A 
HETATM   27  C20 UNL     1      27.992   5.044  48.556  1.00  0.00     0.017 A 
ENDBRANCH  22  23
ENDBRANCH  20  22
ENDBRANCH   1  20
TORSDOF 4
ENDMDL
MODEL 6
REMARK VINA RESULT:      -8.9      3.314      6.202
REMARK  4 active torsions:
REMARK  status: ('A' for Active; 'I' for Inactive)
REMARK    1  A    between atoms: C3_4  and  C4_5 
REMARK    2  A    between atoms: C4_5  and  N1_6 
REMARK    3  A    between atoms: N1_6  and  C5_7 
REMARK    4  A    between atoms: C10_14  and  C11_15 
ROOT
HETATM    1  C5  UNL     1      24.476   0.846  53.141  1.00  0.00     0.137 A 
HETATM    2  N2  UNL     1      23.597  -0.104  53.479  1.00  0.00    -0.224 NA
HETATM    3  C6  UNL     1      22.453  -0.328  52.804  1.00  0.00     0.235 A 
HETATM    4  N3  UNL     1      22.134   0.436  51.710  1.00  0.00    -0.241 NA
HETATM    5  C7  UNL     1      23.011   1.419  51.335  1.00  0.00     0.072 A 
HETATM    6  C8  UNL     1      22.612   2.063  50.163  1.00  0.00     0.033 A 
HETATM    7  C9  UNL     1      23.436   2.978  49.649  1.00  0.00     0.010 A 
HETATM    8  C10 UNL     1      24.584   3.139  50.386  1.00  0.00    -0.045 A 
HETATM    9  C18 UNL     1      25.033   2.526  51.571  1.00  0.00     0.025 A 
HETATM   10  C19 UNL     1      24.149   1.606  52.041  1.00  0.00     0.039 A 
ENDROOT
BRANCH   8  11
HETATM   11  C11 UNL     1      25.790   3.963  49.701  1.00  0.00     0.028 A 
HETATM   12  C12 UNL     1      26.902   3.386  49.298  1.00  0.00     0.044 A 
HETATM   13  C13 UNL     1      26.576   4.788  49.197  1.00  0.00     0.066 A 
HETATM   14  C14 UNL     1      25.262   5.620  49.677  1.00  0.00     0.046 A 
HETATM   15  O2  UNL     1      28.015   4.618  48.534  1.00  0.00    -0.378 OA
HETATM   16  C16 UNL     1      26.105   5.481  49.287  1.00  0.00     0.017 A 
HETATM   17  C15 UNL     1      25.655   6.823  49.252  1.00  0.00     0.013 A 
HETATM   18  O1  UNL     1      27.070   6.565  48.665  1.00  0.00     0.000 OA
HETATM   19  C17 UNL     1      28.377   6.031  48.160  1.00  0.00     0.195 A 
ENDBRANCH   8  11
BRANCH   1  20
HETATM   20  N1  UNL     1      25.659   1.145  53.930  1.00  0.00    -0.369 N 
HETATM   21  H5  UNL     1      26.172   2.040  53.988  1.00  0.00     0.161 HD
BRANCH  20  22
HETATM   22  C4  UNL     1      26.059  -0.073  54.695  1.00  0.00     0.167 C 
BRANCH  22  23
HETATM   23  C3  UNL     1      27.325  -0.529  54.134  1.00  0.00     0.000 A 
HETATM   24  S1  UNL     1      28.671   0.650  54.593  1.00  0.00    -0.105 SA
HETATM   25  C2  UNL     1      30.030  -0.252  53.658  1.00  0.00     0.050 A 
HETATM   26  C1  UNL     1      29.362  -1.435  53.034  1.00  0.00     0.008 A 
HETATM   27  C20 UNL     1      28.114  -1.347  53.398  1.00  0.00     0.017 A 
ENDBRANCH  22  23
ENDBRANCH  20  22
ENDBRANCH   1  20
TORSDOF 4
ENDMDL
MODEL 7
REMARK VINA RESULT:      -8.5      2.308      3.533
REMARK  4 active torsions:
REMARK  status: ('A' for Active; 'I' for Inactive)
REMARK    1  A    between atoms: C3_4  and  C4_5 
REMARK    2  A    between atoms: C4_5  and  N1_6 
REMARK    3  A    between atoms: N1_6  and  C5_7 
REMARK    4  A    between atoms: C10_14  and  C11_15 
ROOT
HETATM    1  C5  UNL     1      26.022   4.769  49.382  1.00  0.00     0.137 A 
HETATM    2  N2  UNL     1      25.145   5.723  49.048  1.00  0.00    -0.224 NA
HETATM    3  C6  UNL     1      23.856   5.713  49.440  1.00  0.00     0.235 A 
HETATM    4  N3  UNL     1      23.378   4.692  50.221  1.00  0.00    -0.241 NA
HETATM    5  C7  UNL     1      24.249   3.697  50.582  1.00  0.00     0.072 A 
HETATM    6  C8  UNL     1      23.661   2.768  51.442  1.00  0.00     0.033 A 
HETATM    7  C9  UNL     1      24.439   1.803  51.934  1.00  0.00     0.010 A 
HETATM    8  C10 UNL     1      25.739   1.889  51.499  1.00  0.00    -0.045 A 
HETATM    9  C18 UNL     1      26.381   2.794  50.632  1.00  0.00     0.025 A 
HETATM   10  C19 UNL     1      25.534   3.750  50.167  1.00  0.00     0.039 A 
ENDROOT
BRANCH   8  11
HETATM   11  C11 UNL     1      26.836   0.993  52.270  1.00  0.00     0.028 A 
HETATM   12  C12 UNL     1      26.859  -0.321  52.193  1.00  0.00     0.044 A 
HETATM   13  C13 UNL     1      27.772   0.512  52.939  1.00  0.00     0.066 A 
HETATM   14  C14 UNL     1      27.833   2.127  53.136  1.00  0.00     0.046 A 
HETATM   15  O2  UNL     1      28.262  -0.989  53.155  1.00  0.00    -0.378 OA
HETATM   16  C16 UNL     1      28.097   1.231  53.235  1.00  0.00     0.017 A 
HETATM   17  C15 UNL     1      28.915   2.165  53.915  1.00  0.00     0.013 A 
HETATM   18  O1  UNL     1      29.291   0.669  54.102  1.00  0.00     0.000 OA
HETATM   19  C17 UNL     1      29.429  -0.824  54.092  1.00  0.00     0.195 A 
ENDBRANCH   8  11
BRANCH   1  20
HETATM   20  N1  UNL     1      27.383   4.736  48.875  1.00  0.00    -0.369 N 
HETATM   21  H5  UNL     1      28.028   3.930  48.845  1.00  0.00     0.161 HD
BRANCH  20  22
HETATM   22  C4  UNL     1      27.752   6.091  48.369  1.00  0.00     0.167 C 
BRANCH  22  23
HETATM   23  C3  UNL     1      29.191   6.079  48.137  1.00  0.00     0.000 A 
HETATM   24  S1  UNL     1      29.848   7.804  48.210  1.00  0.00    -0.105 SA
HETATM   25  C2  UNL     1      31.627   7.338  47.816  1.00  0.00     0.050 A 
HETATM   26  C1  UNL     1      31.619   5.852  47.650  1.00  0.00     0.008 A 
HETATM   27  C20 UNL     1      30.380   5.499  47.846  1.00  0.00     0.017 A 
ENDBRANCH  22  23
ENDBRANCH  20  22
ENDBRANCH   1  20
TORSDOF 4
ENDMDL
MODEL 8
REMARK VINA RESULT:      -8.5      1.840      2.144
REMARK  4 active torsions:
REMARK  status: ('A' for Active; 'I' for Inactive)
REMARK    1  A    between atoms: C3_4  and  C4_5 
REMARK    2  A    between atoms: C4_5  and  N1_6 
REMARK    3  A    between atoms: N1_6  and  C5_7 
REMARK    4  A    between atoms: C10_14  and  C11_15 
ROOT
HETATM    1  C5  UNL     1      22.406   2.960  51.609  1.00  0.00     0.137 A 
HETATM    2  N2  UNL     1      21.120   3.326  51.652  1.00  0.00    -0.224 NA
HETATM    3  C6  UNL     1      20.176   2.638  52.324  1.00  0.00     0.235 A 
HETATM    4  N3  UNL     1      20.509   1.499  53.012  1.00  0.00    -0.241 NA
HETATM    5  C7  UNL     1      21.818   1.094  52.990  1.00  0.00     0.072 A 
HETATM    6  C8  UNL     1      22.037  -0.025  53.794  1.00  0.00     0.033 A 
HETATM    7  C9  UNL     1      23.293  -0.455  53.925  1.00  0.00     0.010 A 
HETATM    8  C10 UNL     1      24.196   0.304  53.222  1.00  0.00    -0.045 A 
HETATM    9  C18 UNL     1      24.031   1.431  52.394  1.00  0.00     0.025 A 
HETATM   10  C19 UNL     1      22.731   1.817  52.304  1.00  0.00     0.039 A 
ENDROOT
BRANCH   8  11
HETATM   11  C11 UNL     1      25.759   0.091  53.557  1.00  0.00     0.028 A 
HETATM   12  C12 UNL     1      26.440   0.924  54.315  1.00  0.00     0.044 A 
HETATM   13  C13 UNL     1      26.943  -0.274  53.686  1.00  0.00     0.066 A 
HETATM   14  C14 UNL     1      26.219  -1.359  52.715  1.00  0.00     0.046 A 
HETATM   15  O2  UNL     1      28.161   0.341  54.511  1.00  0.00    -0.378 OA
HETATM   16  C16 UNL     1      26.911  -0.973  53.218  1.00  0.00     0.017 A 
HETATM   17  C15 UNL     1      27.268  -2.168  52.547  1.00  0.00     0.013 A 
HETATM   18  O1  UNL     1      28.405  -1.471  53.345  1.00  0.00     0.000 OA
HETATM   19  C17 UNL     1      29.288  -0.606  54.194  1.00  0.00     0.195 A 
ENDBRANCH   8  11
BRANCH   1  20
HETATM   20  N1  UNL     1      23.397   3.651  50.803  1.00  0.00    -0.369 N 
HETATM   21  H5  UNL     1      24.187   4.231  51.130  1.00  0.00     0.161 HD
BRANCH  20  22
HETATM   22  C4  UNL     1      23.118   3.400  49.358  1.00  0.00     0.167 C 
BRANCH  22  23
HETATM   23  C3  UNL     1      23.277   4.673  48.667  1.00  0.00     0.000 A 
HETATM   24  S1  UNL     1      22.095   4.766  47.251  1.00  0.00    -0.105 SA
HETATM   25  C2  UNL     1      22.665   6.454  46.649  1.00  0.00     0.050 A 
HETATM   26  C1  UNL     1      23.752   6.864  47.590  1.00  0.00     0.008 A 
HETATM   27  C20 UNL     1      23.852   5.878  48.436  1.00  0.00     0.017 A 
ENDBRANCH  22  23
ENDBRANCH  20  22
ENDBRANCH   1  20
TORSDOF 4
ENDMDL
MODEL 9
REMARK VINA RESULT:      -8.3      3.582      6.179
REMARK  4 active torsions:
REMARK  status: ('A' for Active; 'I' for Inactive)
REMARK    1  A    between atoms: C3_4  and  C4_5 
REMARK    2  A    between atoms: C4_5  and  N1_6 
REMARK    3  A    between atoms: N1_6  and  C5_7 
REMARK    4  A    between atoms: C10_14  and  C11_15 
ROOT
HETATM    1  C5  UNL     1      23.486  -0.250  53.564  1.00  0.00     0.137 A 
HETATM    2  N2  UNL     1      22.880  -1.232  54.240  1.00  0.00    -0.224 NA
HETATM    3  C6  UNL     1      21.564  -1.230  54.530  1.00  0.00     0.235 A 
HETATM    4  N3  UNL     1      20.770  -0.185  54.130  1.00  0.00    -0.241 NA
HETATM    5  C7  UNL     1      21.357   0.839  53.435  1.00  0.00     0.072 A 
HETATM    6  C8  UNL     1      20.428   1.793  53.016  1.00  0.00     0.033 A 
HETATM    7  C9  UNL     1      20.870   2.791  52.250  1.00  0.00     0.010 A 
HETATM    8  C10 UNL     1      22.216   2.711  51.990  1.00  0.00    -0.045 A 
HETATM    9  C18 UNL     1      23.197   1.782  52.389  1.00  0.00     0.025 A 
HETATM   10  C19 UNL     1      22.681   0.793  53.166  1.00  0.00     0.039 A 
ENDROOT
BRANCH   8  11
HETATM   11  C11 UNL     1      22.800   3.659  50.822  1.00  0.00     0.028 A 
HETATM   12  C12 UNL     1      22.802   3.302  49.555  1.00  0.00     0.044 A 
HETATM   13  C13 UNL     1      23.289   4.547  50.098  1.00  0.00     0.066 A 
HETATM   14  C14 UNL     1      23.367   5.091  51.630  1.00  0.00     0.046 A 
HETATM   15  O2  UNL     1      23.494   4.639  48.520  1.00  0.00    -0.378 OA
HETATM   16  C16 UNL     1      23.466   5.114  50.696  1.00  0.00     0.017 A 
HETATM   17  C15 UNL     1      23.902   6.284  51.362  1.00  0.00     0.013 A 
HETATM   18  O1  UNL     1      24.101   6.264  49.821  1.00  0.00     0.000 OA
HETATM   19  C17 UNL     1      24.157   5.980  48.350  1.00  0.00     0.195 A 
ENDBRANCH   8  11
BRANCH   1  20
HETATM   20  N1  UNL     1      24.921  -0.213  53.341  1.00  0.00    -0.369 N 
HETATM   21  H5  UNL     1      25.420  -0.084  52.446  1.00  0.00     0.161 HD
BRANCH  20  22
HETATM   22  C4  UNL     1      25.626  -0.391  54.646  1.00  0.00     0.167 C 
BRANCH  22  23
HETATM   23  C3  UNL     1      26.921   0.266  54.520  1.00  0.00     0.000 A 
HETATM   24  S1  UNL     1      26.733   1.838  53.568  1.00  0.00    -0.105 SA
HETATM   25  C2  UNL     1      28.558   2.289  53.598  1.00  0.00     0.050 A 
HETATM   26  C1  UNL     1      29.225   1.187  54.357  1.00  0.00     0.008 A 
HETATM   27  C20 UNL     1      28.262   0.371  54.680  1.00  0.00     0.017 A 
ENDBRANCH  22  23
ENDBRANCH  20  22
ENDBRANCH   1  20
TORSDOF 4
ENDMDL
