MODEL 1
REMARK VINA RESULT:      -8.9      0.000      0.000
REMARK  3 active torsions:
REMARK  status: ('A' for Active; 'I' for Inactive)
REMARK    1  A    between atoms: C2_2  and  O1_4 
REMARK    2  A    between atoms: O1_4  and  C4_5 
REMARK    3  A    between atoms: C7_8  and  N1_9 
ROOT
HETATM    1  N1  UNL     1      24.972   0.259  53.600  1.00  0.00    -0.219 N 
HETATM    2  N2  UNL     1      25.141   1.630  53.986  1.00  0.00    -0.184 NA
HETATM    3  C8  UNL     1      26.088   2.473  53.642  1.00  0.00     0.124 C 
HETATM    4  C9  UNL     1      27.114   2.560  52.594  1.00  0.00     0.074 C 
HETATM    5  C10 UNL     1      28.526   2.229  53.101  1.00  0.00     0.004 C 
HETATM    6  C11 UNL     1      28.961   1.002  53.510  1.00  0.00     0.091 C 
HETATM    7  N3  UNL     1      28.182  -0.192  53.847  1.00  0.00    -0.323 N 
HETATM    8  C12 UNL     1      28.758  -1.453  53.354  1.00  0.00     0.161 C 
HETATM    9  C13 UNL     1      27.596  -2.253  52.829  1.00  0.00     0.294 C 
HETATM   10  N4  UNL     1      26.241  -1.878  53.130  1.00  0.00     0.129 N 
HETATM   11  C14 UNL     1      26.066  -0.534  53.288  1.00  0.00     0.350 C 
HETATM   12  C15 UNL     1      26.590   0.139  52.038  1.00  0.00     0.046 C 
HETATM   13  C16 UNL     1      26.801   1.426  51.621  1.00  0.00    -0.012 C 
HETATM   14  C17 UNL     1      26.919  -0.372  54.537  1.00  0.00     0.289 C 
HETATM   15  O2  UNL     1      26.249  -0.452  55.620  1.00  0.00    -0.268 OA
HETATM   16  H18 UNL     1      25.938  -2.503  53.938  1.00  0.00     0.320 HD
ENDROOT
BRANCH   1  17
HETATM   17  C7  UNL     1      23.613  -0.153  53.579  1.00  0.00     0.057 A 
HETATM   18  C6  UNL     1      23.026  -0.955  54.535  1.00  0.00     0.034 A 
HETATM   19  C5  UNL     1      21.679  -1.312  54.447  1.00  0.00     0.039 A 
HETATM   20  C4  UNL     1      20.852  -0.886  53.400  1.00  0.00     0.069 A 
HETATM   21  C19 UNL     1      21.457  -0.086  52.455  1.00  0.00     0.039 A 
HETATM   22  C18 UNL     1      22.785   0.256  52.558  1.00  0.00     0.034 A 
BRANCH  20  23
HETATM   23  O1  UNL     1      19.574  -1.354  53.518  1.00  0.00    -0.347 OA
BRANCH  23  24
HETATM   24  C2  UNL     1      18.434  -0.658  53.072  1.00  0.00     0.120 C 
HETATM   25  C1  UNL     1      18.591  -0.233  51.619  1.00  0.00     0.040 C 
HETATM   26  C3  UNL     1      17.176  -1.518  53.205  1.00  0.00     0.040 C 
ENDBRANCH  23  24
ENDBRANCH  20  23
ENDBRANCH   1  17
TORSDOF 3
ENDMDL
MODEL 2
REMARK VINA RESULT:      -8.7      3.688      7.256
REMARK  3 active torsions:
REMARK  status: ('A' for Active; 'I' for Inactive)
REMARK    1  A    between atoms: C2_2  and  O1_4 
REMARK    2  A    between atoms: O1_4  and  C4_5 
REMARK    3  A    between atoms: C7_8  and  N1_9 
ROOT
HETATM    1  N1  UNL     1      23.603   2.144  51.215  1.00  0.00    -0.219 N 
HETATM    2  N2  UNL     1      22.634   1.329  50.541  1.00  0.00    -0.184 NA
HETATM    3  C8  UNL     1      21.941   1.598  49.457  1.00  0.00     0.124 C 
HETATM    4  C9  UNL     1      22.016   2.561  48.350  1.00  0.00     0.074 C 
HETATM    5  C10 UNL     1      20.994   3.702  48.471  1.00  0.00     0.004 C 
HETATM    6  C11 UNL     1      21.006   4.690  49.413  1.00  0.00     0.091 C 
HETATM    7  N3  UNL     1      21.761   4.766  50.666  1.00  0.00    -0.323 N 
HETATM    8  C12 UNL     1      22.318   6.095  50.960  1.00  0.00     0.161 C 
HETATM    9  C13 UNL     1      23.709   5.846  51.481  1.00  0.00     0.294 C 
HETATM   10  N4  UNL     1      24.129   4.530  51.874  1.00  0.00     0.129 N 
HETATM   11  C14 UNL     1      23.528   3.528  51.167  1.00  0.00     0.350 C 
HETATM   12  C15 UNL     1      23.774   3.801  49.699  1.00  0.00     0.046 C 
HETATM   13  C16 UNL     1      23.364   3.262  48.509  1.00  0.00    -0.012 C 
HETATM   14  C17 UNL     1      22.108   3.768  51.659  1.00  0.00     0.289 C 
HETATM   15  O2  UNL     1      21.798   3.058  52.673  1.00  0.00    -0.268 OA
HETATM   16  H18 UNL     1      24.033   4.496  52.935  1.00  0.00     0.320 HD
ENDROOT
BRANCH   1  17
HETATM   17  C7  UNL     1      24.593   1.388  51.896  1.00  0.00     0.057 A 
HETATM   18  C6  UNL     1      25.921   1.334  51.532  1.00  0.00     0.034 A 
HETATM   19  C5  UNL     1      26.837   0.570  52.258  1.00  0.00     0.039 A 
HETATM   20  C4  UNL     1      26.471  -0.176  53.385  1.00  0.00     0.069 A 
HETATM   21  C19 UNL     1      25.139  -0.110  53.734  1.00  0.00     0.039 A 
HETATM   22  C18 UNL     1      24.251   0.648  53.006  1.00  0.00     0.034 A 
BRANCH  20  23
HETATM   23  O1  UNL     1      27.527  -0.844  53.938  1.00  0.00    -0.347 OA
BRANCH  23  24
HETATM   24  C2  UNL     1      28.700  -1.185  53.238  1.00  0.00     0.120 C 
HETATM   25  C1  UNL     1      29.924  -0.559  53.891  1.00  0.00     0.040 C 
HETATM   26  C3  UNL     1      28.887  -2.702  53.183  1.00  0.00     0.040 C 
ENDBRANCH  23  24
ENDBRANCH  20  23
ENDBRANCH   1  17
TORSDOF 3
ENDMDL
MODEL 3
REMARK VINA RESULT:      -8.5      3.093      7.168
REMARK  3 active torsions:
REMARK  status: ('A' for Active; 'I' for Inactive)
REMARK    1  A    between atoms: C2_2  and  O1_4 
REMARK    2  A    between atoms: O1_4  and  C4_5 
REMARK    3  A    between atoms: C7_8  and  N1_9 
ROOT
HETATM    1  N1  UNL     1      22.937   1.726  52.222  1.00  0.00    -0.219 N 
HETATM    2  N2  UNL     1      21.695   1.458  52.888  1.00  0.00    -0.184 NA
HETATM    3  C8  UNL     1      20.505   1.262  52.366  1.00  0.00     0.124 C 
HETATM    4  C9  UNL     1      19.957   0.931  51.044  1.00  0.00     0.074 C 
HETATM    5  C10 UNL     1      19.330   2.137  50.329  1.00  0.00     0.004 C 
HETATM    6  C11 UNL     1      20.006   3.220  49.846  1.00  0.00     0.091 C 
HETATM    7  N3  UNL     1      21.378   3.653  50.119  1.00  0.00    -0.323 N 
HETATM    8  C12 UNL     1      22.106   4.147  48.940  1.00  0.00     0.161 C 
HETATM    9  C13 UNL     1      23.493   3.572  49.048  1.00  0.00     0.294 C 
HETATM   10  N4  UNL     1      23.955   2.975  50.271  1.00  0.00     0.129 N 
HETATM   11  C14 UNL     1      22.964   2.384  51.002  1.00  0.00     0.350 C 
HETATM   12  C15 UNL     1      22.268   1.390  50.098  1.00  0.00     0.046 C 
HETATM   13  C16 UNL     1      21.166   0.582  50.177  1.00  0.00    -0.012 C 
HETATM   14  C17 UNL     1      22.182   3.648  51.326  1.00  0.00     0.289 C 
HETATM   15  O2  UNL     1      22.509   4.173  52.442  1.00  0.00    -0.268 OA
HETATM   16  H18 UNL     1      24.535   3.723  50.761  1.00  0.00     0.320 HD
ENDROOT
BRANCH   1  17
HETATM   17  C7  UNL     1      24.069   1.253  52.937  1.00  0.00     0.057 A 
HETATM   18  C6  UNL     1      24.278  -0.065  53.283  1.00  0.00     0.034 A 
HETATM   19  C5  UNL     1      25.422  -0.454  53.983  1.00  0.00     0.039 A 
HETATM   20  C4  UNL     1      26.415   0.456  54.370  1.00  0.00     0.069 A 
HETATM   21  C19 UNL     1      26.188   1.769  54.015  1.00  0.00     0.039 A 
HETATM   22  C18 UNL     1      25.054   2.132  53.326  1.00  0.00     0.034 A 
BRANCH  20  23
HETATM   23  O1  UNL     1      27.443  -0.144  55.041  1.00  0.00    -0.347 OA
BRANCH  23  24
HETATM   24  C2  UNL     1      28.779  -0.146  54.599  1.00  0.00     0.120 C 
HETATM   25  C1  UNL     1      28.937  -1.005  53.352  1.00  0.00     0.040 C 
HETATM   26  C3  UNL     1      29.260   1.272  54.288  1.00  0.00     0.040 C 
ENDBRANCH  23  24
ENDBRANCH  20  23
ENDBRANCH   1  17
TORSDOF 3
ENDMDL
MODEL 4
REMARK VINA RESULT:      -7.9      4.341      7.752
REMARK  3 active torsions:
REMARK  status: ('A' for Active; 'I' for Inactive)
REMARK    1  A    between atoms: C2_2  and  O1_4 
REMARK    2  A    between atoms: O1_4  and  C4_5 
REMARK    3  A    between atoms: C7_8  and  N1_9 
ROOT
HETATM    1  N1  UNL     1      25.245   2.839  50.968  1.00  0.00    -0.219 N 
HETATM    2  N2  UNL     1      24.117   2.221  50.335  1.00  0.00    -0.184 NA
HETATM    3  C8  UNL     1      23.082   1.630  50.888  1.00  0.00     0.124 C 
HETATM    4  C9  UNL     1      22.457   1.588  52.216  1.00  0.00     0.074 C 
HETATM    5  C10 UNL     1      22.754   0.291  52.984  1.00  0.00     0.004 C 
HETATM    6  C11 UNL     1      23.970  -0.085  53.477  1.00  0.00     0.091 C 
HETATM    7  N3  UNL     1      25.299   0.451  53.173  1.00  0.00    -0.323 N 
HETATM    8  C12 UNL     1      26.181   0.589  54.342  1.00  0.00     0.161 C 
HETATM    9  C13 UNL     1      26.875   1.914  54.174  1.00  0.00     0.294 C 
HETATM   10  N4  UNL     1      26.838   2.616  52.921  1.00  0.00     0.129 N 
HETATM   11  C14 UNL     1      25.696   2.403  52.205  1.00  0.00     0.350 C 
HETATM   12  C15 UNL     1      24.529   2.757  53.102  1.00  0.00     0.046 C 
HETATM   13  C16 UNL     1      23.165   2.667  53.034  1.00  0.00    -0.012 C 
HETATM   14  C17 UNL     1      25.905   0.919  51.942  1.00  0.00     0.289 C 
HETATM   15  O2  UNL     1      26.486   0.681  50.832  1.00  0.00    -0.268 OA
HETATM   16  H18 UNL     1      27.761   2.394  52.435  1.00  0.00     0.320 HD
ENDROOT
BRANCH   1  17
HETATM   17  C7  UNL     1      25.805   3.897  50.205  1.00  0.00     0.057 A 
HETATM   18  C6  UNL     1      26.923   3.777  49.408  1.00  0.00     0.034 A 
HETATM   19  C5  UNL     1      27.411   4.866  48.681  1.00  0.00     0.039 A 
HETATM   20  C4  UNL     1      26.804   6.128  48.715  1.00  0.00     0.069 A 
HETATM   21  C19 UNL     1      25.687   6.228  49.518  1.00  0.00     0.039 A 
HETATM   22  C18 UNL     1      25.222   5.145  50.226  1.00  0.00     0.034 A 
BRANCH  20  23
HETATM   23  O1  UNL     1      27.447   7.041  47.928  1.00  0.00    -0.347 OA
BRANCH  23  24
HETATM   24  C2  UNL     1      28.710   7.588  48.224  1.00  0.00     0.120 C 
HETATM   25  C1  UNL     1      29.704   7.296  47.108  1.00  0.00     0.040 C 
HETATM   26  C3  UNL     1      28.622   9.101  48.428  1.00  0.00     0.040 C 
ENDBRANCH  23  24
ENDBRANCH  20  23
ENDBRANCH   1  17
TORSDOF 3
ENDMDL
MODEL 5
REMARK VINA RESULT:      -7.8      7.755      9.972
REMARK  3 active torsions:
REMARK  status: ('A' for Active; 'I' for Inactive)
REMARK    1  A    between atoms: C2_2  and  O1_4 
REMARK    2  A    between atoms: O1_4  and  C4_5 
REMARK    3  A    between atoms: C7_8  and  N1_9 
ROOT
HETATM    1  N1  UNL     1      27.280   7.947  48.520  1.00  0.00    -0.219 N 
HETATM    2  N2  UNL     1      26.265   8.729  47.875  1.00  0.00    -0.184 NA
HETATM    3  C8  UNL     1      26.399   9.643  46.940  1.00  0.00     0.124 C 
HETATM    4  C9  UNL     1      27.432  10.045  45.976  1.00  0.00     0.074 C 
HETATM    5  C10 UNL     1      28.177  11.324  46.387  1.00  0.00     0.004 C 
HETATM    6  C11 UNL     1      29.029  11.447  47.446  1.00  0.00     0.091 C 
HETATM    7  N3  UNL     1      29.227  10.549  48.586  1.00  0.00    -0.323 N 
HETATM    8  C12 UNL     1      30.631  10.370  48.983  1.00  0.00     0.161 C 
HETATM    9  C13 UNL     1      30.787   8.902  49.276  1.00  0.00     0.294 C 
HETATM   10  N4  UNL     1      29.640   8.050  49.425  1.00  0.00     0.129 N 
HETATM   11  C14 UNL     1      28.568   8.436  48.673  1.00  0.00     0.350 C 
HETATM   12  C15 UNL     1      29.035   8.534  47.237  1.00  0.00     0.046 C 
HETATM   13  C16 UNL     1      28.504   8.959  46.050  1.00  0.00    -0.012 C 
HETATM   14  C17 UNL     1      28.303   9.759  49.377  1.00  0.00     0.289 C 
HETATM   15  O2  UNL     1      27.444   9.668  50.316  1.00  0.00    -0.268 OA
HETATM   16  H18 UNL     1      29.483   7.951  50.474  1.00  0.00     0.320 HD
ENDROOT
BRANCH   1  17
HETATM   17  C7  UNL     1      26.816   6.676  48.953  1.00  0.00     0.057 A 
HETATM   18  C6  UNL     1      25.688   6.478  49.721  1.00  0.00     0.034 A 
HETATM   19  C5  UNL     1      25.293   5.194  50.103  1.00  0.00     0.039 A 
HETATM   20  C4  UNL     1      26.005   4.045  49.735  1.00  0.00     0.069 A 
HETATM   21  C19 UNL     1      27.129   4.264  48.966  1.00  0.00     0.039 A 
HETATM   22  C18 UNL     1      27.503   5.536  48.600  1.00  0.00     0.034 A 
BRANCH  20  23
HETATM   23  O1  UNL     1      25.437   2.900  50.216  1.00  0.00    -0.347 OA
BRANCH  23  24
HETATM   24  C2  UNL     1      25.534   2.473  51.554  1.00  0.00     0.120 C 
HETATM   25  C1  UNL     1      24.301   1.678  51.962  1.00  0.00     0.040 C 
HETATM   26  C3  UNL     1      26.776   1.605  51.768  1.00  0.00     0.040 C 
ENDBRANCH  23  24
ENDBRANCH  20  23
ENDBRANCH   1  17
TORSDOF 3
ENDMDL
MODEL 6
REMARK VINA RESULT:      -7.6      2.749      4.487
REMARK  3 active torsions:
REMARK  status: ('A' for Active; 'I' for Inactive)
REMARK    1  A    between atoms: C2_2  and  O1_4 
REMARK    2  A    between atoms: O1_4  and  C4_5 
REMARK    3  A    between atoms: C7_8  and  N1_9 
ROOT
HETATM    1  N1  UNL     1      22.776   1.391  51.994  1.00  0.00    -0.219 N 
HETATM    2  N2  UNL     1      23.860   0.456  51.903  1.00  0.00    -0.184 NA
HETATM    3  C8  UNL     1      25.147   0.666  52.067  1.00  0.00     0.124 C 
HETATM    4  C9  UNL     1      25.993   1.709  52.662  1.00  0.00     0.074 C 
HETATM    5  C10 UNL     1      26.666   2.611  51.617  1.00  0.00     0.004 C 
HETATM    6  C11 UNL     1      26.030   3.505  50.804  1.00  0.00     0.091 C 
HETATM    7  N3  UNL     1      24.602   3.631  50.504  1.00  0.00    -0.323 N 
HETATM    8  C12 UNL     1      24.113   5.017  50.447  1.00  0.00     0.161 C 
HETATM    9  C13 UNL     1      22.784   5.009  51.155  1.00  0.00     0.294 C 
HETATM   10  N4  UNL     1      22.115   3.775  51.461  1.00  0.00     0.129 N 
HETATM   11  C14 UNL     1      22.965   2.732  51.695  1.00  0.00     0.350 C 
HETATM   12  C15 UNL     1      23.916   3.163  52.790  1.00  0.00     0.046 C 
HETATM   13  C16 UNL     1      25.033   2.648  53.390  1.00  0.00    -0.012 C 
HETATM   14  C17 UNL     1      23.557   2.647  50.296  1.00  0.00     0.289 C 
HETATM   15  O2  UNL     1      22.954   1.813  49.542  1.00  0.00    -0.268 OA
HETATM   16  H18 UNL     1      21.385   3.640  50.695  1.00  0.00     0.320 HD
ENDROOT
BRANCH   1  17
HETATM   17  C7  UNL     1      21.556   0.795  52.408  1.00  0.00     0.057 A 
HETATM   18  C6  UNL     1      20.441   0.664  51.608  1.00  0.00     0.034 A 
HETATM   19  C5  UNL     1      19.277   0.059  52.089  1.00  0.00     0.039 A 
HETATM   20  C4  UNL     1      19.171  -0.445  53.391  1.00  0.00     0.069 A 
HETATM   21  C19 UNL     1      20.296  -0.305  54.175  1.00  0.00     0.039 A 
HETATM   22  C18 UNL     1      21.433   0.294  53.685  1.00  0.00     0.034 A 
BRANCH  20  23
HETATM   23  O1  UNL     1      17.945  -0.994  53.643  1.00  0.00    -0.347 OA
BRANCH  23  24
HETATM   24  C2  UNL     1      17.355  -2.002  52.858  1.00  0.00     0.120 C 
HETATM   25  C1  UNL     1      17.343  -3.331  53.600  1.00  0.00     0.040 C 
HETATM   26  C3  UNL     1      15.921  -1.634  52.475  1.00  0.00     0.040 C 
ENDBRANCH  23  24
ENDBRANCH  20  23
ENDBRANCH   1  17
TORSDOF 3
ENDMDL
MODEL 7
REMARK VINA RESULT:      -7.6      5.258      9.065
REMARK  3 active torsions:
REMARK  status: ('A' for Active; 'I' for Inactive)
REMARK    1  A    between atoms: C2_2  and  O1_4 
REMARK    2  A    between atoms: O1_4  and  C4_5 
REMARK    3  A    between atoms: C7_8  and  N1_9 
ROOT
HETATM    1  N1  UNL     1      23.885   4.080  50.622  1.00  0.00    -0.219 N 
HETATM    2  N2  UNL     1      24.159   3.632  51.956  1.00  0.00    -0.184 NA
HETATM    3  C8  UNL     1      23.558   2.691  52.650  1.00  0.00     0.124 C 
HETATM    4  C9  UNL     1      22.666   1.558  52.370  1.00  0.00     0.074 C 
HETATM    5  C10 UNL     1      21.203   1.832  52.748  1.00  0.00     0.004 C 
HETATM    6  C11 UNL     1      20.370   2.720  52.129  1.00  0.00     0.091 C 
HETATM    7  N3  UNL     1      20.697   3.802  51.198  1.00  0.00    -0.323 N 
HETATM    8  C12 UNL     1      19.762   3.939  50.072  1.00  0.00     0.161 C 
HETATM    9  C13 UNL     1      20.618   4.193  48.860  1.00  0.00     0.294 C 
HETATM   10  N4  UNL     1      22.005   4.544  48.993  1.00  0.00     0.129 N 
HETATM   11  C14 UNL     1      22.606   4.000  50.091  1.00  0.00     0.350 C 
HETATM   12  C15 UNL     1      22.389   2.504  50.029  1.00  0.00     0.046 C 
HETATM   13  C16 UNL     1      22.632   1.433  50.847  1.00  0.00    -0.012 C 
HETATM   14  C17 UNL     1      21.798   4.745  51.144  1.00  0.00     0.289 C 
HETATM   15  O2  UNL     1      22.355   5.823  51.538  1.00  0.00    -0.268 OA
HETATM   16  H18 UNL     1      22.049   5.604  48.894  1.00  0.00     0.320 HD
ENDROOT
BRANCH   1  17
HETATM   17  C7  UNL     1      25.031   4.585  49.954  1.00  0.00     0.057 A 
HETATM   18  C6  UNL     1      25.199   5.901  49.579  1.00  0.00     0.034 A 
HETATM   19  C5  UNL     1      26.362   6.322  48.930  1.00  0.00     0.039 A 
HETATM   20  C4  UNL     1      27.414   5.450  48.624  1.00  0.00     0.069 A 
HETATM   21  C19 UNL     1      27.228   4.139  49.008  1.00  0.00     0.039 A 
HETATM   22  C18 UNL     1      26.076   3.742  49.646  1.00  0.00     0.034 A 
BRANCH  20  23
HETATM   23  O1  UNL     1      28.449   6.078  47.991  1.00  0.00    -0.347 OA
BRANCH  23  24
HETATM   24  C2  UNL     1      28.568   7.475  47.869  1.00  0.00     0.120 C 
HETATM   25  C1  UNL     1      29.780   7.986  48.636  1.00  0.00     0.040 C 
HETATM   26  C3  UNL     1      28.698   7.891  46.403  1.00  0.00     0.040 C 
ENDBRANCH  23  24
ENDBRANCH  20  23
ENDBRANCH   1  17
TORSDOF 3
ENDMDL
MODEL 8
REMARK VINA RESULT:      -7.6      6.401     10.040
REMARK  3 active torsions:
REMARK  status: ('A' for Active; 'I' for Inactive)
REMARK    1  A    between atoms: C2_2  and  O1_4 
REMARK    2  A    between atoms: O1_4  and  C4_5 
REMARK    3  A    between atoms: C7_8  and  N1_9 
ROOT
HETATM    1  N1  UNL     1      24.589   5.860  49.107  1.00  0.00    -0.219 N 
HETATM    2  N2  UNL     1      23.732   6.285  48.039  1.00  0.00    -0.184 NA
HETATM    3  C8  UNL     1      22.545   6.845  48.106  1.00  0.00     0.124 C 
HETATM    4  C9  UNL     1      21.742   7.531  49.126  1.00  0.00     0.074 C 
HETATM    5  C10 UNL     1      20.616   6.655  49.699  1.00  0.00     0.004 C 
HETATM    6  C11 UNL     1      20.784   5.551  50.484  1.00  0.00     0.091 C 
HETATM    7  N3  UNL     1      21.995   4.767  50.734  1.00  0.00    -0.323 N 
HETATM    8  C12 UNL     1      22.166   4.340  52.131  1.00  0.00     0.161 C 
HETATM    9  C13 UNL     1      23.624   4.546  52.444  1.00  0.00     0.294 C 
HETATM   10  N4  UNL     1      24.580   4.786  51.398  1.00  0.00     0.129 N 
HETATM   11  C14 UNL     1      24.062   5.448  50.322  1.00  0.00     0.350 C 
HETATM   12  C15 UNL     1      23.435   6.724  50.838  1.00  0.00     0.046 C 
HETATM   13  C16 UNL     1      22.681   7.739  50.313  1.00  0.00    -0.012 C 
HETATM   14  C17 UNL     1      23.092   4.364  49.875  1.00  0.00     0.289 C 
HETATM   15  O2  UNL     1      23.579   3.583  48.992  1.00  0.00    -0.268 OA
HETATM   16  H18 UNL     1      25.046   3.846  51.208  1.00  0.00     0.320 HD
ENDROOT
BRANCH   1  17
HETATM   17  C7  UNL     1      25.968   5.917  48.776  1.00  0.00     0.057 A 
HETATM   18  C6  UNL     1      26.848   4.865  48.912  1.00  0.00     0.034 A 
HETATM   19  C5  UNL     1      28.192   4.998  48.557  1.00  0.00     0.039 A 
HETATM   20  C4  UNL     1      28.723   6.190  48.048  1.00  0.00     0.069 A 
HETATM   21  C19 UNL     1      27.828   7.231  47.918  1.00  0.00     0.039 A 
HETATM   22  C18 UNL     1      26.508   7.081  48.273  1.00  0.00     0.034 A 
BRANCH  20  23
HETATM   23  O1  UNL     1      30.057   6.093  47.768  1.00  0.00    -0.347 OA
BRANCH  23  24
HETATM   24  C2  UNL     1      31.051   5.857  48.737  1.00  0.00     0.120 C 
HETATM   25  C1  UNL     1      32.178   5.010  48.163  1.00  0.00     0.040 C 
HETATM   26  C3  UNL     1      31.635   7.171  49.259  1.00  0.00     0.040 C 
ENDBRANCH  23  24
ENDBRANCH  20  23
ENDBRANCH   1  17
TORSDOF 3
ENDMDL
MODEL 9
REMARK VINA RESULT:      -7.4      6.136      9.983
REMARK  3 active torsions:
REMARK  status: ('A' for Active; 'I' for Inactive)
REMARK    1  A    between atoms: C2_2  and  O1_4 
REMARK    2  A    between atoms: O1_4  and  C4_5 
REMARK    3  A    between atoms: C7_8  and  N1_9 
ROOT
HETATM    1  N1  UNL     1      25.124   4.992  49.718  1.00  0.00    -0.219 N 
HETATM    2  N2  UNL     1      25.314   3.969  50.705  1.00  0.00    -0.184 NA
HETATM    3  C8  UNL     1      24.510   2.985  51.039  1.00  0.00     0.124 C 
HETATM    4  C9  UNL     1      23.342   2.312  50.453  1.00  0.00     0.074 C 
HETATM    5  C10 UNL     1      22.016   2.721  51.112  1.00  0.00     0.004 C 
HETATM    6  C11 UNL     1      21.427   3.950  51.028  1.00  0.00     0.091 C 
HETATM    7  N3  UNL     1      21.997   5.221  50.576  1.00  0.00    -0.323 N 
HETATM    8  C12 UNL     1      21.094   6.031  49.745  1.00  0.00     0.161 C 
HETATM    9  C13 UNL     1      21.947   6.577  48.631  1.00  0.00     0.294 C 
HETATM   10  N4  UNL     1      23.382   6.515  48.697  1.00  0.00     0.129 N 
HETATM   11  C14 UNL     1      23.853   5.436  49.386  1.00  0.00     0.350 C 
HETATM   12  C15 UNL     1      23.248   4.200  48.758  1.00  0.00     0.046 C 
HETATM   13  C16 UNL     1      23.226   2.858  49.032  1.00  0.00    -0.012 C 
HETATM   14  C17 UNL     1      23.306   5.823  50.752  1.00  0.00     0.289 C 
HETATM   15  O2  UNL     1      24.139   6.474  51.465  1.00  0.00    -0.268 OA
HETATM   16  H18 UNL     1      23.701   7.477  49.029  1.00  0.00     0.320 HD
ENDROOT
BRANCH   1  17
HETATM   17  C7  UNL     1      26.341   5.460  49.157  1.00  0.00     0.057 A 
HETATM   18  C6  UNL     1      27.405   4.653  48.815  1.00  0.00     0.034 A 
HETATM   19  C5  UNL     1      28.569   5.190  48.260  1.00  0.00     0.039 A 
HETATM   20  C4  UNL     1      28.726   6.561  48.019  1.00  0.00     0.069 A 
HETATM   21  C19 UNL     1      27.652   7.352  48.368  1.00  0.00     0.039 A 
HETATM   22  C18 UNL     1      26.514   6.805  48.913  1.00  0.00     0.034 A 
BRANCH  20  23
HETATM   23  O1  UNL     1      29.941   6.861  47.472  1.00  0.00    -0.347 OA
BRANCH  23  24
HETATM   24  C2  UNL     1      31.170   6.702  48.141  1.00  0.00     0.120 C 
HETATM   25  C1  UNL     1      32.339   6.900  47.186  1.00  0.00     0.040 C 
HETATM   26  C3  UNL     1      31.300   7.695  49.297  1.00  0.00     0.040 C 
ENDBRANCH  23  24
ENDBRANCH  20  23
ENDBRANCH   1  17
TORSDOF 3
ENDMDL
