MODEL 1
REMARK VINA RESULT:      -6.8      0.000      0.000
REMARK  7 active torsions:
REMARK  status: ('A' for Active; 'I' for Inactive)
REMARK    1  A    between atoms: C2_2  and  C3_3 
REMARK    2  A    between atoms: C2_2  and  O1_10 
REMARK    3  A    between atoms: C3_3  and  C4_4 
REMARK    4  A    between atoms: C5_5  and  C6_6 
REMARK    5  A    between atoms: C7_7  and  C8_8 
REMARK    6  A    between atoms: O1_10  and  C9_11 
REMARK    7  A    between atoms: N1_15  and  C13_16 
ROOT
HETATM    1  C9  UNL     1      22.551   0.526  53.301  1.00  0.00     0.069 A 
HETATM    2  C10 UNL     1      22.974  -0.410  54.136  1.00  0.00     0.036 A 
HETATM    3  C11 UNL     1      22.093  -1.482  54.607  1.00  0.00     0.020 A 
HETATM    4  C12 UNL     1      20.844  -1.535  54.204  1.00  0.00     0.092 A 
HETATM    5  N1  UNL     1      20.365  -0.560  53.321  1.00  0.00    -0.350 N 
HETATM    6  C16 UNL     1      21.169   0.529  52.809  1.00  0.00     0.142 A 
HETATM    7  C17 UNL     1      20.529   1.866  53.009  1.00  0.00     0.040 C 
ENDROOT
BRANCH   1   8
HETATM    8  O1  UNL     1      23.252   1.596  52.766  1.00  0.00    -0.348 OA
BRANCH   8   9
HETATM    9  C2  UNL     1      24.053   1.508  51.622  1.00  0.00     0.128 C 
HETATM   10  C1  UNL     1      23.605   2.390  50.504  1.00  0.00     0.040 C 
BRANCH   9  11
HETATM   11  C3  UNL     1      25.492   1.795  52.031  1.00  0.00     0.059 C 
BRANCH  11  12
HETATM   12  C4  UNL     1      26.316   0.620  51.714  1.00  0.00    -0.024 C 
HETATM   13  C5  UNL     1      26.862  -0.277  52.511  1.00  0.00    -0.004 C 
BRANCH  13  14
HETATM   14  C6  UNL     1      26.690  -0.192  53.935  1.00  0.00    -0.003 C 
HETATM   15  C7  UNL     1      27.653   0.291  54.702  1.00  0.00    -0.012 C 
BRANCH  15  16
HETATM   16  C8  UNL     1      28.994   0.805  54.326  1.00  0.00     0.141 C 
HETATM   17 CL1  UNL     1      28.735   2.484  53.733  1.00  0.00    -0.126 Cl
ENDBRANCH  15  16
ENDBRANCH  13  14
ENDBRANCH  11  12
ENDBRANCH   9  11
ENDBRANCH   8   9
ENDBRANCH   1   8
BRANCH   5  18
HETATM   18  C13 UNL     1      19.011  -0.598  52.869  1.00  0.00     0.012 A 
HETATM   19  C14 UNL     1      17.848  -0.311  52.061  1.00  0.00     0.005 A 
HETATM   20  C15 UNL     1      17.716  -1.227  53.210  1.00  0.00     0.086 A 
ENDBRANCH   5  18
TORSDOF 7
ENDMDL
MODEL 2
REMARK VINA RESULT:      -6.6      3.215      7.606
REMARK  7 active torsions:
REMARK  status: ('A' for Active; 'I' for Inactive)
REMARK    1  A    between atoms: C2_2  and  C3_3 
REMARK    2  A    between atoms: C2_2  and  O1_10 
REMARK    3  A    between atoms: C3_3  and  C4_4 
REMARK    4  A    between atoms: C5_5  and  C6_6 
REMARK    5  A    between atoms: C7_7  and  C8_8 
REMARK    6  A    between atoms: O1_10  and  C9_11 
REMARK    7  A    between atoms: N1_15  and  C13_16 
ROOT
HETATM    1  C9  UNL     1      24.576   0.632  53.087  1.00  0.00     0.069 A 
HETATM    2  C10 UNL     1      24.667   1.597  52.187  1.00  0.00     0.036 A 
HETATM    3  C11 UNL     1      25.939   1.941  51.545  1.00  0.00     0.020 A 
HETATM    4  C12 UNL     1      27.034   1.285  51.858  1.00  0.00     0.092 A 
HETATM    5  N1  UNL     1      26.972   0.257  52.807  1.00  0.00    -0.350 N 
HETATM    6  C16 UNL     1      25.757  -0.142  53.485  1.00  0.00     0.142 A 
HETATM    7  C17 UNL     1      25.907  -0.172  54.973  1.00  0.00     0.040 C 
ENDROOT
BRANCH   1   8
HETATM    8  O1  UNL     1      23.459   0.189  53.779  1.00  0.00    -0.348 OA
BRANCH   8   9
HETATM    9  C2  UNL     1      22.662  -0.884  53.365  1.00  0.00     0.128 C 
HETATM   10  C1  UNL     1      21.900  -1.532  54.473  1.00  0.00     0.040 C 
BRANCH   9  11
HETATM   11  C3  UNL     1      21.743  -0.388  52.255  1.00  0.00     0.059 C 
BRANCH  11  12
HETATM   12  C4  UNL     1      20.831   0.620  52.813  1.00  0.00    -0.024 C 
HETATM   13  C5  UNL     1      19.591   0.923  52.482  1.00  0.00    -0.004 C 
BRANCH  13  14
HETATM   14  C6  UNL     1      18.925   0.221  51.421  1.00  0.00    -0.003 C 
HETATM   15  C7  UNL     1      17.912  -0.589  51.681  1.00  0.00    -0.012 C 
BRANCH  15  16
HETATM   16  C8  UNL     1      17.287  -0.934  52.983  1.00  0.00     0.141 C 
HETATM   17 CL1  UNL     1      18.228  -2.323  53.635  1.00  0.00    -0.126 Cl
ENDBRANCH  15  16
ENDBRANCH  13  14
ENDBRANCH  11  12
ENDBRANCH   9  11
ENDBRANCH   8   9
ENDBRANCH   1   8
BRANCH   5  18
HETATM   18  C13 UNL     1      28.149  -0.469  53.162  1.00  0.00     0.012 A 
HETATM   19  C14 UNL     1      29.061  -1.582  53.296  1.00  0.00     0.005 A 
HETATM   20  C15 UNL     1      29.460  -0.261  53.816  1.00  0.00     0.086 A 
ENDBRANCH   5  18
TORSDOF 7
ENDMDL
MODEL 3
REMARK VINA RESULT:      -6.5      3.372      6.193
REMARK  7 active torsions:
REMARK  status: ('A' for Active; 'I' for Inactive)
REMARK    1  A    between atoms: C2_2  and  C3_3 
REMARK    2  A    between atoms: C2_2  and  O1_10 
REMARK    3  A    between atoms: C3_3  and  C4_4 
REMARK    4  A    between atoms: C5_5  and  C6_6 
REMARK    5  A    between atoms: C7_7  and  C8_8 
REMARK    6  A    between atoms: O1_10  and  C9_11 
REMARK    7  A    between atoms: N1_15  and  C13_16 
ROOT
HETATM    1  C9  UNL     1      24.462   1.635  52.457  1.00  0.00     0.069 A 
HETATM    2  C10 UNL     1      23.543   0.769  52.852  1.00  0.00     0.036 A 
HETATM    3  C11 UNL     1      23.890  -0.441  53.602  1.00  0.00     0.020 A 
HETATM    4  C12 UNL     1      25.144  -0.695  53.900  1.00  0.00     0.092 A 
HETATM    5  N1  UNL     1      26.142   0.200  53.496  1.00  0.00    -0.350 N 
HETATM    6  C16 UNL     1      25.881   1.415  52.754  1.00  0.00     0.142 A 
HETATM    7  C17 UNL     1      26.715   1.530  51.518  1.00  0.00     0.040 C 
ENDROOT
BRANCH   1   8
HETATM    8  O1  UNL     1      24.298   2.815  51.747  1.00  0.00    -0.348 OA
BRANCH   8   9
HETATM    9  C2  UNL     1      23.378   2.975  50.706  1.00  0.00     0.128 C 
HETATM   10  C1  UNL     1      22.329   4.001  50.980  1.00  0.00     0.040 C 
BRANCH   9  11
HETATM   11  C3  UNL     1      24.157   3.284  49.433  1.00  0.00     0.059 C 
BRANCH  11  12
HETATM   12  C4  UNL     1      24.560   4.697  49.457  1.00  0.00    -0.024 C 
HETATM   13  C5  UNL     1      25.750   5.245  49.309  1.00  0.00    -0.004 C 
BRANCH  13  14
HETATM   14  C6  UNL     1      26.909   4.428  49.082  1.00  0.00    -0.003 C 
HETATM   15  C7  UNL     1      28.004   4.944  48.549  1.00  0.00    -0.012 C 
BRANCH  15  16
HETATM   16  C8  UNL     1      28.275   6.336  48.105  1.00  0.00     0.141 C 
HETATM   17 CL1  UNL     1      30.031   6.401  47.717  1.00  0.00    -0.126 Cl
ENDBRANCH  15  16
ENDBRANCH  13  14
ENDBRANCH  11  12
ENDBRANCH   9  11
ENDBRANCH   8   9
ENDBRANCH   1   8
BRANCH   5  18
HETATM   18  C13 UNL     1      27.512  -0.055  53.809  1.00  0.00     0.012 A 
HETATM   19  C14 UNL     1      28.835  -0.625  53.714  1.00  0.00     0.005 A 
HETATM   20  C15 UNL     1      28.550   0.350  54.782  1.00  0.00     0.086 A 
ENDBRANCH   5  18
TORSDOF 7
ENDMDL
MODEL 4
REMARK VINA RESULT:      -6.5      4.149      5.626
REMARK  7 active torsions:
REMARK  status: ('A' for Active; 'I' for Inactive)
REMARK    1  A    between atoms: C2_2  and  C3_3 
REMARK    2  A    between atoms: C2_2  and  O1_10 
REMARK    3  A    between atoms: C3_3  and  C4_4 
REMARK    4  A    between atoms: C5_5  and  C6_6 
REMARK    5  A    between atoms: C7_7  and  C8_8 
REMARK    6  A    between atoms: O1_10  and  C9_11 
REMARK    7  A    between atoms: N1_15  and  C13_16 
ROOT
HETATM    1  C9  UNL     1      25.710   1.782  51.771  1.00  0.00     0.069 A 
HETATM    2  C10 UNL     1      26.825   1.090  51.937  1.00  0.00     0.036 A 
HETATM    3  C11 UNL     1      26.837  -0.213  52.607  1.00  0.00     0.020 A 
HETATM    4  C12 UNL     1      25.718  -0.729  53.065  1.00  0.00     0.092 A 
HETATM    5  N1  UNL     1      24.520  -0.023  52.907  1.00  0.00    -0.350 N 
HETATM    6  C16 UNL     1      24.425   1.268  52.258  1.00  0.00     0.142 A 
HETATM    7  C17 UNL     1      23.718   2.286  53.094  1.00  0.00     0.040 C 
ENDROOT
BRANCH   1   8
HETATM    8  O1  UNL     1      25.533   3.016  51.165  1.00  0.00    -0.348 OA
BRANCH   8   9
HETATM    9  C2  UNL     1      25.443   3.197  49.781  1.00  0.00     0.128 C 
HETATM   10  C1  UNL     1      24.305   4.066  49.359  1.00  0.00     0.040 C 
BRANCH   9  11
HETATM   11  C3  UNL     1      26.781   3.734  49.288  1.00  0.00     0.059 C 
BRANCH  11  12
HETATM   12  C4  UNL     1      26.623   5.153  48.941  1.00  0.00    -0.024 C 
HETATM   13  C5  UNL     1      27.497   6.015  48.460  1.00  0.00    -0.004 C 
BRANCH  13  14
HETATM   14  C6  UNL     1      28.850   5.613  48.194  1.00  0.00    -0.003 C 
HETATM   15  C7  UNL     1      29.754   6.501  47.816  1.00  0.00    -0.012 C 
BRANCH  15  16
HETATM   16  C8  UNL     1      29.612   7.963  47.599  1.00  0.00     0.141 C 
HETATM   17 CL1  UNL     1      29.863   8.732  49.206  1.00  0.00    -0.126 Cl
ENDBRANCH  15  16
ENDBRANCH  13  14
ENDBRANCH  11  12
ENDBRANCH   9  11
ENDBRANCH   8   9
ENDBRANCH   1   8
BRANCH   5  18
HETATM   18  C13 UNL     1      23.292  -0.564  53.396  1.00  0.00     0.012 A 
HETATM   19  C14 UNL     1      21.959  -1.118  53.379  1.00  0.00     0.005 A 
HETATM   20  C15 UNL     1      22.636  -0.919  54.674  1.00  0.00     0.086 A 
ENDBRANCH   5  18
TORSDOF 7
ENDMDL
MODEL 5
REMARK VINA RESULT:      -6.4      3.041      6.857
REMARK  7 active torsions:
REMARK  status: ('A' for Active; 'I' for Inactive)
REMARK    1  A    between atoms: C2_2  and  C3_3 
REMARK    2  A    between atoms: C2_2  and  O1_10 
REMARK    3  A    between atoms: C3_3  and  C4_4 
REMARK    4  A    between atoms: C5_5  and  C6_6 
REMARK    5  A    between atoms: C7_7  and  C8_8 
REMARK    6  A    between atoms: O1_10  and  C9_11 
REMARK    7  A    between atoms: N1_15  and  C13_16 
ROOT
HETATM    1  C9  UNL     1      24.579   0.542  53.129  1.00  0.00     0.069 A 
HETATM    2  C10 UNL     1      24.650   1.506  52.225  1.00  0.00     0.036 A 
HETATM    3  C11 UNL     1      25.910   1.860  51.567  1.00  0.00     0.020 A 
HETATM    4  C12 UNL     1      27.015   1.216  51.868  1.00  0.00     0.092 A 
HETATM    5  N1  UNL     1      26.976   0.192  52.822  1.00  0.00    -0.350 N 
HETATM    6  C16 UNL     1      25.773  -0.218  53.515  1.00  0.00     0.142 A 
HETATM    7  C17 UNL     1      25.941  -0.242  55.001  1.00  0.00     0.040 C 
ENDROOT
BRANCH   1   8
HETATM    8  O1  UNL     1      23.475   0.090  53.835  1.00  0.00    -0.348 OA
BRANCH   8   9
HETATM    9  C2  UNL     1      22.449  -0.674  53.269  1.00  0.00     0.128 C 
HETATM   10  C1  UNL     1      21.847  -1.665  54.209  1.00  0.00     0.040 C 
BRANCH   9  11
HETATM   11  C3  UNL     1      21.406   0.282  52.705  1.00  0.00     0.059 C 
BRANCH  11  12
HETATM   12  C4  UNL     1      21.334   0.096  51.248  1.00  0.00    -0.024 C 
HETATM   13  C5  UNL     1      21.322   0.986  50.276  1.00  0.00    -0.004 C 
BRANCH  13  14
HETATM   14  C6  UNL     1      21.386   2.391  50.569  1.00  0.00    -0.003 C 
HETATM   15  C7  UNL     1      22.255   3.170  49.947  1.00  0.00    -0.012 C 
BRANCH  15  16
HETATM   16  C8  UNL     1      23.263   2.826  48.913  1.00  0.00     0.141 C 
HETATM   17 CL1  UNL     1      22.339   2.528  47.398  1.00  0.00    -0.126 Cl
ENDBRANCH  15  16
ENDBRANCH  13  14
ENDBRANCH  11  12
ENDBRANCH   9  11
ENDBRANCH   8   9
ENDBRANCH   1   8
BRANCH   5  18
HETATM   18  C13 UNL     1      28.165  -0.522  53.165  1.00  0.00     0.012 A 
HETATM   19  C14 UNL     1      29.086  -1.626  53.297  1.00  0.00     0.005 A 
HETATM   20  C15 UNL     1      29.485  -0.295  53.792  1.00  0.00     0.086 A 
ENDBRANCH   5  18
TORSDOF 7
ENDMDL
MODEL 6
REMARK VINA RESULT:      -6.3      2.938      6.448
REMARK  7 active torsions:
REMARK  status: ('A' for Active; 'I' for Inactive)
REMARK    1  A    between atoms: C2_2  and  C3_3 
REMARK    2  A    between atoms: C2_2  and  O1_10 
REMARK    3  A    between atoms: C3_3  and  C4_4 
REMARK    4  A    between atoms: C5_5  and  C6_6 
REMARK    5  A    between atoms: C7_7  and  C8_8 
REMARK    6  A    between atoms: O1_10  and  C9_11 
REMARK    7  A    between atoms: N1_15  and  C13_16 
ROOT
HETATM    1  C9  UNL     1      24.633   1.846  52.813  1.00  0.00     0.069 A 
HETATM    2  C10 UNL     1      23.690   0.965  53.107  1.00  0.00     0.036 A 
HETATM    3  C11 UNL     1      24.008  -0.359  53.648  1.00  0.00     0.020 A 
HETATM    4  C12 UNL     1      25.259  -0.704  53.853  1.00  0.00     0.092 A 
HETATM    5  N1  UNL     1      26.282   0.204  53.552  1.00  0.00    -0.350 N 
HETATM    6  C16 UNL     1      26.050   1.529  53.017  1.00  0.00     0.142 A 
HETATM    7  C17 UNL     1      26.847   1.802  51.781  1.00  0.00     0.040 C 
ENDROOT
BRANCH   1   8
HETATM    8  O1  UNL     1      24.497   3.127  52.300  1.00  0.00    -0.348 OA
BRANCH   8   9
HETATM    9  C2  UNL     1      23.462   3.518  51.444  1.00  0.00     0.128 C 
HETATM   10  C1  UNL     1      23.324   4.997  51.300  1.00  0.00     0.040 C 
BRANCH   9  11
HETATM   11  C3  UNL     1      23.679   2.832  50.101  1.00  0.00     0.059 C 
BRANCH  11  12
HETATM   12  C4  UNL     1      22.411   2.841  49.356  1.00  0.00    -0.024 C 
HETATM   13  C5  UNL     1      21.451   1.940  49.299  1.00  0.00    -0.004 C 
BRANCH  13  14
HETATM   14  C6  UNL     1      21.552   0.715  50.042  1.00  0.00    -0.003 C 
HETATM   15  C7  UNL     1      20.713   0.456  51.031  1.00  0.00    -0.012 C 
BRANCH  15  16
HETATM   16  C8  UNL     1      19.590   1.273  51.558  1.00  0.00     0.141 C 
HETATM   17 CL1  UNL     1      20.311   2.382  52.778  1.00  0.00    -0.126 Cl
ENDBRANCH  15  16
ENDBRANCH  13  14
ENDBRANCH  11  12
ENDBRANCH   9  11
ENDBRANCH   8   9
ENDBRANCH   1   8
BRANCH   5  18
HETATM   18  C13 UNL     1      27.648  -0.149  53.768  1.00  0.00     0.012 A 
HETATM   19  C14 UNL     1      28.924  -0.796  53.567  1.00  0.00     0.005 A 
HETATM   20  C15 UNL     1      28.768   0.149  54.688  1.00  0.00     0.086 A 
ENDBRANCH   5  18
TORSDOF 7
ENDMDL
MODEL 7
REMARK VINA RESULT:      -6.3      2.311      3.436
REMARK  7 active torsions:
REMARK  status: ('A' for Active; 'I' for Inactive)
REMARK    1  A    between atoms: C2_2  and  C3_3 
REMARK    2  A    between atoms: C2_2  and  O1_10 
REMARK    3  A    between atoms: C3_3  and  C4_4 
REMARK    4  A    between atoms: C5_5  and  C6_6 
REMARK    5  A    between atoms: C7_7  and  C8_8 
REMARK    6  A    between atoms: O1_10  and  C9_11 
REMARK    7  A    between atoms: N1_15  and  C13_16 
ROOT
HETATM    1  C9  UNL     1      23.055  -0.012  53.015  1.00  0.00     0.069 A 
HETATM    2  C10 UNL     1      23.270  -0.726  54.108  1.00  0.00     0.036 A 
HETATM    3  C11 UNL     1      22.184  -1.420  54.806  1.00  0.00     0.020 A 
HETATM    4  C12 UNL     1      20.954  -1.343  54.353  1.00  0.00     0.092 A 
HETATM    5  N1  UNL     1      20.691  -0.594  53.199  1.00  0.00    -0.350 N 
HETATM    6  C16 UNL     1      21.706   0.118  52.453  1.00  0.00     0.142 A 
HETATM    7  C17 UNL     1      21.355   1.554  52.220  1.00  0.00     0.040 C 
ENDROOT
BRANCH   1   8
HETATM    8  O1  UNL     1      23.965   0.696  52.245  1.00  0.00    -0.348 OA
BRANCH   8   9
HETATM    9  C2  UNL     1      25.263   1.009  52.665  1.00  0.00     0.128 C 
HETATM   10  C1  UNL     1      26.323   0.192  52.004  1.00  0.00     0.040 C 
BRANCH   9  11
HETATM   11  C3  UNL     1      25.479   2.502  52.453  1.00  0.00     0.059 C 
BRANCH  11  12
HETATM   12  C4  UNL     1      24.691   2.933  51.290  1.00  0.00    -0.024 C 
HETATM   13  C5  UNL     1      25.076   3.247  50.069  1.00  0.00    -0.004 C 
BRANCH  13  14
HETATM   14  C6  UNL     1      26.464   3.193  49.703  1.00  0.00    -0.003 C 
HETATM   15  C7  UNL     1      27.060   4.244  49.166  1.00  0.00    -0.012 C 
BRANCH  15  16
HETATM   16  C8  UNL     1      26.507   5.584  48.845  1.00  0.00     0.141 C 
HETATM   17 CL1  UNL     1      27.879   6.543  48.183  1.00  0.00    -0.126 Cl
ENDBRANCH  15  16
ENDBRANCH  13  14
ENDBRANCH  11  12
ENDBRANCH   9  11
ENDBRANCH   8   9
ENDBRANCH   1   8
BRANCH   5  18
HETATM   18  C13 UNL     1      19.361  -0.496  52.688  1.00  0.00     0.012 A 
HETATM   19  C14 UNL     1      18.269  -0.090  51.835  1.00  0.00     0.005 A 
HETATM   20  C15 UNL     1      17.998  -1.001  52.963  1.00  0.00     0.086 A 
ENDBRANCH   5  18
TORSDOF 7
ENDMDL
MODEL 8
REMARK VINA RESULT:      -6.2      3.742      6.578
REMARK  7 active torsions:
REMARK  status: ('A' for Active; 'I' for Inactive)
REMARK    1  A    between atoms: C2_2  and  C3_3 
REMARK    2  A    between atoms: C2_2  and  O1_10 
REMARK    3  A    between atoms: C3_3  and  C4_4 
REMARK    4  A    between atoms: C5_5  and  C6_6 
REMARK    5  A    between atoms: C7_7  and  C8_8 
REMARK    6  A    between atoms: O1_10  and  C9_11 
REMARK    7  A    between atoms: N1_15  and  C13_16 
ROOT
HETATM    1  C9  UNL     1      25.300   3.566  49.954  1.00  0.00     0.069 A 
HETATM    2  C10 UNL     1      26.593   3.440  49.702  1.00  0.00     0.036 A 
HETATM    3  C11 UNL     1      27.351   4.482  49.004  1.00  0.00     0.020 A 
HETATM    4  C12 UNL     1      26.750   5.581  48.608  1.00  0.00     0.092 A 
HETATM    5  N1  UNL     1      25.382   5.746  48.858  1.00  0.00    -0.350 N 
HETATM    6  C16 UNL     1      24.565   4.765  49.540  1.00  0.00     0.142 A 
HETATM    7  C17 UNL     1      23.332   4.405  48.773  1.00  0.00     0.040 C 
ENDROOT
BRANCH   1   8
HETATM    8  O1  UNL     1      24.449   2.680  50.597  1.00  0.00    -0.348 OA
BRANCH   8   9
HETATM    9  C2  UNL     1      24.619   2.260  51.921  1.00  0.00     0.128 C 
HETATM   10  C1  UNL     1      24.182   3.266  52.933  1.00  0.00     0.040 C 
BRANCH   9  11
HETATM   11  C3  UNL     1      23.894   0.931  52.090  1.00  0.00     0.059 C 
BRANCH  11  12
HETATM   12  C4  UNL     1      24.270   0.349  53.386  1.00  0.00    -0.024 C 
HETATM   13  C5  UNL     1      25.305  -0.398  53.715  1.00  0.00    -0.004 C 
BRANCH  13  14
HETATM   14  C6  UNL     1      26.287  -0.763  52.732  1.00  0.00    -0.003 C 
HETATM   15  C7  UNL     1      27.527  -0.313  52.818  1.00  0.00    -0.012 C 
BRANCH  15  16
HETATM   16  C8  UNL     1      28.142   0.578  53.835  1.00  0.00     0.141 C 
HETATM   17 CL1  UNL     1      28.009   2.248  53.179  1.00  0.00    -0.126 Cl
ENDBRANCH  15  16
ENDBRANCH  13  14
ENDBRANCH  11  12
ENDBRANCH   9  11
ENDBRANCH   8   9
ENDBRANCH   1   8
BRANCH   5  18
HETATM   18  C13 UNL     1      24.709   6.932  48.437  1.00  0.00     0.012 A 
HETATM   19  C14 UNL     1      24.039   7.866  47.563  1.00  0.00     0.005 A 
HETATM   20  C15 UNL     1      24.232   8.223  48.981  1.00  0.00     0.086 A 
ENDBRANCH   5  18
TORSDOF 7
ENDMDL
MODEL 9
REMARK VINA RESULT:      -5.9      2.041      2.704
REMARK  7 active torsions:
REMARK  status: ('A' for Active; 'I' for Inactive)
REMARK    1  A    between atoms: C2_2  and  C3_3 
REMARK    2  A    between atoms: C2_2  and  O1_10 
REMARK    3  A    between atoms: C3_3  and  C4_4 
REMARK    4  A    between atoms: C5_5  and  C6_6 
REMARK    5  A    between atoms: C7_7  and  C8_8 
REMARK    6  A    between atoms: O1_10  and  C9_11 
REMARK    7  A    between atoms: N1_15  and  C13_16 
ROOT
HETATM    1  C9  UNL     1      23.161   1.200  52.705  1.00  0.00     0.069 A 
HETATM    2  C10 UNL     1      22.914   0.215  53.553  1.00  0.00     0.036 A 
HETATM    3  C11 UNL     1      21.548  -0.194  53.889  1.00  0.00     0.020 A 
HETATM    4  C12 UNL     1      20.522   0.422  53.345  1.00  0.00     0.092 A 
HETATM    5  N1  UNL     1      20.749   1.470  52.444  1.00  0.00    -0.350 N 
HETATM    6  C16 UNL     1      22.065   1.932  52.060  1.00  0.00     0.142 A 
HETATM    7  C17 UNL     1      22.232   3.409  52.227  1.00  0.00     0.040 C 
ENDROOT
BRANCH   1   8
HETATM    8  O1  UNL     1      24.384   1.702  52.286  1.00  0.00    -0.348 OA
BRANCH   8   9
HETATM    9  C2  UNL     1      25.610   1.078  52.541  1.00  0.00     0.128 C 
HETATM   10  C1  UNL     1      26.554   1.110  51.386  1.00  0.00     0.040 C 
BRANCH   9  11
HETATM   11  C3  UNL     1      26.212   1.715  53.787  1.00  0.00     0.059 C 
BRANCH  11  12
HETATM   12  C4  UNL     1      26.559   0.651  54.740  1.00  0.00    -0.024 C 
HETATM   13  C5  UNL     1      27.669  -0.046  54.870  1.00  0.00    -0.004 C 
BRANCH  13  14
HETATM   14  C6  UNL     1      28.785   0.184  53.996  1.00  0.00    -0.003 C 
HETATM   15  C7  UNL     1      29.311  -0.809  53.298  1.00  0.00    -0.012 C 
BRANCH  15  16
HETATM   16  C8  UNL     1      28.924  -2.242  53.252  1.00  0.00     0.141 C 
HETATM   17 CL1  UNL     1      27.267  -2.288  52.551  1.00  0.00    -0.126 Cl
ENDBRANCH  15  16
ENDBRANCH  13  14
ENDBRANCH  11  12
ENDBRANCH   9  11
ENDBRANCH   8   9
ENDBRANCH   1   8
BRANCH   5  18
HETATM   18  C13 UNL     1      19.649   2.153  51.841  1.00  0.00     0.012 A 
HETATM   19  C14 UNL     1      18.593   3.122  51.668  1.00  0.00     0.005 A 
HETATM   20  C15 UNL     1      18.808   2.102  50.625  1.00  0.00     0.086 A 
ENDBRANCH   5  18
TORSDOF 7
ENDMDL
