MODEL 1
REMARK VINA RESULT:      -9.1      0.000      0.000
REMARK  6 active torsions:
REMARK  status: ('A' for Active; 'I' for Inactive)
REMARK    1  A    between atoms: C4_4  and  C5_5 
REMARK    2  A    between atoms: C5_5  and  N1_6 
REMARK    3  A    between atoms: N1_6  and  C6_7 
REMARK    4  A    between atoms: C10_11  and  N2_12 
REMARK    5  A    between atoms: N2_12  and  C11_13 
REMARK    6  A    between atoms: C14_17  and  C15_18 
ROOT
HETATM    1  C6  UNL     1      27.536   2.034  52.692  1.00  0.00     0.030 A 
HETATM    2  C7  UNL     1      28.651   2.114  53.490  1.00  0.00     0.029 A 
HETATM    3  C8  UNL     1      28.935   1.244  54.518  1.00  0.00     0.004 A 
HETATM    4  C9  UNL     1      28.005   0.236  54.724  1.00  0.00     0.030 A 
HETATM    5  C10 UNL     1      26.868   0.078  53.979  1.00  0.00     0.051 A 
HETATM    6  C20 UNL     1      26.687   0.996  52.987  1.00  0.00     0.059 A 
ENDROOT
BRANCH   5   7
HETATM    7  N2  UNL     1      25.923  -0.933  54.178  1.00  0.00    -0.188 N 
HETATM    8  H10 UNL     1      26.276  -1.922  54.356  1.00  0.00     0.184 HD
BRANCH   7   9
HETATM    9  C11 UNL     1      24.511  -0.807  54.174  1.00  0.00     0.727 A 
HETATM   10  N3  UNL     1      23.647  -1.187  55.106  1.00  0.00    -0.075 NA
HETATM   11  C12 UNL     1      22.331  -1.067  55.100  1.00  0.00     0.139 A 
HETATM   12  C13 UNL     1      21.746  -0.478  54.005  1.00  0.00     0.053 A 
HETATM   13  C14 UNL     1      22.579  -0.056  52.996  1.00  0.00     0.089 A 
HETATM   14  N5  UNL     1      23.879  -0.241  53.135  1.00  0.00    -0.062 NA
BRANCH  13  15
HETATM   15  C15 UNL     1      22.098   0.584  51.777  1.00  0.00     0.011 A 
HETATM   16  C16 UNL     1      22.939   1.438  51.095  1.00  0.00     0.017 A 
HETATM   17  C17 UNL     1      22.493   2.060  49.927  1.00  0.00     0.020 A 
HETATM   18  C18 UNL     1      21.227   1.845  49.426  1.00  0.00     0.116 A 
HETATM   19  N4  UNL     1      20.414   0.996  50.118  1.00  0.00    -0.272 NA
HETATM   20  C19 UNL     1      20.843   0.397  51.246  1.00  0.00     0.130 A 
ENDBRANCH  13  15
ENDBRANCH   7   9
ENDBRANCH   5   7
BRANCH   1  21
HETATM   21  N1  UNL     1      27.212   2.915  51.638  1.00  0.00    -0.386 N 
HETATM   22  H6  UNL     1      27.714   3.854  51.618  1.00  0.00     0.160 HD
BRANCH  21  23
HETATM   23  C5  UNL     1      26.306   2.808  50.529  1.00  0.00     0.158 C 
BRANCH  23  24
HETATM   24  C4  UNL     1      26.095   4.068  49.780  1.00  0.00    -0.041 A 
HETATM   25  C3  UNL     1      27.296   4.539  49.228  1.00  0.00     0.009 A 
HETATM   26  C2  UNL     1      27.392   5.702  48.492  1.00  0.00     0.001 A 
HETATM   27  C1  UNL     1      26.285   6.461  48.264  1.00  0.00     0.000 A 
HETATM   28  C22 UNL     1      25.101   6.017  48.796  1.00  0.00     0.001 A 
HETATM   29  C21 UNL     1      24.997   4.859  49.533  1.00  0.00     0.009 A 
ENDBRANCH  23  24
ENDBRANCH  21  23
ENDBRANCH   1  21
TORSDOF 6
ENDMDL
MODEL 2
REMARK VINA RESULT:      -9.1      1.701      5.011
REMARK  6 active torsions:
REMARK  status: ('A' for Active; 'I' for Inactive)
REMARK    1  A    between atoms: C4_4  and  C5_5 
REMARK    2  A    between atoms: C5_5  and  N1_6 
REMARK    3  A    between atoms: N1_6  and  C6_7 
REMARK    4  A    between atoms: C10_11  and  N2_12 
REMARK    5  A    between atoms: N2_12  and  C11_13 
REMARK    6  A    between atoms: C14_17  and  C15_18 
ROOT
HETATM    1  C6  UNL     1      23.214   3.026  49.252  1.00  0.00     0.030 A 
HETATM    2  C7  UNL     1      22.656   2.269  48.250  1.00  0.00     0.029 A 
HETATM    3  C8  UNL     1      21.707   1.292  48.451  1.00  0.00     0.004 A 
HETATM    4  C9  UNL     1      21.320   1.094  49.768  1.00  0.00     0.030 A 
HETATM    5  C10 UNL     1      21.820   1.800  50.828  1.00  0.00     0.051 A 
HETATM    6  C20 UNL     1      22.754   2.743  50.514  1.00  0.00     0.059 A 
ENDROOT
BRANCH   5   7
HETATM    7  N2  UNL     1      21.439   1.610  52.160  1.00  0.00    -0.188 N 
HETATM    8  H10 UNL     1      20.667   2.228  52.554  1.00  0.00     0.184 HD
BRANCH   7   9
HETATM    9  C11 UNL     1      21.963   0.667  53.080  1.00  0.00     0.727 A 
HETATM   10  N3  UNL     1      21.302  -0.120  53.920  1.00  0.00    -0.075 NA
HETATM   11  C12 UNL     1      21.793  -0.998  54.776  1.00  0.00     0.139 A 
HETATM   12  C13 UNL     1      23.159  -1.144  54.833  1.00  0.00     0.053 A 
HETATM   13  C14 UNL     1      23.912  -0.361  53.991  1.00  0.00     0.089 A 
HETATM   14  N5  UNL     1      23.286   0.477  53.185  1.00  0.00    -0.062 NA
BRANCH  13  15
HETATM   15  C15 UNL     1      25.368  -0.409  53.943  1.00  0.00     0.011 A 
HETATM   16  C16 UNL     1      25.986  -0.792  52.772  1.00  0.00     0.017 A 
HETATM   17  C17 UNL     1      27.380  -0.844  52.710  1.00  0.00     0.020 A 
HETATM   18  C18 UNL     1      28.169  -0.520  53.795  1.00  0.00     0.116 A 
HETATM   19  N4  UNL     1      27.534  -0.145  54.942  1.00  0.00    -0.272 NA
HETATM   20  C19 UNL     1      26.189  -0.096  55.002  1.00  0.00     0.130 A 
ENDBRANCH  13  15
ENDBRANCH   7   9
ENDBRANCH   5   7
BRANCH   1  21
HETATM   21  N1  UNL     1      24.194   4.026  49.080  1.00  0.00    -0.386 N 
HETATM   22  H6  UNL     1      24.018   4.754  48.321  1.00  0.00     0.160 HD
BRANCH  21  23
HETATM   23  C5  UNL     1      25.440   4.288  49.745  1.00  0.00     0.158 C 
BRANCH  23  24
HETATM   24  C4  UNL     1      26.319   5.255  49.051  1.00  0.00    -0.041 A 
HETATM   25  C3  UNL     1      27.598   4.720  48.838  1.00  0.00     0.009 A 
HETATM   26  C2  UNL     1      28.622   5.411  48.224  1.00  0.00     0.001 A 
HETATM   27  C1  UNL     1      28.422   6.683  47.784  1.00  0.00     0.000 A 
HETATM   28  C22 UNL     1      27.177   7.226  47.983  1.00  0.00     0.001 A 
HETATM   29  C21 UNL     1      26.151   6.544  48.596  1.00  0.00     0.009 A 
ENDBRANCH  23  24
ENDBRANCH  21  23
ENDBRANCH   1  21
TORSDOF 6
ENDMDL
MODEL 3
REMARK VINA RESULT:      -9.0      1.688      6.128
REMARK  6 active torsions:
REMARK  status: ('A' for Active; 'I' for Inactive)
REMARK    1  A    between atoms: C4_4  and  C5_5 
REMARK    2  A    between atoms: C5_5  and  N1_6 
REMARK    3  A    between atoms: N1_6  and  C6_7 
REMARK    4  A    between atoms: C10_11  and  N2_12 
REMARK    5  A    between atoms: N2_12  and  C11_13 
REMARK    6  A    between atoms: C14_17  and  C15_18 
ROOT
HETATM    1  C6  UNL     1      23.778  -0.584  53.913  1.00  0.00     0.030 A 
HETATM    2  C7  UNL     1      22.742  -0.940  54.741  1.00  0.00     0.029 A 
HETATM    3  C8  UNL     1      21.446  -0.498  54.599  1.00  0.00     0.004 A 
HETATM    4  C9  UNL     1      21.220   0.364  53.536  1.00  0.00     0.030 A 
HETATM    5  C10 UNL     1      22.190   0.772  52.661  1.00  0.00     0.051 A 
HETATM    6  C20 UNL     1      23.437   0.271  52.895  1.00  0.00     0.059 A 
ENDROOT
BRANCH   5   7
HETATM    7  N2  UNL     1      21.975   1.640  51.586  1.00  0.00    -0.188 N 
HETATM    8  H10 UNL     1      21.451   1.267  50.737  1.00  0.00     0.184 HD
BRANCH   7   9
HETATM    9  C11 UNL     1      22.375   2.995  51.479  1.00  0.00     0.727 A 
HETATM   10  N3  UNL     1      21.754   4.077  51.933  1.00  0.00    -0.075 NA
HETATM   11  C12 UNL     1      22.130   5.339  51.832  1.00  0.00     0.139 A 
HETATM   12  C13 UNL     1      23.311   5.607  51.182  1.00  0.00     0.053 A 
HETATM   13  C14 UNL     1      24.013   4.536  50.683  1.00  0.00     0.089 A 
HETATM   14  N5  UNL     1      23.516   3.324  50.856  1.00  0.00    -0.062 NA
BRANCH  13  15
HETATM   15  C15 UNL     1      25.277   4.670  49.971  1.00  0.00     0.011 A 
HETATM   16  C16 UNL     1      25.581   5.873  49.370  1.00  0.00     0.017 A 
HETATM   17  C17 UNL     1      26.789   6.017  48.683  1.00  0.00     0.020 A 
HETATM   18  C18 UNL     1      27.698   4.985  48.586  1.00  0.00     0.116 A 
HETATM   19  N4  UNL     1      27.374   3.805  49.189  1.00  0.00    -0.272 NA
HETATM   20  C19 UNL     1      26.210   3.664  49.850  1.00  0.00     0.130 A 
ENDBRANCH  13  15
ENDBRANCH   7   9
ENDBRANCH   5   7
BRANCH   1  21
HETATM   21  N1  UNL     1      25.117  -1.013  54.038  1.00  0.00    -0.386 N 
HETATM   22  H6  UNL     1      25.400  -1.460  54.963  1.00  0.00     0.160 HD
BRANCH  21  23
HETATM   23  C5  UNL     1      26.235  -0.975  53.137  1.00  0.00     0.158 C 
BRANCH  23  24
HETATM   24  C4  UNL     1      27.259   0.042  53.467  1.00  0.00    -0.041 A 
HETATM   25  C3  UNL     1      26.969   1.273  52.859  1.00  0.00     0.009 A 
HETATM   26  C2  UNL     1      27.765   2.393  52.986  1.00  0.00     0.001 A 
HETATM   27  C1  UNL     1      28.901   2.344  53.734  1.00  0.00     0.000 A 
HETATM   28  C22 UNL     1      29.203   1.148  54.337  1.00  0.00     0.001 A 
HETATM   29  C21 UNL     1      28.415   0.026  54.214  1.00  0.00     0.009 A 
ENDBRANCH  23  24
ENDBRANCH  21  23
ENDBRANCH   1  21
TORSDOF 6
ENDMDL
MODEL 4
REMARK VINA RESULT:      -9.0      3.476      6.833
REMARK  6 active torsions:
REMARK  status: ('A' for Active; 'I' for Inactive)
REMARK    1  A    between atoms: C4_4  and  C5_5 
REMARK    2  A    between atoms: C5_5  and  N1_6 
REMARK    3  A    between atoms: N1_6  and  C6_7 
REMARK    4  A    between atoms: C10_11  and  N2_12 
REMARK    5  A    between atoms: N2_12  and  C11_13 
REMARK    6  A    between atoms: C14_17  and  C15_18 
ROOT
HETATM    1  C6  UNL     1      28.587   5.780  48.279  1.00  0.00     0.030 A 
HETATM    2  C7  UNL     1      27.933   6.986  48.354  1.00  0.00     0.029 A 
HETATM    3  C8  UNL     1      26.633   7.141  48.778  1.00  0.00     0.004 A 
HETATM    4  C9  UNL     1      25.980   5.973  49.145  1.00  0.00     0.030 A 
HETATM    5  C10 UNL     1      26.551   4.730  49.104  1.00  0.00     0.051 A 
HETATM    6  C20 UNL     1      27.843   4.694  48.668  1.00  0.00     0.059 A 
ENDROOT
BRANCH   5   7
HETATM    7  N2  UNL     1      25.902   3.547  49.470  1.00  0.00    -0.188 N 
HETATM    8  H10 UNL     1      25.519   2.925  48.696  1.00  0.00     0.184 HD
BRANCH   7   9
HETATM    9  C11 UNL     1      25.685   3.053  50.781  1.00  0.00     0.727 A 
HETATM   10  N3  UNL     1      24.705   3.355  51.624  1.00  0.00    -0.075 NA
HETATM   11  C12 UNL     1      24.506   2.893  52.845  1.00  0.00     0.139 A 
HETATM   12  C13 UNL     1      25.405   1.980  53.341  1.00  0.00     0.053 A 
HETATM   13  C14 UNL     1      26.449   1.616  52.524  1.00  0.00     0.089 A 
HETATM   14  N5  UNL     1      26.526   2.161  51.323  1.00  0.00    -0.062 NA
BRANCH  13  15
HETATM   15  C15 UNL     1      27.477   0.661  52.917  1.00  0.00     0.011 A 
HETATM   16  C16 UNL     1      28.714   1.132  53.305  1.00  0.00     0.017 A 
HETATM   17  C17 UNL     1      29.710   0.229  53.684  1.00  0.00     0.020 A 
HETATM   18  C18 UNL     1      29.496  -1.133  53.684  1.00  0.00     0.116 A 
HETATM   19  N4  UNL     1      28.265  -1.574  53.295  1.00  0.00    -0.272 NA
HETATM   20  C19 UNL     1      27.304  -0.705  52.929  1.00  0.00     0.130 A 
ENDBRANCH  13  15
ENDBRANCH   7   9
ENDBRANCH   5   7
BRANCH   1  21
HETATM   21  N1  UNL     1      29.914   5.588  47.840  1.00  0.00    -0.386 N 
HETATM   22  H6  UNL     1      30.050   5.210  46.852  1.00  0.00     0.160 HD
BRANCH  21  23
HETATM   23  C5  UNL     1      31.186   5.807  48.470  1.00  0.00     0.158 C 
BRANCH  23  24
HETATM   24  C4  UNL     1      32.282   4.951  47.964  1.00  0.00    -0.041 A 
HETATM   25  C3  UNL     1      31.789   3.922  47.147  1.00  0.00     0.009 A 
HETATM   26  C2  UNL     1      32.591   2.970  46.552  1.00  0.00     0.001 A 
HETATM   27  C1  UNL     1      33.939   2.995  46.742  1.00  0.00     0.000 A 
HETATM   28  C22 UNL     1      34.441   3.994  47.539  1.00  0.00     0.001 A 
HETATM   29  C21 UNL     1      33.648   4.946  48.136  1.00  0.00     0.009 A 
ENDBRANCH  23  24
ENDBRANCH  21  23
ENDBRANCH   1  21
TORSDOF 6
ENDMDL
MODEL 5
REMARK VINA RESULT:      -8.8      1.652      5.676
REMARK  6 active torsions:
REMARK  status: ('A' for Active; 'I' for Inactive)
REMARK    1  A    between atoms: C4_4  and  C5_5 
REMARK    2  A    between atoms: C5_5  and  N1_6 
REMARK    3  A    between atoms: N1_6  and  C6_7 
REMARK    4  A    between atoms: C10_11  and  N2_12 
REMARK    5  A    between atoms: N2_12  and  C11_13 
REMARK    6  A    between atoms: C14_17  and  C15_18 
ROOT
HETATM    1  C6  UNL     1      25.481   3.401  50.645  1.00  0.00     0.030 A 
HETATM    2  C7  UNL     1      25.534   4.654  50.084  1.00  0.00     0.029 A 
HETATM    3  C8  UNL     1      24.638   5.128  49.153  1.00  0.00     0.004 A 
HETATM    4  C9  UNL     1      23.632   4.246  48.787  1.00  0.00     0.030 A 
HETATM    5  C10 UNL     1      23.500   2.982  49.293  1.00  0.00     0.051 A 
HETATM    6  C20 UNL     1      24.442   2.616  50.208  1.00  0.00     0.059 A 
ENDROOT
BRANCH   5   7
HETATM    7  N2  UNL     1      22.491   2.084  48.931  1.00  0.00    -0.188 N 
HETATM    8  H10 UNL     1      22.428   1.783  47.912  1.00  0.00     0.184 HD
BRANCH   7   9
HETATM    9  C11 UNL     1      21.511   1.503  49.775  1.00  0.00     0.727 A 
HETATM   10  N3  UNL     1      20.195   1.463  49.604  1.00  0.00    -0.075 NA
HETATM   11  C12 UNL     1      19.285   0.920  50.393  1.00  0.00     0.139 A 
HETATM   12  C13 UNL     1      19.716   0.309  51.546  1.00  0.00     0.053 A 
HETATM   13  C14 UNL     1      21.068   0.310  51.791  1.00  0.00     0.089 A 
HETATM   14  N5  UNL     1      21.866   0.892  50.915  1.00  0.00    -0.062 NA
BRANCH  13  15
HETATM   15  C15 UNL     1      21.667  -0.299  52.973  1.00  0.00     0.011 A 
HETATM   16  C16 UNL     1      23.020  -0.147  53.190  1.00  0.00     0.017 A 
HETATM   17  C17 UNL     1      23.609  -0.725  54.317  1.00  0.00     0.020 A 
HETATM   18  C18 UNL     1      22.874  -1.450  55.231  1.00  0.00     0.116 A 
HETATM   19  N4  UNL     1      21.537  -1.585  54.994  1.00  0.00    -0.272 NA
HETATM   20  C19 UNL     1      20.969  -1.029  53.907  1.00  0.00     0.130 A 
ENDBRANCH  13  15
ENDBRANCH   7   9
ENDBRANCH   5   7
BRANCH   1  21
HETATM   21  N1  UNL     1      26.389   2.883  51.593  1.00  0.00    -0.386 N 
HETATM   22  H6  UNL     1      27.426   3.041  51.410  1.00  0.00     0.160 HD
BRANCH  21  23
HETATM   23  C5  UNL     1      26.202   2.154  52.817  1.00  0.00     0.158 C 
BRANCH  23  24
HETATM   24  C4  UNL     1      27.062   0.958  52.960  1.00  0.00    -0.041 A 
HETATM   25  C3  UNL     1      28.318   1.294  53.488  1.00  0.00     0.009 A 
HETATM   26  C2  UNL     1      29.321   0.374  53.714  1.00  0.00     0.001 A 
HETATM   27  C1  UNL     1      29.122  -0.941  53.423  1.00  0.00     0.000 A 
HETATM   28  C22 UNL     1      27.899  -1.290  52.905  1.00  0.00     0.001 A 
HETATM   29  C21 UNL     1      26.895  -0.378  52.676  1.00  0.00     0.009 A 
ENDBRANCH  23  24
ENDBRANCH  21  23
ENDBRANCH   1  21
TORSDOF 6
ENDMDL
MODEL 6
REMARK VINA RESULT:      -8.7      1.838      5.058
REMARK  6 active torsions:
REMARK  status: ('A' for Active; 'I' for Inactive)
REMARK    1  A    between atoms: C4_4  and  C5_5 
REMARK    2  A    between atoms: C5_5  and  N1_6 
REMARK    3  A    between atoms: N1_6  and  C6_7 
REMARK    4  A    between atoms: C10_11  and  N2_12 
REMARK    5  A    between atoms: N2_12  and  C11_13 
REMARK    6  A    between atoms: C14_17  and  C15_18 
ROOT
HETATM    1  C6  UNL     1      24.391   4.851  50.777  1.00  0.00     0.030 A 
HETATM    2  C7  UNL     1      23.449   5.786  51.134  1.00  0.00     0.029 A 
HETATM    3  C8  UNL     1      22.175   5.484  51.557  1.00  0.00     0.004 A 
HETATM    4  C9  UNL     1      21.865   4.133  51.609  1.00  0.00     0.030 A 
HETATM    5  C10 UNL     1      22.738   3.134  51.273  1.00  0.00     0.051 A 
HETATM    6  C20 UNL     1      23.973   3.547  50.869  1.00  0.00     0.059 A 
ENDROOT
BRANCH   5   7
HETATM    7  N2  UNL     1      22.437   1.769  51.322  1.00  0.00    -0.188 N 
HETATM    8  H10 UNL     1      21.883   1.349  50.516  1.00  0.00     0.184 HD
BRANCH   7   9
HETATM    9  C11 UNL     1      22.789   0.844  52.337  1.00  0.00     0.727 A 
HETATM   10  N3  UNL     1      21.990   0.067  53.057  1.00  0.00    -0.075 NA
HETATM   11  C12 UNL     1      22.322  -0.794  54.002  1.00  0.00     0.139 A 
HETATM   12  C13 UNL     1      23.655  -0.932  54.306  1.00  0.00     0.053 A 
HETATM   13  C14 UNL     1      24.546  -0.159  53.600  1.00  0.00     0.089 A 
HETATM   14  N5  UNL     1      24.073   0.663  52.681  1.00  0.00    -0.062 NA
BRANCH  13  15
HETATM   15  C15 UNL     1      25.987  -0.199  53.816  1.00  0.00     0.011 A 
HETATM   16  C16 UNL     1      26.770  -0.943  52.960  1.00  0.00     0.017 A 
HETATM   17  C17 UNL     1      28.152  -0.992  53.154  1.00  0.00     0.020 A 
HETATM   18  C18 UNL     1      28.767  -0.313  54.185  1.00  0.00     0.116 A 
HETATM   19  N4  UNL     1      27.970   0.415  55.019  1.00  0.00    -0.272 NA
HETATM   20  C19 UNL     1      26.637   0.463  54.833  1.00  0.00     0.130 A 
ENDBRANCH  13  15
ENDBRANCH   7   9
ENDBRANCH   5   7
BRANCH   1  21
HETATM   21  N1  UNL     1      25.700   5.130  50.332  1.00  0.00    -0.386 N 
HETATM   22  H6  UNL     1      26.211   5.940  50.799  1.00  0.00     0.160 HD
BRANCH  21  23
HETATM   23  C5  UNL     1      26.535   4.520  49.335  1.00  0.00     0.158 C 
BRANCH  23  24
HETATM   24  C4  UNL     1      27.443   5.455  48.634  1.00  0.00    -0.041 A 
HETATM   25  C3  UNL     1      26.768   6.620  48.237  1.00  0.00     0.009 A 
HETATM   26  C2  UNL     1      27.370   7.655  47.552  1.00  0.00     0.001 A 
HETATM   27  C1  UNL     1      28.689   7.583  47.224  1.00  0.00     0.000 A 
HETATM   28  C22 UNL     1      29.367   6.452  47.604  1.00  0.00     0.001 A 
HETATM   29  C21 UNL     1      28.774   5.415  48.286  1.00  0.00     0.009 A 
ENDBRANCH  23  24
ENDBRANCH  21  23
ENDBRANCH   1  21
TORSDOF 6
ENDMDL
MODEL 7
REMARK VINA RESULT:      -8.6      1.842      6.477
REMARK  6 active torsions:
REMARK  status: ('A' for Active; 'I' for Inactive)
REMARK    1  A    between atoms: C4_4  and  C5_5 
REMARK    2  A    between atoms: C5_5  and  N1_6 
REMARK    3  A    between atoms: N1_6  and  C6_7 
REMARK    4  A    between atoms: C10_11  and  N2_12 
REMARK    5  A    between atoms: N2_12  and  C11_13 
REMARK    6  A    between atoms: C14_17  and  C15_18 
ROOT
HETATM    1  C6  UNL     1      23.624  -0.329  53.651  1.00  0.00     0.030 A 
HETATM    2  C7  UNL     1      22.852  -0.879  54.646  1.00  0.00     0.029 A 
HETATM    3  C8  UNL     1      21.515  -0.610  54.830  1.00  0.00     0.004 A 
HETATM    4  C9  UNL     1      20.953   0.281  53.927  1.00  0.00     0.030 A 
HETATM    5  C10 UNL     1      21.644   0.876  52.906  1.00  0.00     0.051 A 
HETATM    6  C20 UNL     1      22.962   0.537  52.817  1.00  0.00     0.059 A 
ENDROOT
BRANCH   5   7
HETATM    7  N2  UNL     1      21.089   1.776  51.991  1.00  0.00    -0.188 N 
HETATM    8  H10 UNL     1      20.265   2.370  52.308  1.00  0.00     0.184 HD
BRANCH   7   9
HETATM    9  C11 UNL     1      21.498   2.006  50.653  1.00  0.00     0.727 A 
HETATM   10  N3  UNL     1      20.960   1.536  49.535  1.00  0.00    -0.075 NA
HETATM   11  C12 UNL     1      21.343   1.753  48.289  1.00  0.00     0.139 A 
HETATM   12  C13 UNL     1      22.433   2.564  48.085  1.00  0.00     0.053 A 
HETATM   13  C14 UNL     1      23.045   3.090  49.198  1.00  0.00     0.089 A 
HETATM   14  N5  UNL     1      22.554   2.787  50.386  1.00  0.00    -0.062 NA
BRANCH  13  15
HETATM   15  C15 UNL     1      24.210   3.964  49.133  1.00  0.00     0.011 A 
HETATM   16  C16 UNL     1      25.445   3.457  49.477  1.00  0.00     0.017 A 
HETATM   17  C17 UNL     1      26.571   4.282  49.420  1.00  0.00     0.020 A 
HETATM   18  C18 UNL     1      26.487   5.601  49.028  1.00  0.00     0.116 A 
HETATM   19  N4  UNL     1      25.254   6.079  48.693  1.00  0.00    -0.272 NA
HETATM   20  C19 UNL     1      24.168   5.285  48.748  1.00  0.00     0.130 A 
ENDBRANCH  13  15
ENDBRANCH   7   9
ENDBRANCH   5   7
BRANCH   1  21
HETATM   21  N1  UNL     1      24.998  -0.577  53.443  1.00  0.00    -0.386 N 
HETATM   22  H6  UNL     1      25.306  -1.596  53.394  1.00  0.00     0.160 HD
BRANCH  21  23
HETATM   23  C5  UNL     1      26.126   0.296  53.272  1.00  0.00     0.158 C 
BRANCH  23  24
HETATM   24  C4  UNL     1      27.442  -0.378  53.327  1.00  0.00    -0.041 A 
HETATM   25  C3  UNL     1      27.335  -1.734  52.981  1.00  0.00     0.009 A 
HETATM   26  C2  UNL     1      28.407  -2.603  52.962  1.00  0.00     0.001 A 
HETATM   27  C1  UNL     1      29.652  -2.161  53.289  1.00  0.00     0.000 A 
HETATM   28  C22 UNL     1      29.777  -0.838  53.632  1.00  0.00     0.001 A 
HETATM   29  C21 UNL     1      28.714   0.035  53.654  1.00  0.00     0.009 A 
ENDBRANCH  23  24
ENDBRANCH  21  23
ENDBRANCH   1  21
TORSDOF 6
ENDMDL
MODEL 8
REMARK VINA RESULT:      -8.4      2.800      7.892
REMARK  6 active torsions:
REMARK  status: ('A' for Active; 'I' for Inactive)
REMARK    1  A    between atoms: C4_4  and  C5_5 
REMARK    2  A    between atoms: C5_5  and  N1_6 
REMARK    3  A    between atoms: N1_6  and  C6_7 
REMARK    4  A    between atoms: C10_11  and  N2_12 
REMARK    5  A    between atoms: N2_12  and  C11_13 
REMARK    6  A    between atoms: C14_17  and  C15_18 
ROOT
HETATM    1  C6  UNL     1      24.224   1.798  52.591  1.00  0.00     0.030 A 
HETATM    2  C7  UNL     1      23.294   1.360  51.680  1.00  0.00     0.029 A 
HETATM    3  C8  UNL     1      22.496   2.189  50.924  1.00  0.00     0.004 A 
HETATM    4  C9  UNL     1      22.678   3.548  51.131  1.00  0.00     0.030 A 
HETATM    5  C10 UNL     1      23.580   4.075  52.016  1.00  0.00     0.051 A 
HETATM    6  C20 UNL     1      24.318   3.162  52.711  1.00  0.00     0.059 A 
ENDROOT
BRANCH   5   7
HETATM    7  N2  UNL     1      23.772   5.442  52.234  1.00  0.00    -0.188 N 
HETATM    8  H10 UNL     1      23.782   5.794  53.239  1.00  0.00     0.184 HD
BRANCH   7   9
HETATM    9  C11 UNL     1      23.964   6.452  51.258  1.00  0.00     0.727 A 
HETATM   10  N3  UNL     1      23.090   7.348  50.816  1.00  0.00    -0.075 NA
HETATM   11  C12 UNL     1      23.271   8.288  49.906  1.00  0.00     0.139 A 
HETATM   12  C13 UNL     1      24.511   8.383  49.319  1.00  0.00     0.053 A 
HETATM   13  C14 UNL     1      25.471   7.487  49.727  1.00  0.00     0.089 A 
HETATM   14  N5  UNL     1      25.149   6.597  50.648  1.00  0.00    -0.062 NA
BRANCH  13  15
HETATM   15  C15 UNL     1      26.827   7.470  49.192  1.00  0.00     0.011 A 
HETATM   16  C16 UNL     1      27.263   6.352  48.513  1.00  0.00     0.017 A 
HETATM   17  C17 UNL     1      28.559   6.319  47.995  1.00  0.00     0.020 A 
HETATM   18  C18 UNL     1      29.429   7.380  48.142  1.00  0.00     0.116 A 
HETATM   19  N4  UNL     1      28.974   8.474  48.818  1.00  0.00    -0.272 NA
HETATM   20  C19 UNL     1      27.724   8.506  49.318  1.00  0.00     0.130 A 
ENDBRANCH  13  15
ENDBRANCH   7   9
ENDBRANCH   5   7
BRANCH   1  21
HETATM   21  N1  UNL     1      25.049   0.975  53.387  1.00  0.00    -0.386 N 
HETATM   22  H6  UNL     1      25.229   1.289  54.389  1.00  0.00     0.160 HD
BRANCH  21  23
HETATM   23  C5  UNL     1      25.730  -0.261  53.121  1.00  0.00     0.158 C 
BRANCH  23  24
HETATM   24  C4  UNL     1      27.196  -0.214  53.320  1.00  0.00    -0.041 A 
HETATM   25  C3  UNL     1      27.789  -1.455  53.041  1.00  0.00     0.009 A 
HETATM   26  C2  UNL     1      29.142  -1.698  53.158  1.00  0.00     0.001 A 
HETATM   27  C1  UNL     1      29.983  -0.706  53.561  1.00  0.00     0.000 A 
HETATM   28  C22 UNL     1      29.422   0.516  53.839  1.00  0.00     0.001 A 
HETATM   29  C21 UNL     1      28.074   0.765  53.727  1.00  0.00     0.009 A 
ENDBRANCH  23  24
ENDBRANCH  21  23
ENDBRANCH   1  21
TORSDOF 6
ENDMDL
MODEL 9
REMARK VINA RESULT:      -8.3      3.487      5.993
REMARK  6 active torsions:
REMARK  status: ('A' for Active; 'I' for Inactive)
REMARK    1  A    between atoms: C4_4  and  C5_5 
REMARK    2  A    between atoms: C5_5  and  N1_6 
REMARK    3  A    between atoms: N1_6  and  C6_7 
REMARK    4  A    between atoms: C10_11  and  N2_12 
REMARK    5  A    between atoms: N2_12  and  C11_13 
REMARK    6  A    between atoms: C14_17  and  C15_18 
ROOT
HETATM    1  C6  UNL     1      28.718   6.187  48.086  1.00  0.00     0.030 A 
HETATM    2  C7  UNL     1      27.741   7.153  48.085  1.00  0.00     0.029 A 
HETATM    3  C8  UNL     1      26.440   6.944  48.479  1.00  0.00     0.004 A 
HETATM    4  C9  UNL     1      26.140   5.656  48.897  1.00  0.00     0.030 A 
HETATM    5  C10 UNL     1      27.047   4.631  48.932  1.00  0.00     0.051 A 
HETATM    6  C20 UNL     1      28.307   4.951  48.520  1.00  0.00     0.059 A 
ENDROOT
BRANCH   5   7
HETATM    7  N2  UNL     1      26.757   3.329  49.351  1.00  0.00    -0.188 N 
HETATM    8  H10 UNL     1      26.800   2.548  48.628  1.00  0.00     0.184 HD
BRANCH   7   9
HETATM    9  C11 UNL     1      26.405   2.901  50.656  1.00  0.00     0.727 A 
HETATM   10  N3  UNL     1      27.208   2.561  51.656  1.00  0.00    -0.075 NA
HETATM   11  C12 UNL     1      26.876   2.163  52.871  1.00  0.00     0.139 A 
HETATM   12  C13 UNL     1      25.539   2.079  53.177  1.00  0.00     0.053 A 
HETATM   13  C14 UNL     1      24.645   2.417  52.189  1.00  0.00     0.089 A 
HETATM   14  N5  UNL     1      25.118   2.797  51.017  1.00  0.00    -0.062 NA
BRANCH  13  15
HETATM   15  C15 UNL     1      23.199   2.374  52.371  1.00  0.00     0.011 A 
HETATM   16  C16 UNL     1      22.614   1.201  52.798  1.00  0.00     0.017 A 
HETATM   17  C17 UNL     1      21.230   1.143  52.976  1.00  0.00     0.020 A 
HETATM   18  C18 UNL     1      20.419   2.233  52.736  1.00  0.00     0.116 A 
HETATM   19  N4  UNL     1      21.022   3.382  52.314  1.00  0.00    -0.272 NA
HETATM   20  C19 UNL     1      22.357   3.438  52.142  1.00  0.00     0.130 A 
ENDBRANCH  13  15
ENDBRANCH   7   9
ENDBRANCH   5   7
BRANCH   1  21
HETATM   21  N1  UNL     1      30.057   6.368  47.678  1.00  0.00    -0.386 N 
HETATM   22  H6  UNL     1      30.219   6.815  46.725  1.00  0.00     0.160 HD
BRANCH  21  23
HETATM   23  C5  UNL     1      31.311   6.065  48.309  1.00  0.00     0.158 C 
BRANCH  23  24
HETATM   24  C4  UNL     1      32.014   4.887  47.753  1.00  0.00    -0.041 A 
HETATM   25  C3  UNL     1      33.387   4.931  48.037  1.00  0.00     0.009 A 
HETATM   26  C2  UNL     1      34.283   3.966  47.626  1.00  0.00     0.001 A 
HETATM   27  C1  UNL     1      33.852   2.895  46.904  1.00  0.00     0.000 A 
HETATM   28  C22 UNL     1      32.511   2.834  46.615  1.00  0.00     0.001 A 
HETATM   29  C21 UNL     1      31.612   3.793  47.020  1.00  0.00     0.009 A 
ENDBRANCH  23  24
ENDBRANCH  21  23
ENDBRANCH   1  21
TORSDOF 6
ENDMDL
