MODEL 1
REMARK VINA RESULT:      -7.1      0.000      0.000
REMARK  6 active torsions:
REMARK  status: ('A' for Active; 'I' for Inactive)
REMARK    1  A    between atoms: C2_2  and  C3_3 
REMARK    2  A    between atoms: C3_3  and  C4_4 
REMARK    3  A    between atoms: C5_5  and  N1_6 
REMARK       I    between atoms: N1_6  and  C6_7 
REMARK    4  A    between atoms: C6_7  and  C7_9 
REMARK    5  A    between atoms: N2_13  and  C11_14 
REMARK    6  A    between atoms: C11_14  and  C12_15 
ROOT
HETATM    1  C7  UNL     1      23.367  -0.138  53.517  1.00  0.00     0.032 C 
HETATM    2  C8  UNL     1      24.191  -0.655  54.410  1.00  0.00     0.018 C 
HETATM    3  C9  UNL     1      25.527  -0.437  54.865  1.00  0.00     0.018 C 
HETATM    4  C10 UNL     1      26.680   0.246  54.809  1.00  0.00     0.085 C 
HETATM    5  N2  UNL     1      26.979   1.368  53.944  1.00  0.00    -0.387 N 
HETATM    6  C13 UNL     1      25.706   1.995  53.551  1.00  0.00     0.146 C 
HETATM    7  C14 UNL     1      25.519   1.669  52.108  1.00  0.00     0.123 C 
HETATM    8 CL2  UNL     1      26.623   2.575  51.083  1.00  0.00    -0.119 Cl
HETATM    9  C15 UNL     1      24.121   1.640  51.713  1.00  0.00    -0.004 C 
HETATM   10  C16 UNL     1      23.447   0.817  52.444  1.00  0.00     0.014 C 
ENDROOT
BRANCH   1  11
HETATM   11  C6  UNL     1      22.089  -0.859  53.588  1.00  0.00     0.255 C 
HETATM   12  N1  UNL     1      20.853  -0.354  53.161  1.00  0.00    -0.333 N 
HETATM   13  H8  UNL     1      20.773   0.588  52.774  1.00  0.00     0.168 HD
HETATM   14  O1  UNL     1      21.762  -2.020  53.993  1.00  0.00    -0.267 OA
BRANCH  12  15
HETATM   15  C5  UNL     1      19.541  -0.823  53.110  1.00  0.00     0.087 C 
HETATM   16  C4  UNL     1      18.500  -0.501  52.321  1.00  0.00    -0.004 C 
BRANCH  16  17
HETATM   17  C3  UNL     1      17.405  -1.338  52.761  1.00  0.00     0.021 C 
BRANCH  17  18
HETATM   18  C2  UNL     1      16.528  -2.223  53.035  1.00  0.00    -0.006 C 
HETATM   19  C1  UNL     1      17.062  -3.542  53.437  1.00  0.00     0.011 C 
ENDBRANCH  17  18
ENDBRANCH  16  17
ENDBRANCH  12  15
ENDBRANCH   1  11
BRANCH   5  20
HETATM   20  C11 UNL     1      28.292   1.764  53.510  1.00  0.00     0.137 C 
BRANCH  20  21
HETATM   21  C12 UNL     1      29.435   1.115  54.210  1.00  0.00     0.134 C 
HETATM   22 CL1  UNL     1      29.900  -0.419  53.452  1.00  0.00    -0.129 Cl
ENDBRANCH  20  21
ENDBRANCH   5  20
TORSDOF 6
ENDMDL
MODEL 2
REMARK VINA RESULT:      -6.8      5.028      9.019
REMARK  6 active torsions:
REMARK  status: ('A' for Active; 'I' for Inactive)
REMARK    1  A    between atoms: C2_2  and  C3_3 
REMARK    2  A    between atoms: C3_3  and  C4_4 
REMARK    3  A    between atoms: C5_5  and  N1_6 
REMARK       I    between atoms: N1_6  and  C6_7 
REMARK    4  A    between atoms: C6_7  and  C7_9 
REMARK    5  A    between atoms: N2_13  and  C11_14 
REMARK    6  A    between atoms: C11_14  and  C12_15 
ROOT
HETATM    1  C7  UNL     1      25.312   3.127  50.516  1.00  0.00     0.032 C 
HETATM    2  C8  UNL     1      24.016   2.960  50.322  1.00  0.00     0.018 C 
HETATM    3  C9  UNL     1      22.969   2.138  50.838  1.00  0.00     0.018 C 
HETATM    4  C10 UNL     1      22.545   1.177  51.673  1.00  0.00     0.085 C 
HETATM    5  N2  UNL     1      23.348   0.456  52.640  1.00  0.00    -0.387 N 
HETATM    6  C13 UNL     1      24.524   1.281  52.964  1.00  0.00     0.146 C 
HETATM    7  C14 UNL     1      25.689   0.594  52.338  1.00  0.00     0.123 C 
HETATM    8 CL2  UNL     1      26.117  -0.882  53.193  1.00  0.00    -0.119 Cl
HETATM    9  C15 UNL     1      26.771   1.505  52.007  1.00  0.00    -0.004 C 
HETATM   10  C16 UNL     1      26.359   2.460  51.243  1.00  0.00     0.014 C 
ENDROOT
BRANCH   1  11
HETATM   11  C6  UNL     1      25.784   4.196  49.626  1.00  0.00     0.255 C 
HETATM   12  N1  UNL     1      27.128   4.491  49.360  1.00  0.00    -0.333 N 
HETATM   13  H8  UNL     1      27.881   3.961  49.802  1.00  0.00     0.168 HD
HETATM   14  O1  UNL     1      25.188   5.060  48.905  1.00  0.00    -0.267 OA
BRANCH  12  15
HETATM   15  C5  UNL     1      27.817   5.413  48.573  1.00  0.00     0.087 C 
HETATM   16  C4  UNL     1      29.120   5.537  48.264  1.00  0.00    -0.004 C 
BRANCH  16  17
HETATM   17  C3  UNL     1      29.208   6.698  47.406  1.00  0.00     0.021 C 
BRANCH  17  18
HETATM   18  C2  UNL     1      29.469   7.751  46.736  1.00  0.00    -0.006 C 
HETATM   19  C1  UNL     1      28.378   8.232  45.861  1.00  0.00     0.011 C 
ENDBRANCH  17  18
ENDBRANCH  16  17
ENDBRANCH  12  15
ENDBRANCH   1  11
BRANCH   5  20
HETATM   20  C11 UNL     1      23.063  -0.857  53.150  1.00  0.00     0.137 C 
BRANCH  20  21
HETATM   21  C12 UNL     1      22.552  -0.920  54.547  1.00  0.00     0.134 C 
HETATM   22 CL1  UNL     1      21.111   0.089  54.778  1.00  0.00    -0.129 Cl
ENDBRANCH  20  21
ENDBRANCH   5  20
TORSDOF 6
ENDMDL
MODEL 3
REMARK VINA RESULT:      -6.8      3.956      8.220
REMARK  6 active torsions:
REMARK  status: ('A' for Active; 'I' for Inactive)
REMARK    1  A    between atoms: C2_2  and  C3_3 
REMARK    2  A    between atoms: C3_3  and  C4_4 
REMARK    3  A    between atoms: C5_5  and  N1_6 
REMARK       I    between atoms: N1_6  and  C6_7 
REMARK    4  A    between atoms: C6_7  and  C7_9 
REMARK    5  A    between atoms: N2_13  and  C11_14 
REMARK    6  A    between atoms: C11_14  and  C12_15 
ROOT
HETATM    1  C7  UNL     1      22.985  -0.200  53.499  1.00  0.00     0.032 C 
HETATM    2  C8  UNL     1      23.072   0.733  52.568  1.00  0.00     0.018 C 
HETATM    3  C9  UNL     1      22.182   1.549  51.805  1.00  0.00     0.018 C 
HETATM    4  C10 UNL     1      20.937   1.943  51.496  1.00  0.00     0.085 C 
HETATM    5  N2  UNL     1      19.706   1.457  52.085  1.00  0.00    -0.387 N 
HETATM    6  C13 UNL     1      20.020   0.906  53.413  1.00  0.00     0.146 C 
HETATM    7  C14 UNL     1      19.871  -0.572  53.287  1.00  0.00     0.123 C 
HETATM    8 CL2  UNL     1      18.185  -1.053  53.158  1.00  0.00    -0.119 Cl
HETATM    9  C15 UNL     1      20.699  -1.306  54.229  1.00  0.00    -0.004 C 
HETATM   10  C16 UNL     1      21.941  -0.974  54.114  1.00  0.00     0.014 C 
ENDROOT
BRANCH   1  11
HETATM   11  C6  UNL     1      24.344  -0.620  53.867  1.00  0.00     0.255 C 
HETATM   12  N1  UNL     1      25.426  -0.718  52.981  1.00  0.00    -0.333 N 
HETATM   13  H8  UNL     1      25.316  -0.505  51.989  1.00  0.00     0.168 HD
HETATM   14  O1  UNL     1      24.884  -0.963  54.967  1.00  0.00    -0.267 OA
BRANCH  12  15
HETATM   15  C5  UNL     1      26.772  -1.069  53.077  1.00  0.00     0.087 C 
HETATM   16  C4  UNL     1      27.444  -2.171  52.700  1.00  0.00    -0.004 C 
BRANCH  16  17
HETATM   17  C3  UNL     1      28.821  -1.934  53.072  1.00  0.00     0.021 C 
BRANCH  17  18
HETATM   18  C2  UNL     1      29.960  -1.581  53.525  1.00  0.00    -0.006 C 
HETATM   19  C1  UNL     1      30.199  -0.122  53.573  1.00  0.00     0.011 C 
ENDBRANCH  17  18
ENDBRANCH  16  17
ENDBRANCH  12  15
ENDBRANCH   1  11
BRANCH   5  20
HETATM   20  C11 UNL     1      18.414   1.471  51.453  1.00  0.00     0.137 C 
BRANCH  20  21
HETATM   21  C12 UNL     1      18.358   0.932  50.066  1.00  0.00     0.134 C 
HETATM   22 CL1  UNL     1      17.064  -0.264  49.864  1.00  0.00    -0.129 Cl
ENDBRANCH  20  21
ENDBRANCH   5  20
TORSDOF 6
ENDMDL
MODEL 4
REMARK VINA RESULT:      -6.4      1.692      2.122
REMARK  6 active torsions:
REMARK  status: ('A' for Active; 'I' for Inactive)
REMARK    1  A    between atoms: C2_2  and  C3_3 
REMARK    2  A    between atoms: C3_3  and  C4_4 
REMARK    3  A    between atoms: C5_5  and  N1_6 
REMARK       I    between atoms: N1_6  and  C6_7 
REMARK    4  A    between atoms: C6_7  and  C7_9 
REMARK    5  A    between atoms: N2_13  and  C11_14 
REMARK    6  A    between atoms: C11_14  and  C12_15 
ROOT
HETATM    1  C7  UNL     1      22.112   0.703  52.810  1.00  0.00     0.032 C 
HETATM    2  C8  UNL     1      22.358  -0.239  53.703  1.00  0.00     0.018 C 
HETATM    3  C9  UNL     1      23.496  -0.811  54.348  1.00  0.00     0.018 C 
HETATM    4  C10 UNL     1      24.823  -0.860  54.544  1.00  0.00     0.085 C 
HETATM    5  N2  UNL     1      25.821  -0.021  53.914  1.00  0.00    -0.387 N 
HETATM    6  C13 UNL     1      25.165   1.221  53.474  1.00  0.00     0.146 C 
HETATM    7  C14 UNL     1      25.113   1.149  51.986  1.00  0.00     0.123 C 
HETATM    8 CL2  UNL     1      26.699   1.381  51.263  1.00  0.00    -0.119 Cl
HETATM    9  C15 UNL     1      24.011   1.909  51.421  1.00  0.00    -0.004 C 
HETATM   10  C16 UNL     1      22.882   1.533  51.922  1.00  0.00     0.014 C 
ENDROOT
BRANCH   1  11
HETATM   11  C6  UNL     1      20.660   0.786  52.606  1.00  0.00     0.255 C 
HETATM   12  N1  UNL     1      19.766  -0.286  52.724  1.00  0.00    -0.333 N 
HETATM   13  H8  UNL     1      20.095  -1.224  52.957  1.00  0.00     0.168 HD
HETATM   14  O1  UNL     1      19.873   1.742  52.311  1.00  0.00    -0.267 OA
BRANCH  12  15
HETATM   15  C5  UNL     1      18.388  -0.463  52.598  1.00  0.00     0.087 C 
HETATM   16  C4  UNL     1      17.551  -1.391  53.095  1.00  0.00    -0.004 C 
BRANCH  16  17
HETATM   17  C3  UNL     1      16.238  -1.032  52.604  1.00  0.00     0.021 C 
BRANCH  17  18
HETATM   18  C2  UNL     1      15.065  -0.603  52.342  1.00  0.00    -0.006 C 
HETATM   19  C1  UNL     1      14.721   0.705  52.939  1.00  0.00     0.011 C 
ENDBRANCH  17  18
ENDBRANCH  16  17
ENDBRANCH  12  15
ENDBRANCH   1  11
BRANCH   5  20
HETATM   20  C11 UNL     1      27.202  -0.371  53.715  1.00  0.00     0.137 C 
BRANCH  20  21
HETATM   21  C12 UNL     1      28.188   0.344  54.571  1.00  0.00     0.134 C 
HETATM   22 CL1  UNL     1      29.784   0.454  53.804  1.00  0.00    -0.129 Cl
ENDBRANCH  20  21
ENDBRANCH   5  20
TORSDOF 6
ENDMDL
MODEL 5
REMARK VINA RESULT:      -6.4      6.644      8.884
REMARK  6 active torsions:
REMARK  status: ('A' for Active; 'I' for Inactive)
REMARK    1  A    between atoms: C2_2  and  C3_3 
REMARK    2  A    between atoms: C3_3  and  C4_4 
REMARK    3  A    between atoms: C5_5  and  N1_6 
REMARK       I    between atoms: N1_6  and  C6_7 
REMARK    4  A    between atoms: C6_7  and  C7_9 
REMARK    5  A    between atoms: N2_13  and  C11_14 
REMARK    6  A    between atoms: C11_14  and  C12_15 
ROOT
HETATM    1  C7  UNL     1      26.880   5.347  49.027  1.00  0.00     0.032 C 
HETATM    2  C8  UNL     1      26.074   6.377  49.218  1.00  0.00     0.018 C 
HETATM    3  C9  UNL     1      26.054   7.772  48.915  1.00  0.00     0.018 C 
HETATM    4  C10 UNL     1      26.625   8.853  48.362  1.00  0.00     0.085 C 
HETATM    5  N2  UNL     1      27.890   8.897  47.658  1.00  0.00    -0.387 N 
HETATM    6  C13 UNL     1      28.182   7.545  47.157  1.00  0.00     0.146 C 
HETATM    7  C14 UNL     1      29.315   7.039  47.984  1.00  0.00     0.123 C 
HETATM    8 CL2  UNL     1      30.828   7.838  47.582  1.00  0.00    -0.119 Cl
HETATM    9  C15 UNL     1      29.338   5.590  48.087  1.00  0.00    -0.004 C 
HETATM   10  C16 UNL     1      28.218   5.138  48.544  1.00  0.00     0.014 C 
ENDROOT
BRANCH   1  11
HETATM   11  C6  UNL     1      26.253   4.150  49.603  1.00  0.00     0.255 C 
HETATM   12  N1  UNL     1      26.648   3.527  50.795  1.00  0.00    -0.333 N 
HETATM   13  H8  UNL     1      27.435   3.882  51.340  1.00  0.00     0.168 HD
HETATM   14  O1  UNL     1      25.274   3.419  49.246  1.00  0.00    -0.267 OA
BRANCH  12  15
HETATM   15  C5  UNL     1      26.227   2.425  51.538  1.00  0.00     0.087 C 
HETATM   16  C4  UNL     1      26.644   1.146  51.567  1.00  0.00    -0.004 C 
BRANCH  16  17
HETATM   17  C3  UNL     1      25.809   0.487  52.548  1.00  0.00     0.021 C 
BRANCH  17  18
HETATM   18  C2  UNL     1      24.915  -0.036  53.293  1.00  0.00    -0.006 C 
HETATM   19  C1  UNL     1      23.519   0.295  52.937  1.00  0.00     0.011 C 
ENDBRANCH  17  18
ENDBRANCH  16  17
ENDBRANCH  12  15
ENDBRANCH   1  11
BRANCH   5  20
HETATM   20  C11 UNL     1      28.730  10.057  47.520  1.00  0.00     0.137 C 
BRANCH  20  21
HETATM   21  C12 UNL     1      28.946  10.859  48.755  1.00  0.00     0.134 C 
HETATM   22 CL1  UNL     1      30.668  11.054  49.133  1.00  0.00    -0.129 Cl
ENDBRANCH  20  21
ENDBRANCH   5  20
TORSDOF 6
ENDMDL
MODEL 6
REMARK VINA RESULT:      -6.4      6.637      8.789
REMARK  6 active torsions:
REMARK  status: ('A' for Active; 'I' for Inactive)
REMARK    1  A    between atoms: C2_2  and  C3_3 
REMARK    2  A    between atoms: C3_3  and  C4_4 
REMARK    3  A    between atoms: C5_5  and  N1_6 
REMARK       I    between atoms: N1_6  and  C6_7 
REMARK    4  A    between atoms: C6_7  and  C7_9 
REMARK    5  A    between atoms: N2_13  and  C11_14 
REMARK    6  A    between atoms: C11_14  and  C12_15 
ROOT
HETATM    1  C7  UNL     1      26.653   5.211  48.937  1.00  0.00     0.032 C 
HETATM    2  C8  UNL     1      27.927   4.972  48.683  1.00  0.00     0.018 C 
HETATM    3  C9  UNL     1      29.034   5.661  48.102  1.00  0.00     0.018 C 
HETATM    4  C10 UNL     1      29.555   6.757  47.529  1.00  0.00     0.085 C 
HETATM    5  N2  UNL     1      28.863   7.999  47.252  1.00  0.00    -0.387 N 
HETATM    6  C13 UNL     1      27.709   8.093  48.161  1.00  0.00     0.146 C 
HETATM    7  C14 UNL     1      26.502   7.896  47.309  1.00  0.00     0.123 C 
HETATM    8 CL2  UNL     1      26.187   9.290  46.286  1.00  0.00    -0.119 Cl
HETATM    9  C15 UNL     1      25.376   7.345  48.044  1.00  0.00    -0.004 C 
HETATM   10  C16 UNL     1      25.694   6.237  48.623  1.00  0.00     0.014 C 
ENDROOT
BRANCH   1  11
HETATM   11  C6  UNL     1      26.077   4.027  49.590  1.00  0.00     0.255 C 
HETATM   12  N1  UNL     1      26.565   3.435  50.762  1.00  0.00    -0.333 N 
HETATM   13  H8  UNL     1      27.390   3.805  51.236  1.00  0.00     0.168 HD
HETATM   14  O1  UNL     1      25.076   3.286  49.328  1.00  0.00    -0.267 OA
BRANCH  12  15
HETATM   15  C5  UNL     1      26.206   2.351  51.564  1.00  0.00     0.087 C 
HETATM   16  C4  UNL     1      26.719   1.114  51.686  1.00  0.00    -0.004 C 
BRANCH  16  17
HETATM   17  C3  UNL     1      25.907   0.453  52.684  1.00  0.00     0.021 C 
BRANCH  17  18
HETATM   18  C2  UNL     1      25.164  -0.275  53.422  1.00  0.00    -0.006 C 
HETATM   19  C1  UNL     1      23.712  -0.021  53.308  1.00  0.00     0.011 C 
ENDBRANCH  17  18
ENDBRANCH  16  17
ENDBRANCH  12  15
ENDBRANCH   1  11
BRANCH   5  20
HETATM   20  C11 UNL     1      29.222   8.946  46.231  1.00  0.00     0.137 C 
BRANCH  20  21
HETATM   21  C12 UNL     1      29.687  10.278  46.708  1.00  0.00     0.134 C 
HETATM   22 CL1  UNL     1      30.784  10.146  48.095  1.00  0.00    -0.129 Cl
ENDBRANCH  20  21
ENDBRANCH   5  20
TORSDOF 6
ENDMDL
MODEL 7
REMARK VINA RESULT:      -6.3      4.514      8.973
REMARK  6 active torsions:
REMARK  status: ('A' for Active; 'I' for Inactive)
REMARK    1  A    between atoms: C2_2  and  C3_3 
REMARK    2  A    between atoms: C3_3  and  C4_4 
REMARK    3  A    between atoms: C5_5  and  N1_6 
REMARK       I    between atoms: N1_6  and  C6_7 
REMARK    4  A    between atoms: C6_7  and  C7_9 
REMARK    5  A    between atoms: N2_13  and  C11_14 
REMARK    6  A    between atoms: C11_14  and  C12_15 
ROOT
HETATM    1  C7  UNL     1      22.094   1.648  50.644  1.00  0.00     0.032 C 
HETATM    2  C8  UNL     1      20.959   1.571  49.972  1.00  0.00     0.018 C 
HETATM    3  C9  UNL     1      19.645   1.049  50.175  1.00  0.00     0.018 C 
HETATM    4  C10 UNL     1      18.747   0.423  50.950  1.00  0.00     0.085 C 
HETATM    5  N2  UNL     1      18.959  -0.068  52.296  1.00  0.00    -0.387 N 
HETATM    6  C13 UNL     1      20.077   0.685  52.887  1.00  0.00     0.146 C 
HETATM    7  C14 UNL     1      21.215  -0.274  52.972  1.00  0.00     0.123 C 
HETATM    8 CL2  UNL     1      20.968  -1.475  54.232  1.00  0.00    -0.119 Cl
HETATM    9  C15 UNL     1      22.511   0.382  52.926  1.00  0.00    -0.004 C 
HETATM   10  C16 UNL     1      22.626   1.114  51.869  1.00  0.00     0.014 C 
ENDROOT
BRANCH   1  11
HETATM   11  C6  UNL     1      23.079   2.357  49.818  1.00  0.00     0.255 C 
HETATM   12  N1  UNL     1      24.276   2.915  50.288  1.00  0.00    -0.333 N 
HETATM   13  H8  UNL     1      24.528   2.864  51.277  1.00  0.00     0.168 HD
HETATM   14  O1  UNL     1      23.142   2.631  48.576  1.00  0.00    -0.267 OA
BRANCH  12  15
HETATM   15  C5  UNL     1      25.350   3.605  49.728  1.00  0.00     0.087 C 
HETATM   16  C4  UNL     1      26.661   3.315  49.646  1.00  0.00    -0.004 C 
BRANCH  16  17
HETATM   17  C3  UNL     1      27.262   4.430  48.946  1.00  0.00     0.021 C 
BRANCH  17  18
HETATM   18  C2  UNL     1      27.742   5.522  48.496  1.00  0.00    -0.006 C 
HETATM   19  C1  UNL     1      26.777   6.636  48.375  1.00  0.00     0.011 C 
ENDBRANCH  17  18
ENDBRANCH  16  17
ENDBRANCH  12  15
ENDBRANCH   1  11
BRANCH   5  20
HETATM   20  C11 UNL     1      18.230  -1.140  52.919  1.00  0.00     0.137 C 
BRANCH  20  21
HETATM   21  C12 UNL     1      16.762  -0.935  53.065  1.00  0.00     0.134 C 
HETATM   22 CL1  UNL     1      15.855  -1.606  51.697  1.00  0.00    -0.129 Cl
ENDBRANCH  20  21
ENDBRANCH   5  20
TORSDOF 6
ENDMDL
MODEL 8
REMARK VINA RESULT:      -6.3      4.910      6.689
REMARK  6 active torsions:
REMARK  status: ('A' for Active; 'I' for Inactive)
REMARK    1  A    between atoms: C2_2  and  C3_3 
REMARK    2  A    between atoms: C3_3  and  C4_4 
REMARK    3  A    between atoms: C5_5  and  N1_6 
REMARK       I    between atoms: N1_6  and  C6_7 
REMARK    4  A    between atoms: C6_7  and  C7_9 
REMARK    5  A    between atoms: N2_13  and  C11_14 
REMARK    6  A    between atoms: C11_14  and  C12_15 
ROOT
HETATM    1  C7  UNL     1      24.507   4.464  50.878  1.00  0.00     0.032 C 
HETATM    2  C8  UNL     1      24.105   5.666  51.248  1.00  0.00     0.018 C 
HETATM    3  C9  UNL     1      24.376   7.024  50.899  1.00  0.00     0.018 C 
HETATM    4  C10 UNL     1      25.029   7.927  50.152  1.00  0.00     0.085 C 
HETATM    5  N2  UNL     1      25.990   7.650  49.104  1.00  0.00    -0.387 N 
HETATM    6  C13 UNL     1      25.743   6.288  48.604  1.00  0.00     0.146 C 
HETATM    7  C14 UNL     1      26.888   5.463  49.084  1.00  0.00     0.123 C 
HETATM    8 CL2  UNL     1      28.371   5.832  48.216  1.00  0.00    -0.119 Cl
HETATM    9  C15 UNL     1      26.545   4.060  49.244  1.00  0.00    -0.004 C 
HETATM   10  C16 UNL     1      25.533   3.914  50.032  1.00  0.00     0.014 C 
ENDROOT
BRANCH   1  11
HETATM   11  C6  UNL     1      23.779   3.463  51.669  1.00  0.00     0.255 C 
HETATM   12  N1  UNL     1      24.346   2.312  52.234  1.00  0.00    -0.333 N 
HETATM   13  H8  UNL     1      25.336   2.096  52.107  1.00  0.00     0.168 HD
HETATM   14  O1  UNL     1      22.568   3.360  52.046  1.00  0.00    -0.267 OA
BRANCH  12  15
HETATM   15  C5  UNL     1      23.892   1.247  53.011  1.00  0.00     0.087 C 
HETATM   16  C4  UNL     1      24.320  -0.022  53.137  1.00  0.00    -0.004 C 
BRANCH  16  17
HETATM   17  C3  UNL     1      23.433  -0.637  54.099  1.00  0.00     0.021 C 
BRANCH  17  18
HETATM   18  C2  UNL     1      22.522  -1.203  54.790  1.00  0.00    -0.006 C 
HETATM   19  C1  UNL     1      21.161  -0.651  54.617  1.00  0.00     0.011 C 
ENDBRANCH  17  18
ENDBRANCH  16  17
ENDBRANCH  12  15
ENDBRANCH   1  11
BRANCH   5  20
HETATM   20  C11 UNL     1      27.033   8.540  48.670  1.00  0.00     0.137 C 
BRANCH  20  21
HETATM   21  C12 UNL     1      27.782   9.246  49.746  1.00  0.00     0.134 C 
HETATM   22 CL1  UNL     1      29.527   9.289  49.428  1.00  0.00    -0.129 Cl
ENDBRANCH  20  21
ENDBRANCH   5  20
TORSDOF 6
ENDMDL
MODEL 9
REMARK VINA RESULT:      -6.2      6.785     11.458
REMARK  6 active torsions:
REMARK  status: ('A' for Active; 'I' for Inactive)
REMARK    1  A    between atoms: C2_2  and  C3_3 
REMARK    2  A    between atoms: C3_3  and  C4_4 
REMARK    3  A    between atoms: C5_5  and  N1_6 
REMARK       I    between atoms: N1_6  and  C6_7 
REMARK    4  A    between atoms: C6_7  and  C7_9 
REMARK    5  A    between atoms: N2_13  and  C11_14 
REMARK    6  A    between atoms: C11_14  and  C12_15 
ROOT
HETATM    1  C7  UNL     1      27.363   5.489  48.718  1.00  0.00     0.032 C 
HETATM    2  C8  UNL     1      27.135   4.250  49.115  1.00  0.00     0.018 C 
HETATM    3  C9  UNL     1      26.015   3.459  49.514  1.00  0.00     0.018 C 
HETATM    4  C10 UNL     1      24.699   3.331  49.738  1.00  0.00     0.085 C 
HETATM    5  N2  UNL     1      23.689   4.354  49.558  1.00  0.00    -0.387 N 
HETATM    6  C13 UNL     1      24.203   5.341  48.596  1.00  0.00     0.146 C 
HETATM    7  C14 UNL     1      24.489   6.572  49.388  1.00  0.00     0.123 C 
HETATM    8 CL2  UNL     1      23.015   7.387  49.889  1.00  0.00    -0.119 Cl
HETATM    9  C15 UNL     1      25.533   7.393  48.799  1.00  0.00    -0.004 C 
HETATM   10  C16 UNL     1      26.617   6.715  48.626  1.00  0.00     0.014 C 
ENDROOT
BRANCH   1  11
HETATM   11  C6  UNL     1      28.799   5.634  48.443  1.00  0.00     0.255 C 
HETATM   12  N1  UNL     1      29.593   6.716  48.848  1.00  0.00    -0.333 N 
HETATM   13  H8  UNL     1      29.192   7.498  49.369  1.00  0.00     0.168 HD
HETATM   14  O1  UNL     1      29.651   4.906  47.841  1.00  0.00    -0.267 OA
BRANCH  12  15
HETATM   15  C5  UNL     1      30.934   7.076  48.729  1.00  0.00     0.087 C 
HETATM   16  C4  UNL     1      31.736   7.830  49.503  1.00  0.00    -0.004 C 
BRANCH  16  17
HETATM   17  C3  UNL     1      33.024   7.830  48.844  1.00  0.00     0.021 C 
BRANCH  17  18
HETATM   18  C2  UNL     1      34.053   7.802  48.090  1.00  0.00    -0.006 C 
HETATM   19  C1  UNL     1      35.124   6.876  48.515  1.00  0.00     0.011 C 
ENDBRANCH  17  18
ENDBRANCH  16  17
ENDBRANCH  12  15
ENDBRANCH   1  11
BRANCH   5  20
HETATM   20  C11 UNL     1      22.425   4.410  50.244  1.00  0.00     0.137 C 
BRANCH  20  21
HETATM   21  C12 UNL     1      22.419   3.912  51.647  1.00  0.00     0.134 C 
HETATM   22 CL1  UNL     1      23.382   4.940  52.726  1.00  0.00    -0.129 Cl
ENDBRANCH  20  21
ENDBRANCH   5  20
TORSDOF 6
ENDMDL
