MODEL 1
REMARK VINA RESULT:      -8.8      0.000      0.000
REMARK  6 active torsions:
REMARK  status: ('A' for Active; 'I' for Inactive)
REMARK    1  A    between atoms: N2_5  and  C4_6 
REMARK    2  A    between atoms: C7_9  and  N3_10 
REMARK    3  A    between atoms: C10_13  and  C11_14 
REMARK    4  A    between atoms: C11_14  and  C12_15 
REMARK    5  A    between atoms: C12_15  and  C13_16 
REMARK    6  A    between atoms: C13_16  and  C14_17 
ROOT
HETATM    1  N3  UNL     1      24.102   3.265  50.523  1.00  0.00    -0.300 N 
HETATM    2  C8  UNL     1      23.280   4.074  51.403  1.00  0.00     0.151 C 
HETATM    3  C9  UNL     1      23.565   3.375  52.733  1.00  0.00     0.078 C 
HETATM    4  C10 UNL     1      23.706   1.967  52.289  1.00  0.00     0.037 C 
HETATM    5  N5  UNL     1      24.005   1.984  51.055  1.00  0.00    -0.186 NA
ENDROOT
BRANCH   1   6
HETATM    6  C7  UNL     1      24.791   3.857  49.390  1.00  0.00     0.104 C 
HETATM    7  C6  UNL     1      24.292   5.257  49.256  1.00  0.00     0.029 C 
HETATM    8  C5  UNL     1      25.195   6.205  48.544  1.00  0.00     0.027 C 
HETATM    9  C4  UNL     1      26.556   6.114  49.220  1.00  0.00     0.079 C 
HETATM   10  C20 UNL     1      27.093   4.772  48.889  1.00  0.00     0.027 C 
HETATM   11  C19 UNL     1      26.249   3.666  49.435  1.00  0.00     0.029 C 
BRANCH   9  12
HETATM   12  N2  UNL     1      27.363   7.214  48.927  1.00  0.00    -0.405 N 
HETATM   13  C3  UNL     1      28.184   7.156  47.761  1.00  0.00     0.147 C 
HETATM   14  C2  UNL     1      28.451   8.569  47.287  1.00  0.00     0.291 C 
HETATM   15  N1  UNL     1      29.142   9.269  48.353  1.00  0.00     0.087 N 
HETATM   16  C1  UNL     1      29.694  10.511  47.911  1.00  0.00     0.310 C 
HETATM   17  C22 UNL     1      28.369   9.338  49.556  1.00  0.00     0.291 C 
HETATM   18  C21 UNL     1      27.095   8.486  49.452  1.00  0.00     0.147 C 
ENDBRANCH   9  12
ENDBRANCH   1   6
BRANCH   4  19
HETATM   19  C11 UNL     1      23.539   0.719  53.096  1.00  0.00     0.083 C 
BRANCH  19  20
HETATM   20  C12 UNL     1      24.767  -0.059  53.172  1.00  0.00    -0.019 C 
BRANCH  20  21
HETATM   21  C13 UNL     1      25.971  -0.488  52.958  1.00  0.00     0.027 C 
BRANCH  21  22
HETATM   22  C14 UNL     1      27.395  -0.579  53.197  1.00  0.00     0.050 A 
HETATM   23  C15 UNL     1      28.110   0.499  53.448  1.00  0.00     0.060 A 
HETATM   24 CL1  UNL     1      27.507   2.117  53.533  1.00  0.00    -0.082 Cl
HETATM   25  C16 UNL     1      29.539   0.322  53.675  1.00  0.00     0.024 A 
HETATM   26  C17 UNL     1      29.951  -0.932  53.597  1.00  0.00    -0.006 A 
HETATM   27  C18 UNL     1      29.246  -2.204  53.324  1.00  0.00     0.147 A 
HETATM   28  N4  UNL     1      27.850  -1.912  53.121  1.00  0.00    -0.385 N 
HETATM   29  H26 UNL     1      27.280  -2.755  52.927  1.00  0.00     0.160 HD
ENDBRANCH  21  22
ENDBRANCH  20  21
ENDBRANCH  19  20
ENDBRANCH   4  19
TORSDOF 6
ENDMDL
MODEL 2
REMARK VINA RESULT:      -8.6      1.353      1.546
REMARK  6 active torsions:
REMARK  status: ('A' for Active; 'I' for Inactive)
REMARK    1  A    between atoms: N2_5  and  C4_6 
REMARK    2  A    between atoms: C7_9  and  N3_10 
REMARK    3  A    between atoms: C10_13  and  C11_14 
REMARK    4  A    between atoms: C11_14  and  C12_15 
REMARK    5  A    between atoms: C12_15  and  C13_16 
REMARK    6  A    between atoms: C13_16  and  C14_17 
ROOT
HETATM    1  N3  UNL     1      23.637   2.799  50.354  1.00  0.00    -0.300 N 
HETATM    2  C8  UNL     1      22.389   3.352  50.846  1.00  0.00     0.151 C 
HETATM    3  C9  UNL     1      22.467   2.900  52.304  1.00  0.00     0.078 C 
HETATM    4  C10 UNL     1      23.149   1.591  52.160  1.00  0.00     0.037 C 
HETATM    5  N5  UNL     1      23.777   1.608  51.057  1.00  0.00    -0.186 NA
ENDROOT
BRANCH   1   6
HETATM    6  C7  UNL     1      24.417   3.496  49.346  1.00  0.00     0.104 C 
HETATM    7  C6  UNL     1      23.823   4.857  49.195  1.00  0.00     0.029 C 
HETATM    8  C5  UNL     1      24.730   5.905  48.646  1.00  0.00     0.027 C 
HETATM    9  C4  UNL     1      25.993   5.890  49.496  1.00  0.00     0.079 C 
HETATM   10  C20 UNL     1      26.679   4.611  49.193  1.00  0.00     0.027 C 
HETATM   11  C19 UNL     1      25.867   3.418  49.581  1.00  0.00     0.029 C 
BRANCH   9  12
HETATM   12  N2  UNL     1      26.736   7.062  49.354  1.00  0.00    -0.405 N 
HETATM   13  C3  UNL     1      27.747   7.101  48.347  1.00  0.00     0.147 C 
HETATM   14  C2  UNL     1      27.964   8.542  47.935  1.00  0.00     0.291 C 
HETATM   15  N1  UNL     1      28.396   9.276  49.110  1.00  0.00     0.087 N 
HETATM   16  C1  UNL     1      28.902  10.571  48.777  1.00  0.00     0.310 C 
HETATM   17  C22 UNL     1      27.425   9.251  50.161  1.00  0.00     0.291 C 
HETATM   18  C21 UNL     1      26.269   8.294  49.833  1.00  0.00     0.147 C 
ENDBRANCH   9  12
ENDBRANCH   1   6
BRANCH   4  19
HETATM   19  C11 UNL     1      23.136   0.428  53.101  1.00  0.00     0.083 C 
BRANCH  19  20
HETATM   20  C12 UNL     1      24.474  -0.063  53.393  1.00  0.00    -0.019 C 
BRANCH  20  21
HETATM   21  C13 UNL     1      25.675  -0.163  53.870  1.00  0.00     0.027 C 
BRANCH  21  22
HETATM   22  C14 UNL     1      27.119  -0.119  53.813  1.00  0.00     0.050 A 
HETATM   23  C15 UNL     1      27.803  -1.083  53.229  1.00  0.00     0.060 A 
HETATM   24 CL1  UNL     1      27.133  -2.485  52.473  1.00  0.00    -0.082 Cl
HETATM   25  C16 UNL     1      29.257  -0.965  53.216  1.00  0.00     0.024 A 
HETATM   26  C17 UNL     1      29.720   0.123  53.807  1.00  0.00    -0.006 A 
HETATM   27  C18 UNL     1      29.053   1.255  54.487  1.00  0.00     0.147 A 
HETATM   28  N4  UNL     1      27.630   1.037  54.438  1.00  0.00    -0.385 N 
HETATM   29  H26 UNL     1      27.084   1.793  54.890  1.00  0.00     0.160 HD
ENDBRANCH  21  22
ENDBRANCH  20  21
ENDBRANCH  19  20
ENDBRANCH   4  19
TORSDOF 6
ENDMDL
MODEL 3
REMARK VINA RESULT:      -8.6      1.814      3.297
REMARK  6 active torsions:
REMARK  status: ('A' for Active; 'I' for Inactive)
REMARK    1  A    between atoms: N2_5  and  C4_6 
REMARK    2  A    between atoms: C7_9  and  N3_10 
REMARK    3  A    between atoms: C10_13  and  C11_14 
REMARK    4  A    between atoms: C11_14  and  C12_15 
REMARK    5  A    between atoms: C12_15  and  C13_16 
REMARK    6  A    between atoms: C13_16  and  C14_17 
ROOT
HETATM    1  N3  UNL     1      21.663   1.208  51.972  1.00  0.00    -0.300 N 
HETATM    2  C8  UNL     1      20.349   0.829  52.455  1.00  0.00     0.151 C 
HETATM    3  C9  UNL     1      20.697   0.484  53.903  1.00  0.00     0.078 C 
HETATM    4  C10 UNL     1      22.055  -0.091  53.738  1.00  0.00     0.037 C 
HETATM    5  N5  UNL     1      22.527   0.354  52.647  1.00  0.00    -0.186 NA
ENDROOT
BRANCH   1   6
HETATM    6  C7  UNL     1      21.823   2.272  50.996  1.00  0.00     0.104 C 
HETATM    7  C6  UNL     1      22.364   3.457  51.723  1.00  0.00     0.029 C 
HETATM    8  C5  UNL     1      23.094   4.454  50.891  1.00  0.00     0.027 C 
HETATM    9  C4  UNL     1      24.156   3.690  50.111  1.00  0.00     0.079 C 
HETATM   10  C20 UNL     1      23.425   2.852  49.130  1.00  0.00     0.027 C 
HETATM   11  C19 UNL     1      22.539   1.842  49.785  1.00  0.00     0.029 C 
BRANCH   9  12
HETATM   12  N2  UNL     1      25.151   4.532  49.615  1.00  0.00    -0.405 N 
HETATM   13  C3  UNL     1      24.814   5.895  49.355  1.00  0.00     0.147 C 
HETATM   14  C2  UNL     1      26.072   6.731  49.453  1.00  0.00     0.291 C 
HETATM   15  N1  UNL     1      27.003   6.245  48.452  1.00  0.00     0.087 N 
HETATM   16  C1  UNL     1      28.102   7.140  48.263  1.00  0.00     0.310 C 
HETATM   17  C22 UNL     1      27.360   4.874  48.654  1.00  0.00     0.291 C 
HETATM   18  C21 UNL     1      26.512   4.232  49.763  1.00  0.00     0.147 C 
ENDBRANCH   9  12
ENDBRANCH   1   6
BRANCH   4  19
HETATM   19  C11 UNL     1      22.783  -1.027  54.650  1.00  0.00     0.083 C 
BRANCH  19  20
HETATM   20  C12 UNL     1      24.227  -0.870  54.566  1.00  0.00    -0.019 C 
BRANCH  20  21
HETATM   21  C13 UNL     1      25.430  -0.412  54.724  1.00  0.00     0.027 C 
BRANCH  21  22
HETATM   22  C14 UNL     1      26.670   0.197  54.297  1.00  0.00     0.050 A 
HETATM   23  C15 UNL     1      26.691   1.419  53.805  1.00  0.00     0.060 A 
HETATM   24 CL1  UNL     1      25.319   2.450  53.597  1.00  0.00    -0.082 Cl
HETATM   25  C16 UNL     1      27.982   1.959  53.396  1.00  0.00     0.024 A 
HETATM   26  C17 UNL     1      28.998   1.132  53.573  1.00  0.00    -0.006 A 
HETATM   27  C18 UNL     1      29.090  -0.244  54.108  1.00  0.00     0.147 A 
HETATM   28  N4  UNL     1      27.766  -0.672  54.482  1.00  0.00    -0.385 N 
HETATM   29  H26 UNL     1      27.741  -1.631  54.874  1.00  0.00     0.160 HD
ENDBRANCH  21  22
ENDBRANCH  20  21
ENDBRANCH  19  20
ENDBRANCH   4  19
TORSDOF 6
ENDMDL
MODEL 4
REMARK VINA RESULT:      -7.9      6.386     10.675
REMARK  6 active torsions:
REMARK  status: ('A' for Active; 'I' for Inactive)
REMARK    1  A    between atoms: N2_5  and  C4_6 
REMARK    2  A    between atoms: C7_9  and  N3_10 
REMARK    3  A    between atoms: C10_13  and  C11_14 
REMARK    4  A    between atoms: C11_14  and  C12_15 
REMARK    5  A    between atoms: C12_15  and  C13_16 
REMARK    6  A    between atoms: C13_16  and  C14_17 
ROOT
HETATM    1  N3  UNL     1      20.003   0.035  52.901  1.00  0.00    -0.300 N 
HETATM    2  C8  UNL     1      19.897   0.221  51.466  1.00  0.00     0.151 C 
HETATM    3  C9  UNL     1      18.388   0.432  51.346  1.00  0.00     0.078 C 
HETATM    4  C10 UNL     1      17.890  -0.471  52.413  1.00  0.00     0.037 C 
HETATM    5  N5  UNL     1      18.839  -0.645  53.238  1.00  0.00    -0.186 NA
ENDROOT
BRANCH   1   6
HETATM    6  C7  UNL     1      21.156   0.527  53.635  1.00  0.00     0.104 C 
HETATM    7  C6  UNL     1      21.841  -0.661  54.223  1.00  0.00     0.029 C 
HETATM    8  C5  UNL     1      23.285  -0.485  54.549  1.00  0.00     0.027 C 
HETATM    9  C4  UNL     1      23.964   0.041  53.292  1.00  0.00     0.079 C 
HETATM   10  C20 UNL     1      23.457   1.421  53.095  1.00  0.00     0.027 C 
HETATM   11  C19 UNL     1      21.982   1.462  52.856  1.00  0.00     0.029 C 
BRANCH   9  12
HETATM   12  N2  UNL     1      25.347  -0.131  53.332  1.00  0.00    -0.405 N 
HETATM   13  C3  UNL     1      26.131   0.860  53.996  1.00  0.00     0.147 C 
HETATM   14  C2  UNL     1      27.417   0.218  54.474  1.00  0.00     0.291 C 
HETATM   15  N1  UNL     1      28.121  -0.279  53.307  1.00  0.00     0.087 N 
HETATM   16  C1  UNL     1      29.470  -0.644  53.609  1.00  0.00     0.310 C 
HETATM   17  C22 UNL     1      27.369  -1.263  52.590  1.00  0.00     0.291 C 
HETATM   18  C21 UNL     1      25.940  -1.386  53.140  1.00  0.00     0.147 C 
ENDBRANCH   9  12
ENDBRANCH   1   6
BRANCH   4  19
HETATM   19  C11 UNL     1      16.536  -1.093  52.545  1.00  0.00     0.083 C 
BRANCH  19  20
HETATM   20  C12 UNL     1      15.463  -0.133  52.330  1.00  0.00    -0.019 C 
BRANCH  20  21
HETATM   21  C13 UNL     1      14.584   0.800  52.524  1.00  0.00     0.027 C 
BRANCH  21  22
HETATM   22  C14 UNL     1      14.084   2.038  53.079  1.00  0.00     0.050 A 
HETATM   23  C15 UNL     1      14.720   3.175  52.880  1.00  0.00     0.060 A 
HETATM   24 CL1  UNL     1      16.177   3.375  51.972  1.00  0.00    -0.082 Cl
HETATM   25  C16 UNL     1      14.151   4.378  53.475  1.00  0.00     0.024 A 
HETATM   26  C17 UNL     1      13.039   4.173  54.160  1.00  0.00    -0.006 A 
HETATM   27  C18 UNL     1      12.248   2.956  54.447  1.00  0.00     0.147 A 
HETATM   28  N4  UNL     1      12.895   1.837  53.811  1.00  0.00    -0.385 N 
HETATM   29  H26 UNL     1      12.399   0.939  53.959  1.00  0.00     0.160 HD
ENDBRANCH  21  22
ENDBRANCH  20  21
ENDBRANCH  19  20
ENDBRANCH   4  19
TORSDOF 6
ENDMDL
MODEL 5
REMARK VINA RESULT:      -7.8      4.134      9.546
REMARK  6 active torsions:
REMARK  status: ('A' for Active; 'I' for Inactive)
REMARK    1  A    between atoms: N2_5  and  C4_6 
REMARK    2  A    between atoms: C7_9  and  N3_10 
REMARK    3  A    between atoms: C10_13  and  C11_14 
REMARK    4  A    between atoms: C11_14  and  C12_15 
REMARK    5  A    between atoms: C12_15  and  C13_16 
REMARK    6  A    between atoms: C13_16  and  C14_17 
ROOT
HETATM    1  N3  UNL     1      23.852  -0.126  53.798  1.00  0.00    -0.300 N 
HETATM    2  C8  UNL     1      24.733  -0.884  54.666  1.00  0.00     0.151 C 
HETATM    3  C9  UNL     1      26.039  -0.127  54.429  1.00  0.00     0.078 C 
HETATM    4  C10 UNL     1      25.898   0.243  52.999  1.00  0.00     0.037 C 
HETATM    5  N5  UNL     1      24.659   0.222  52.721  1.00  0.00    -0.186 NA
ENDROOT
BRANCH   1   6
HETATM    6  C7  UNL     1      22.464   0.104  54.159  1.00  0.00     0.104 C 
HETATM    7  C6  UNL     1      21.918   1.099  53.190  1.00  0.00     0.029 C 
HETATM    8  C5  UNL     1      20.437   1.093  53.015  1.00  0.00     0.027 C 
HETATM    9  C4  UNL     1      20.032  -0.340  52.700  1.00  0.00     0.079 C 
HETATM   10  C20 UNL     1      20.263  -1.117  53.941  1.00  0.00     0.027 C 
HETATM   11  C19 UNL     1      21.701  -1.139  54.346  1.00  0.00     0.029 C 
BRANCH   9  12
HETATM   12  N2  UNL     1      18.763  -0.413  52.128  1.00  0.00    -0.405 N 
HETATM   13  C3  UNL     1      17.766  -1.188  52.794  1.00  0.00     0.147 C 
HETATM   14  C2  UNL     1      16.402  -0.649  52.418  1.00  0.00     0.291 C 
HETATM   15  N1  UNL     1      16.259  -0.778  50.980  1.00  0.00     0.087 N 
HETATM   16  C1  UNL     1      14.911  -0.569  50.553  1.00  0.00     0.310 C 
HETATM   17  C22 UNL     1      17.249  -0.035  50.261  1.00  0.00     0.291 C 
HETATM   18  C21 UNL     1      18.312   0.543  51.207  1.00  0.00     0.147 C 
ENDBRANCH   9  12
ENDBRANCH   1   6
BRANCH   4  19
HETATM   19  C11 UNL     1      26.974   0.584  52.017  1.00  0.00     0.083 C 
BRANCH  19  20
HETATM   20  C12 UNL     1      26.694   1.816  51.296  1.00  0.00    -0.019 C 
BRANCH  20  21
HETATM   21  C13 UNL     1      26.457   2.661  50.341  1.00  0.00     0.027 C 
BRANCH  21  22
HETATM   22  C14 UNL     1      26.149   3.958  49.782  1.00  0.00     0.050 A 
HETATM   23  C15 UNL     1      24.924   4.444  49.831  1.00  0.00     0.060 A 
HETATM   24 CL1  UNL     1      23.553   3.661  50.533  1.00  0.00    -0.082 Cl
HETATM   25  C16 UNL     1      24.697   5.758  49.242  1.00  0.00     0.024 A 
HETATM   26  C17 UNL     1      25.775   6.313  48.716  1.00  0.00    -0.006 A 
HETATM   27  C18 UNL     1      27.181   5.864  48.605  1.00  0.00     0.147 A 
HETATM   28  N4  UNL     1      27.291   4.566  49.219  1.00  0.00    -0.385 N 
HETATM   29  H26 UNL     1      28.251   4.179  49.189  1.00  0.00     0.160 HD
ENDBRANCH  21  22
ENDBRANCH  20  21
ENDBRANCH  19  20
ENDBRANCH   4  19
TORSDOF 6
ENDMDL
MODEL 6
REMARK VINA RESULT:      -7.8      3.095      5.243
REMARK  6 active torsions:
REMARK  status: ('A' for Active; 'I' for Inactive)
REMARK    1  A    between atoms: N2_5  and  C4_6 
REMARK    2  A    between atoms: C7_9  and  N3_10 
REMARK    3  A    between atoms: C10_13  and  C11_14 
REMARK    4  A    between atoms: C11_14  and  C12_15 
REMARK    5  A    between atoms: C12_15  and  C13_16 
REMARK    6  A    between atoms: C13_16  and  C14_17 
ROOT
HETATM    1  N3  UNL     1      25.537   2.351  51.174  1.00  0.00    -0.300 N 
HETATM    2  C8  UNL     1      26.799   2.192  51.872  1.00  0.00     0.151 C 
HETATM    3  C9  UNL     1      26.659   0.737  52.321  1.00  0.00     0.078 C 
HETATM    4  C10 UNL     1      25.201   0.658  52.581  1.00  0.00     0.037 C 
HETATM    5  N5  UNL     1      24.645   1.584  51.912  1.00  0.00    -0.186 NA
ENDROOT
BRANCH   1   6
HETATM    6  C7  UNL     1      25.441   3.179  49.984  1.00  0.00     0.104 C 
HETATM    7  C6  UNL     1      24.343   4.160  50.219  1.00  0.00     0.029 C 
HETATM    8  C5  UNL     1      24.403   5.412  49.411  1.00  0.00     0.027 C 
HETATM    9  C4  UNL     1      25.792   6.003  49.611  1.00  0.00     0.079 C 
HETATM   10  C20 UNL     1      26.735   5.080  48.936  1.00  0.00     0.027 C 
HETATM   11  C19 UNL     1      26.740   3.716  49.547  1.00  0.00     0.029 C 
BRANCH   9  12
HETATM   12  N2  UNL     1      25.847   7.349  49.249  1.00  0.00    -0.405 N 
HETATM   13  C3  UNL     1      26.449   8.268  50.160  1.00  0.00     0.147 C 
HETATM   14  C2  UNL     1      26.972   9.453  49.377  1.00  0.00     0.291 C 
HETATM   15  N1  UNL     1      25.842  10.074  48.711  1.00  0.00     0.087 N 
HETATM   16  C1  UNL     1      26.172  11.360  48.180  1.00  0.00     0.310 C 
HETATM   17  C22 UNL     1      25.188   9.187  47.798  1.00  0.00     0.291 C 
HETATM   18  C21 UNL     1      25.741   7.758  47.913  1.00  0.00     0.147 C 
ENDBRANCH   9  12
ENDBRANCH   1   6
BRANCH   4  19
HETATM   19  C11 UNL     1      24.465  -0.304  53.458  1.00  0.00     0.083 C 
BRANCH  19  20
HETATM   20  C12 UNL     1      23.039  -0.337  53.168  1.00  0.00    -0.019 C 
BRANCH  20  21
HETATM   21  C13 UNL     1      21.754  -0.437  53.305  1.00  0.00     0.027 C 
BRANCH  21  22
HETATM   22  C14 UNL     1      20.381  -0.437  52.852  1.00  0.00     0.050 A 
HETATM   23  C15 UNL     1      20.041   0.146  51.720  1.00  0.00     0.060 A 
HETATM   24 CL1  UNL     1      21.114   0.964  50.640  1.00  0.00    -0.082 Cl
HETATM   25  C16 UNL     1      18.635   0.104  51.336  1.00  0.00     0.024 A 
HETATM   26  C17 UNL     1      17.855  -0.530  52.195  1.00  0.00    -0.006 A 
HETATM   27  C18 UNL     1      18.125  -1.212  53.480  1.00  0.00     0.147 A 
HETATM   28  N4  UNL     1      19.535  -1.112  53.757  1.00  0.00    -0.385 N 
HETATM   29  H26 UNL     1      19.811  -1.572  54.643  1.00  0.00     0.160 HD
ENDBRANCH  21  22
ENDBRANCH  20  21
ENDBRANCH  19  20
ENDBRANCH   4  19
TORSDOF 6
ENDMDL
MODEL 7
REMARK VINA RESULT:      -7.8      1.797      2.700
REMARK  6 active torsions:
REMARK  status: ('A' for Active; 'I' for Inactive)
REMARK    1  A    between atoms: N2_5  and  C4_6 
REMARK    2  A    between atoms: C7_9  and  N3_10 
REMARK    3  A    between atoms: C10_13  and  C11_14 
REMARK    4  A    between atoms: C11_14  and  C12_15 
REMARK    5  A    between atoms: C12_15  and  C13_16 
REMARK    6  A    between atoms: C13_16  and  C14_17 
ROOT
HETATM    1  N3  UNL     1      24.506   5.405  49.606  1.00  0.00    -0.300 N 
HETATM    2  C8  UNL     1      23.339   6.233  49.844  1.00  0.00     0.151 C 
HETATM    3  C9  UNL     1      23.239   6.104  51.364  1.00  0.00     0.078 C 
HETATM    4  C10 UNL     1      23.699   4.707  51.561  1.00  0.00     0.037 C 
HETATM    5  N5  UNL     1      24.395   4.389  50.548  1.00  0.00    -0.186 NA
ENDROOT
BRANCH   1   6
HETATM    6  C7  UNL     1      25.459   5.739  48.562  1.00  0.00     0.104 C 
HETATM    7  C6  UNL     1      25.291   7.190  48.262  1.00  0.00     0.029 C 
HETATM    8  C5  UNL     1      26.466   7.869  47.646  1.00  0.00     0.027 C 
HETATM    9  C4  UNL     1      27.667   7.573  48.534  1.00  0.00     0.079 C 
HETATM   10  C20 UNL     1      27.950   6.126  48.378  1.00  0.00     0.027 C 
HETATM   11  C19 UNL     1      26.822   5.266  48.851  1.00  0.00     0.029 C 
BRANCH   9  12
HETATM   12  N2  UNL     1      28.721   8.457  48.305  1.00  0.00    -0.405 N 
HETATM   13  C3  UNL     1      28.619   9.779  48.834  1.00  0.00     0.147 C 
HETATM   14  C2  UNL     1      30.015  10.326  49.042  1.00  0.00     0.291 C 
HETATM   15  N1  UNL     1      30.675  10.352  47.750  1.00  0.00     0.087 N 
HETATM   16  C1  UNL     1      31.885  11.112  47.781  1.00  0.00     0.310 C 
HETATM   17  C22 UNL     1      30.786   9.051  47.164  1.00  0.00     0.291 C 
HETATM   18  C21 UNL     1      30.005   8.004  47.972  1.00  0.00     0.147 C 
ENDBRANCH   9  12
ENDBRANCH   1   6
BRANCH   4  19
HETATM   19  C11 UNL     1      23.425   3.794  52.714  1.00  0.00     0.083 C 
BRANCH  19  20
HETATM   20  C12 UNL     1      24.611   3.062  53.133  1.00  0.00    -0.019 C 
BRANCH  20  21
HETATM   21  C13 UNL     1      25.450   2.102  53.366  1.00  0.00     0.027 C 
BRANCH  21  22
HETATM   22  C14 UNL     1      26.760   1.521  53.562  1.00  0.00     0.050 A 
HETATM   23  C15 UNL     1      26.948   0.221  53.448  1.00  0.00     0.060 A 
HETATM   24 CL1  UNL     1      25.734  -0.948  53.066  1.00  0.00    -0.082 Cl
HETATM   25  C16 UNL     1      28.298  -0.286  53.663  1.00  0.00     0.024 A 
HETATM   26  C17 UNL     1      29.189   0.647  53.954  1.00  0.00    -0.006 A 
HETATM   27  C18 UNL     1      29.091   2.115  54.107  1.00  0.00     0.147 A 
HETATM   28  N4  UNL     1      27.724   2.503  53.871  1.00  0.00    -0.385 N 
HETATM   29  H26 UNL     1      27.568   3.524  53.953  1.00  0.00     0.160 HD
ENDBRANCH  21  22
ENDBRANCH  20  21
ENDBRANCH  19  20
ENDBRANCH   4  19
TORSDOF 6
ENDMDL
MODEL 8
REMARK VINA RESULT:      -7.6      2.371      3.928
REMARK  6 active torsions:
REMARK  status: ('A' for Active; 'I' for Inactive)
REMARK    1  A    between atoms: N2_5  and  C4_6 
REMARK    2  A    between atoms: C7_9  and  N3_10 
REMARK    3  A    between atoms: C10_13  and  C11_14 
REMARK    4  A    between atoms: C11_14  and  C12_15 
REMARK    5  A    between atoms: C12_15  and  C13_16 
REMARK    6  A    between atoms: C13_16  and  C14_17 
ROOT
HETATM    1  N3  UNL     1      26.091   3.785  49.751  1.00  0.00    -0.300 N 
HETATM    2  C8  UNL     1      24.750   3.696  50.296  1.00  0.00     0.151 C 
HETATM    3  C9  UNL     1      25.086   3.362  51.749  1.00  0.00     0.078 C 
HETATM    4  C10 UNL     1      26.298   2.523  51.574  1.00  0.00     0.037 C 
HETATM    5  N5  UNL     1      26.801   2.813  50.445  1.00  0.00    -0.186 NA
ENDROOT
BRANCH   1   6
HETATM    6  C7  UNL     1      26.413   4.748  48.711  1.00  0.00     0.104 C 
HETATM    7  C6  UNL     1      25.494   5.909  48.889  1.00  0.00     0.029 C 
HETATM    8  C5  UNL     1      25.962   7.204  48.317  1.00  0.00     0.027 C 
HETATM    9  C4  UNL     1      27.360   7.453  48.866  1.00  0.00     0.079 C 
HETATM   10  C20 UNL     1      28.237   6.433  48.243  1.00  0.00     0.027 C 
HETATM   11  C19 UNL     1      27.853   5.038  48.618  1.00  0.00     0.029 C 
BRANCH   9  12
HETATM   12  N2  UNL     1      27.744   8.787  48.740  1.00  0.00    -0.405 N 
HETATM   13  C3  UNL     1      26.925   9.654  47.955  1.00  0.00     0.147 C 
HETATM   14  C2  UNL     1      27.115  11.074  48.443  1.00  0.00     0.291 C 
HETATM   15  N1  UNL     1      28.515  11.415  48.271  1.00  0.00     0.087 N 
HETATM   16  C1  UNL     1      28.750  12.816  48.429  1.00  0.00     0.310 C 
HETATM   17  C22 UNL     1      29.385  10.562  49.023  1.00  0.00     0.291 C 
HETATM   18  C21 UNL     1      28.613   9.395  49.658  1.00  0.00     0.147 C 
ENDBRANCH   9  12
ENDBRANCH   1   6
BRANCH   4  19
HETATM   19  C11 UNL     1      26.868   1.509  52.514  1.00  0.00     0.083 C 
BRANCH  19  20
HETATM   20  C12 UNL     1      25.912   0.464  52.847  1.00  0.00    -0.019 C 
BRANCH  20  21
HETATM   21  C13 UNL     1      24.828  -0.146  53.212  1.00  0.00     0.027 C 
BRANCH  21  22
HETATM   22  C14 UNL     1      23.401  -0.292  53.395  1.00  0.00     0.050 A 
HETATM   23  C15 UNL     1      22.911  -0.843  54.487  1.00  0.00     0.060 A 
HETATM   24 CL1  UNL     1      23.834  -1.454  55.815  1.00  0.00    -0.082 Cl
HETATM   25  C16 UNL     1      21.461  -0.955  54.593  1.00  0.00     0.024 A 
HETATM   26  C17 UNL     1      20.801  -0.477  53.553  1.00  0.00    -0.006 A 
HETATM   27  C18 UNL     1      21.242   0.155  52.290  1.00  0.00     0.147 A 
HETATM   28  N4  UNL     1      22.681   0.217  52.294  1.00  0.00    -0.385 N 
HETATM   29  H26 UNL     1      23.074   0.654  51.441  1.00  0.00     0.160 HD
ENDBRANCH  21  22
ENDBRANCH  20  21
ENDBRANCH  19  20
ENDBRANCH   4  19
TORSDOF 6
ENDMDL
MODEL 9
REMARK VINA RESULT:      -7.6      3.916      5.711
REMARK  6 active torsions:
REMARK  status: ('A' for Active; 'I' for Inactive)
REMARK    1  A    between atoms: N2_5  and  C4_6 
REMARK    2  A    between atoms: C7_9  and  N3_10 
REMARK    3  A    between atoms: C10_13  and  C11_14 
REMARK    4  A    between atoms: C11_14  and  C12_15 
REMARK    5  A    between atoms: C12_15  and  C13_16 
REMARK    6  A    between atoms: C13_16  and  C14_17 
ROOT
HETATM    1  N3  UNL     1      28.555   6.057  48.330  1.00  0.00    -0.300 N 
HETATM    2  C8  UNL     1      27.305   6.784  48.204  1.00  0.00     0.151 C 
HETATM    3  C9  UNL     1      26.449   5.992  49.192  1.00  0.00     0.078 C 
HETATM    4  C10 UNL     1      26.989   4.623  49.004  1.00  0.00     0.037 C 
HETATM    5  N5  UNL     1      28.159   4.739  48.523  1.00  0.00    -0.186 NA
ENDROOT
BRANCH   1   6
HETATM    6  C7  UNL     1      29.831   6.746  48.243  1.00  0.00     0.104 C 
HETATM    7  C6  UNL     1      30.862   5.718  47.916  1.00  0.00     0.029 C 
HETATM    8  C5  UNL     1      32.104   6.225  47.266  1.00  0.00     0.027 C 
HETATM    9  C4  UNL     1      31.671   7.048  46.060  1.00  0.00     0.079 C 
HETATM   10  C20 UNL     1      31.014   8.261  46.603  1.00  0.00     0.027 C 
HETATM   11  C19 UNL     1      29.785   7.945  47.392  1.00  0.00     0.029 C 
BRANCH   9  12
HETATM   12  N2  UNL     1      32.712   7.237  45.152  1.00  0.00    -0.405 N 
HETATM   13  C3  UNL     1      33.089   8.576  44.829  1.00  0.00     0.147 C 
HETATM   14  C2  UNL     1      34.538   8.577  44.390  1.00  0.00     0.291 C 
HETATM   15  N1  UNL     1      34.644   7.729  43.217  1.00  0.00     0.087 N 
HETATM   16  C1  UNL     1      35.901   7.884  42.554  1.00  0.00     0.310 C 
HETATM   17  C22 UNL     1      34.257   6.376  43.481  1.00  0.00     0.291 C 
HETATM   18  C21 UNL     1      33.651   6.231  44.885  1.00  0.00     0.147 C 
ENDBRANCH   9  12
ENDBRANCH   1   6
BRANCH   4  19
HETATM   19  C11 UNL     1      26.329   3.315  49.302  1.00  0.00     0.083 C 
BRANCH  19  20
HETATM   20  C12 UNL     1      26.403   2.968  50.714  1.00  0.00    -0.019 C 
BRANCH  20  21
HETATM   21  C13 UNL     1      26.709   2.372  51.824  1.00  0.00     0.027 C 
BRANCH  21  22
HETATM   22  C14 UNL     1      27.584   1.687  52.749  1.00  0.00     0.050 A 
HETATM   23  C15 UNL     1      27.546   0.375  52.874  1.00  0.00     0.060 A 
HETATM   24 CL1  UNL     1      26.504  -0.694  52.004  1.00  0.00    -0.082 Cl
HETATM   25  C16 UNL     1      28.460  -0.237  53.830  1.00  0.00     0.024 A 
HETATM   26  C17 UNL     1      29.233   0.622  54.471  1.00  0.00    -0.006 A 
HETATM   27  C18 UNL     1      29.360   2.095  54.412  1.00  0.00     0.147 A 
HETATM   28  N4  UNL     1      28.419   2.590  53.439  1.00  0.00    -0.385 N 
HETATM   29  H26 UNL     1      28.447   3.620  53.331  1.00  0.00     0.160 HD
ENDBRANCH  21  22
ENDBRANCH  20  21
ENDBRANCH  19  20
ENDBRANCH   4  19
TORSDOF 6
ENDMDL
