MODEL 1
REMARK VINA RESULT:      -7.1      0.000      0.000
REMARK  3 active torsions:
REMARK  status: ('A' for Active; 'I' for Inactive)
REMARK    1  A    between atoms: C2_2  and  C3_3 
REMARK    2  A    between atoms: C13_15  and  O1_16 
REMARK    3  A    between atoms: C15_18  and  O2_19 
ROOT
HETATM    1  C3  UNL     1      34.363   6.919  43.617  1.00  0.00     0.041 C 
HETATM    2  C4  UNL     1      33.862   5.978  44.458  1.00  0.00    -0.002 C 
HETATM    3  C5  UNL     1      33.102   4.704  44.669  1.00  0.00     0.036 C 
HETATM    4  C6  UNL     1      32.804   3.984  45.784  1.00  0.00     0.089 C 
HETATM    5  N1  UNL     1      32.668   3.480  47.103  1.00  0.00    -0.359 N 
HETATM    6  C7  UNL     1      32.777   1.993  47.015  1.00  0.00     0.152 C 
HETATM    7  C8  UNL     1      32.514   4.626  48.004  1.00  0.00     0.224 A 
HETATM    8  N2  UNL     1      33.776   4.247  48.044  1.00  0.00    -0.056 NA
HETATM    9  C9  UNL     1      34.794   5.118  48.230  1.00  0.00     0.641 A 
HETATM   10  C10 UNL     1      33.522   5.665  48.205  1.00  0.00     0.252 A 
HETATM   11  C11 UNL     1      32.267   6.161  48.177  1.00  0.00     0.106 A 
HETATM   12  C12 UNL     1      31.895   7.511  48.312  1.00  0.00     0.035 A 
HETATM   13  C13 UNL     1      30.561   7.717  48.249  1.00  0.00     0.099 A 
HETATM   14  C15 UNL     1      29.635   6.730  48.069  1.00  0.00     0.101 A 
HETATM   15  C17 UNL     1      29.989   5.425  47.934  1.00  0.00     0.048 A 
HETATM   16  C18 UNL     1      31.304   5.151  47.987  1.00  0.00    -0.002 A 
HETATM   17  C19 UNL     1      34.257   6.704  47.370  1.00  0.00     0.242 C 
HETATM   18  O3  UNL     1      34.939   7.727  47.530  1.00  0.00    -0.277 OA
HETATM   19  N3  UNL     1      33.986   6.230  45.917  1.00  0.00    -0.230 NA
HETATM   20  H19 UNL     1      34.533   7.054  45.653  1.00  0.00     0.136 HD
ENDROOT
BRANCH   1  21
HETATM   21  C2  UNL     1      33.802   6.155  42.569  1.00  0.00    -0.030 C 
HETATM   22  C1  UNL     1      34.962   6.280  41.866  1.00  0.00     0.042 C 
ENDBRANCH   1  21
BRANCH  13  23
HETATM   23  O1  UNL     1      30.042   8.978  48.371  1.00  0.00    -0.353 OA
HETATM   24  C14 UNL     1      30.506   9.936  49.309  1.00  0.00     0.210 C 
ENDBRANCH  13  23
BRANCH  14  25
HETATM   25  O2  UNL     1      28.293   6.827  47.996  1.00  0.00    -0.353 OA
HETATM   26  C16 UNL     1      27.297   5.995  48.522  1.00  0.00     0.210 C 
ENDBRANCH  14  25
TORSDOF 3
ENDMDL
MODEL 2
REMARK VINA RESULT:      -7.0      8.841     11.742
REMARK  3 active torsions:
REMARK  status: ('A' for Active; 'I' for Inactive)
REMARK    1  A    between atoms: C2_2  and  C3_3 
REMARK    2  A    between atoms: C13_15  and  O1_16 
REMARK    3  A    between atoms: C15_18  and  O2_19 
ROOT
HETATM    1  C3  UNL     1      20.247   2.566  48.731  1.00  0.00     0.041 C 
HETATM    2  C4  UNL     1      21.430   3.107  49.120  1.00  0.00    -0.002 C 
HETATM    3  C5  UNL     1      22.807   3.590  48.777  1.00  0.00     0.036 C 
HETATM    4  C6  UNL     1      23.794   4.159  49.519  1.00  0.00     0.089 C 
HETATM    5  N1  UNL     1      24.598   4.718  50.546  1.00  0.00    -0.359 N 
HETATM    6  C7  UNL     1      25.349   5.857  49.940  1.00  0.00     0.152 C 
HETATM    7  C8  UNL     1      24.329   3.972  51.778  1.00  0.00     0.224 A 
HETATM    8  N2  UNL     1      23.609   5.076  51.809  1.00  0.00    -0.056 NA
HETATM    9  C9  UNL     1      22.394   5.139  52.402  1.00  0.00     0.641 A 
HETATM   10  C10 UNL     1      23.029   3.909  52.444  1.00  0.00     0.252 A 
HETATM   11  C11 UNL     1      23.679   2.726  52.467  1.00  0.00     0.106 A 
HETATM   12  C12 UNL     1      23.219   1.526  53.041  1.00  0.00     0.035 A 
HETATM   13  C13 UNL     1      24.086   0.498  52.918  1.00  0.00     0.099 A 
HETATM   14  C15 UNL     1      25.300   0.580  52.299  1.00  0.00     0.101 A 
HETATM   15  C17 UNL     1      25.747   1.735  51.740  1.00  0.00     0.048 A 
HETATM   16  C18 UNL     1      24.931   2.799  51.827  1.00  0.00    -0.002 A 
HETATM   17  C19 UNL     1      21.614   3.449  52.122  1.00  0.00     0.242 C 
HETATM   18  O3  UNL     1      20.557   3.178  52.710  1.00  0.00    -0.277 OA
HETATM   19  N3  UNL     1      21.642   3.312  50.576  1.00  0.00    -0.230 NA
HETATM   20  H19 UNL     1      20.671   3.009  50.684  1.00  0.00     0.136 HD
ENDROOT
BRANCH   1  21
HETATM   21  C2  UNL     1      20.788   2.539  47.425  1.00  0.00    -0.030 C 
HETATM   22  C1  UNL     1      19.698   3.215  46.968  1.00  0.00     0.042 C 
ENDBRANCH   1  21
BRANCH  13  23
HETATM   23  O1  UNL     1      23.784  -0.735  53.432  1.00  0.00    -0.353 OA
HETATM   24  C14 UNL     1      22.765  -0.962  54.393  1.00  0.00     0.210 C 
ENDBRANCH  13  23
BRANCH  14  25
HETATM   25  O2  UNL     1      26.233  -0.377  52.127  1.00  0.00    -0.353 OA
HETATM   26  C16 UNL     1      27.377  -0.670  52.880  1.00  0.00     0.210 C 
ENDBRANCH  14  25
TORSDOF 3
ENDMDL
MODEL 3
REMARK VINA RESULT:      -6.6     10.294     12.525
REMARK  3 active torsions:
REMARK  status: ('A' for Active; 'I' for Inactive)
REMARK    1  A    between atoms: C2_2  and  C3_3 
REMARK    2  A    between atoms: C13_15  and  O1_16 
REMARK    3  A    between atoms: C15_18  and  O2_19 
ROOT
HETATM    1  C3  UNL     1      22.634   6.519  50.404  1.00  0.00     0.041 C 
HETATM    2  C4  UNL     1      21.796   5.463  50.237  1.00  0.00    -0.002 C 
HETATM    3  C5  UNL     1      20.430   4.861  50.371  1.00  0.00     0.036 C 
HETATM    4  C6  UNL     1      19.920   3.650  50.022  1.00  0.00     0.089 C 
HETATM    5  N1  UNL     1      19.704   2.331  49.546  1.00  0.00    -0.359 N 
HETATM    6  C7  UNL     1      18.343   2.305  48.934  1.00  0.00     0.152 C 
HETATM    7  C8  UNL     1      20.917   1.556  49.819  1.00  0.00     0.224 A 
HETATM    8  N2  UNL     1      20.963   1.947  48.561  1.00  0.00    -0.056 NA
HETATM    9  C9  UNL     1      22.123   2.239  47.929  1.00  0.00     0.641 A 
HETATM   10  C10 UNL     1      22.233   1.845  49.252  1.00  0.00     0.252 A 
HETATM   11  C11 UNL     1      22.301   1.456  50.543  1.00  0.00     0.106 A 
HETATM   12  C12 UNL     1      23.466   1.327  51.321  1.00  0.00     0.035 A 
HETATM   13  C13 UNL     1      23.234   0.913  52.585  1.00  0.00     0.099 A 
HETATM   14  C15 UNL     1      21.996   0.639  53.093  1.00  0.00     0.101 A 
HETATM   15  C17 UNL     1      20.867   0.766  52.347  1.00  0.00     0.048 A 
HETATM   16  C18 UNL     1      21.029   1.176  51.077  1.00  0.00    -0.002 A 
HETATM   17  C19 UNL     1      23.236   2.991  49.248  1.00  0.00     0.242 C 
HETATM   18  O3  UNL     1      24.427   3.197  48.973  1.00  0.00    -0.277 OA
HETATM   19  N3  UNL     1      22.391   4.186  49.765  1.00  0.00    -0.230 NA
HETATM   20  H19 UNL     1      23.263   4.714  49.669  1.00  0.00     0.136 HD
ENDROOT
BRANCH   1  21
HETATM   21  C2  UNL     1      21.522   7.205  50.943  1.00  0.00    -0.030 C 
HETATM   22  C1  UNL     1      21.697   8.196  50.027  1.00  0.00     0.042 C 
ENDBRANCH   1  21
BRANCH  13  23
HETATM   23  O1  UNL     1      24.269   0.733  53.463  1.00  0.00    -0.353 OA
HETATM   24  C14 UNL     1      25.087  -0.426  53.494  1.00  0.00     0.210 C 
ENDBRANCH  13  23
BRANCH  14  25
HETATM   25  O2  UNL     1      21.658   0.220  54.328  1.00  0.00    -0.353 OA
HETATM   26  C16 UNL     1      21.649  -1.070  54.874  1.00  0.00     0.210 C 
ENDBRANCH  14  25
TORSDOF 3
ENDMDL
MODEL 4
REMARK VINA RESULT:      -6.6      2.760      6.289
REMARK  3 active torsions:
REMARK  status: ('A' for Active; 'I' for Inactive)
REMARK    1  A    between atoms: C2_2  and  C3_3 
REMARK    2  A    between atoms: C13_15  and  O1_16 
REMARK    3  A    between atoms: C15_18  and  O2_19 
ROOT
HETATM    1  C3  UNL     1      27.678   5.477  48.668  1.00  0.00     0.041 C 
HETATM    2  C4  UNL     1      28.370   6.612  48.391  1.00  0.00    -0.002 C 
HETATM    3  C5  UNL     1      28.396   8.018  47.874  1.00  0.00     0.036 C 
HETATM    4  C6  UNL     1      29.387   8.945  47.776  1.00  0.00     0.089 C 
HETATM    5  N1  UNL     1      30.609   9.665  47.816  1.00  0.00    -0.359 N 
HETATM    6  C7  UNL     1      30.272  11.076  48.169  1.00  0.00     0.152 C 
HETATM    7  C8  UNL     1      31.692   8.720  47.531  1.00  0.00     0.224 A 
HETATM    8  N2  UNL     1      31.620   8.870  48.838  1.00  0.00    -0.056 NA
HETATM    9  C9  UNL     1      31.908   7.871  49.705  1.00  0.00     0.641 A 
HETATM   10  C10 UNL     1      32.024   7.562  48.360  1.00  0.00     0.252 A 
HETATM   11  C11 UNL     1      32.126   7.299  47.040  1.00  0.00     0.106 A 
HETATM   12  C12 UNL     1      32.497   6.074  46.455  1.00  0.00     0.035 A 
HETATM   13  C13 UNL     1      32.521   6.102  45.105  1.00  0.00     0.099 A 
HETATM   14  C15 UNL     1      32.215   7.197  44.348  1.00  0.00     0.101 A 
HETATM   15  C17 UNL     1      31.852   8.381  44.909  1.00  0.00     0.048 A 
HETATM   16  C18 UNL     1      31.809   8.422  46.251  1.00  0.00    -0.002 A 
HETATM   17  C19 UNL     1      31.345   6.291  48.851  1.00  0.00     0.242 C 
HETATM   18  O3  UNL     1      31.646   5.201  49.360  1.00  0.00    -0.277 OA
HETATM   19  N3  UNL     1      29.845   6.573  48.568  1.00  0.00    -0.230 NA
HETATM   20  H19 UNL     1      29.700   5.634  48.948  1.00  0.00     0.136 HD
ENDROOT
BRANCH   1  21
HETATM   21  C2  UNL     1      26.539   6.156  48.176  1.00  0.00    -0.030 C 
HETATM   22  C1  UNL     1      25.753   5.435  49.021  1.00  0.00     0.042 C 
ENDBRANCH   1  21
BRANCH  13  23
HETATM   23  O1  UNL     1      32.869   4.987  44.389  1.00  0.00    -0.353 OA
HETATM   24  C14 UNL     1      34.210   4.586  44.156  1.00  0.00     0.210 C 
ENDBRANCH  13  23
BRANCH  14  25
HETATM   25  O2  UNL     1      32.211   7.330  43.007  1.00  0.00    -0.353 OA
HETATM   26  C16 UNL     1      33.220   7.763  42.139  1.00  0.00     0.210 C 
ENDBRANCH  14  25
TORSDOF 3
ENDMDL
MODEL 5
REMARK VINA RESULT:      -6.5     22.435     24.755
REMARK  3 active torsions:
REMARK  status: ('A' for Active; 'I' for Inactive)
REMARK    1  A    between atoms: C2_2  and  C3_3 
REMARK    2  A    between atoms: C13_15  and  O1_16 
REMARK    3  A    between atoms: C15_18  and  O2_19 
ROOT
HETATM    1  C3  UNL     1      36.725  -1.018  71.451  1.00  0.00     0.041 C 
HETATM    2  C4  UNL     1      37.364  -1.824  70.564  1.00  0.00    -0.002 C 
HETATM    3  C5  UNL     1      38.077  -3.108  70.263  1.00  0.00     0.036 C 
HETATM    4  C6  UNL     1      38.602  -3.622  69.118  1.00  0.00     0.089 C 
HETATM    5  N1  UNL     1      39.035  -3.867  67.790  1.00  0.00    -0.359 N 
HETATM    6  C7  UNL     1      38.820  -5.321  67.523  1.00  0.00     0.152 C 
HETATM    7  C8  UNL     1      39.476  -2.590  67.222  1.00  0.00     0.224 A 
HETATM    8  N2  UNL     1      38.245  -2.812  66.808  1.00  0.00    -0.056 NA
HETATM    9  C9  UNL     1      37.358  -1.814  66.586  1.00  0.00     0.641 A 
HETATM   10  C10 UNL     1      38.613  -1.427  67.024  1.00  0.00     0.252 A 
HETATM   11  C11 UNL     1      39.848  -1.088  67.451  1.00  0.00     0.106 A 
HETATM   12  C12 UNL     1      40.321   0.213  67.704  1.00  0.00     0.035 A 
HETATM   13  C13 UNL     1      41.606   0.254  68.119  1.00  0.00     0.099 A 
HETATM   14  C15 UNL     1      42.398  -0.845  68.290  1.00  0.00     0.101 A 
HETATM   15  C17 UNL     1      41.945  -2.104  68.050  1.00  0.00     0.048 A 
HETATM   16  C18 UNL     1      40.672  -2.215  67.634  1.00  0.00    -0.002 A 
HETATM   17  C19 UNL     1      37.755  -0.498  67.872  1.00  0.00     0.242 C 
HETATM   18  O3  UNL     1      37.196   0.605  67.785  1.00  0.00    -0.277 OA
HETATM   19  N3  UNL     1      37.625  -1.277  69.208  1.00  0.00    -0.230 NA
HETATM   20  H19 UNL     1      37.079  -0.466  69.511  1.00  0.00     0.136 HD
ENDROOT
BRANCH   1  21
HETATM   21  C2  UNL     1      36.959  -2.032  72.408  1.00  0.00    -0.030 C 
HETATM   22  C1  UNL     1      35.655  -1.962  72.791  1.00  0.00     0.042 C 
ENDBRANCH   1  21
BRANCH  13  23
HETATM   23  O1  UNL     1      42.212   1.449  68.400  1.00  0.00    -0.353 OA
HETATM   24  C14 UNL     1      41.939   2.219  69.560  1.00  0.00     0.210 C 
ENDBRANCH  13  23
BRANCH  14  25
HETATM   25  O2  UNL     1      43.682  -0.913  68.692  1.00  0.00    -0.353 OA
HETATM   26  C16 UNL     1      44.243  -1.511  69.828  1.00  0.00     0.210 C 
ENDBRANCH  14  25
TORSDOF 3
ENDMDL
MODEL 6
REMARK VINA RESULT:      -6.4      6.012      9.703
REMARK  3 active torsions:
REMARK  status: ('A' for Active; 'I' for Inactive)
REMARK    1  A    between atoms: C2_2  and  C3_3 
REMARK    2  A    between atoms: C13_15  and  O1_16 
REMARK    3  A    between atoms: C15_18  and  O2_19 
ROOT
HETATM    1  C3  UNL     1      27.271   6.171  48.633  1.00  0.00     0.041 C 
HETATM    2  C4  UNL     1      26.215   5.367  48.922  1.00  0.00    -0.002 C 
HETATM    3  C5  UNL     1      25.658   3.994  49.147  1.00  0.00     0.036 C 
HETATM    4  C6  UNL     1      24.419   3.548  49.485  1.00  0.00     0.089 C 
HETATM    5  N1  UNL     1      23.051   3.415  49.837  1.00  0.00    -0.359 N 
HETATM    6  C7  UNL     1      22.964   2.308  50.836  1.00  0.00     0.152 C 
HETATM    7  C8  UNL     1      22.301   4.439  49.104  1.00  0.00     0.224 A 
HETATM    8  N2  UNL     1      22.518   4.891  50.323  1.00  0.00    -0.056 NA
HETATM    9  C9  UNL     1      22.703   6.204  50.592  1.00  0.00     0.641 A 
HETATM   10  C10 UNL     1      22.491   5.880  49.263  1.00  0.00     0.252 A 
HETATM   11  C11 UNL     1      22.280   5.525  47.978  1.00  0.00     0.106 A 
HETATM   12  C12 UNL     1      22.240   6.385  46.865  1.00  0.00     0.035 A 
HETATM   13  C13 UNL     1      22.004   5.751  45.696  1.00  0.00     0.099 A 
HETATM   14  C15 UNL     1      21.821   4.403  45.570  1.00  0.00     0.101 A 
HETATM   15  C17 UNL     1      21.863   3.568  46.641  1.00  0.00     0.048 A 
HETATM   16  C18 UNL     1      22.094   4.135  47.837  1.00  0.00    -0.002 A 
HETATM   17  C19 UNL     1      23.610   6.898  49.096  1.00  0.00     0.242 C 
HETATM   18  O3  UNL     1      23.758   8.126  49.007  1.00  0.00    -0.277 OA
HETATM   19  N3  UNL     1      24.877   6.005  49.021  1.00  0.00    -0.230 NA
HETATM   20  H19 UNL     1      25.374   6.892  48.905  1.00  0.00     0.136 HD
ENDROOT
BRANCH   1  21
HETATM   21  C2  UNL     1      28.041   4.988  48.559  1.00  0.00    -0.030 C 
HETATM   22  C1  UNL     1      29.118   5.722  48.165  1.00  0.00     0.042 C 
ENDBRANCH   1  21
BRANCH  13  23
HETATM   23  O1  UNL     1      21.930   6.453  44.523  1.00  0.00    -0.353 OA
HETATM   24  C14 UNL     1      22.993   7.235  44.002  1.00  0.00     0.210 C 
ENDBRANCH  13  23
BRANCH  14  25
HETATM   25  O2  UNL     1      21.579   3.678  44.461  1.00  0.00    -0.353 OA
HETATM   26  C16 UNL     1      20.442   3.627  43.645  1.00  0.00     0.210 C 
ENDBRANCH  14  25
TORSDOF 3
ENDMDL
MODEL 7
REMARK VINA RESULT:      -6.3      5.763     10.083
REMARK  3 active torsions:
REMARK  status: ('A' for Active; 'I' for Inactive)
REMARK    1  A    between atoms: C2_2  and  C3_3 
REMARK    2  A    between atoms: C13_15  and  O1_16 
REMARK    3  A    between atoms: C15_18  and  O2_19 
ROOT
HETATM    1  C3  UNL     1      21.059   3.714  46.716  1.00  0.00     0.041 C 
HETATM    2  C4  UNL     1      21.792   4.826  46.982  1.00  0.00    -0.002 C 
HETATM    3  C5  UNL     1      22.537   6.032  46.496  1.00  0.00     0.036 C 
HETATM    4  C6  UNL     1      23.182   7.038  47.144  1.00  0.00     0.089 C 
HETATM    5  N1  UNL     1      23.753   7.920  48.098  1.00  0.00    -0.359 N 
HETATM    6  C7  UNL     1      23.574   9.306  47.573  1.00  0.00     0.152 C 
HETATM    7  C8  UNL     1      24.247   7.108  49.214  1.00  0.00     0.224 A 
HETATM    8  N2  UNL     1      23.067   7.587  49.553  1.00  0.00    -0.056 NA
HETATM    9  C9  UNL     1      22.204   6.910  50.346  1.00  0.00     0.641 A 
HETATM   10  C10 UNL     1      23.404   6.277  50.072  1.00  0.00     0.252 A 
HETATM   11  C11 UNL     1      24.586   5.691  49.783  1.00  0.00     0.106 A 
HETATM   12  C12 UNL     1      25.025   4.426  50.217  1.00  0.00     0.035 A 
HETATM   13  C13 UNL     1      26.258   4.097  49.776  1.00  0.00     0.099 A 
HETATM   14  C15 UNL     1      27.033   4.894  48.982  1.00  0.00     0.101 A 
HETATM   15  C17 UNL     1      26.613   6.114  48.557  1.00  0.00     0.048 A 
HETATM   16  C18 UNL     1      25.391   6.503  48.960  1.00  0.00    -0.002 A 
HETATM   17  C19 UNL     1      22.458   5.093  49.923  1.00  0.00     0.242 C 
HETATM   18  O3  UNL     1      21.907   4.236  50.629  1.00  0.00    -0.277 OA
HETATM   19  N3  UNL     1      22.191   5.059  48.394  1.00  0.00    -0.230 NA
HETATM   20  H19 UNL     1      21.613   4.244  48.614  1.00  0.00     0.136 HD
ENDROOT
BRANCH   1  21
HETATM   21  C2  UNL     1      21.195   4.057  45.352  1.00  0.00    -0.030 C 
HETATM   22  C1  UNL     1      19.860   3.861  45.176  1.00  0.00     0.042 C 
ENDBRANCH   1  21
BRANCH  13  23
HETATM   23  O1  UNL     1      26.826   2.900  50.119  1.00  0.00    -0.353 OA
HETATM   24  C14 UNL     1      26.736   2.324  51.412  1.00  0.00     0.210 C 
ENDBRANCH  13  23
BRANCH  14  25
HETATM   25  O2  UNL     1      28.268   4.663  48.494  1.00  0.00    -0.353 OA
HETATM   26  C16 UNL     1      29.275   5.563  48.123  1.00  0.00     0.210 C 
ENDBRANCH  14  25
TORSDOF 3
ENDMDL
MODEL 8
REMARK VINA RESULT:      -5.9     23.057     25.364
REMARK  3 active torsions:
REMARK  status: ('A' for Active; 'I' for Inactive)
REMARK    1  A    between atoms: C2_2  and  C3_3 
REMARK    2  A    between atoms: C13_15  and  O1_16 
REMARK    3  A    between atoms: C15_18  and  O2_19 
ROOT
HETATM    1  C3  UNL     1      38.208   1.255  70.317  1.00  0.00     0.041 C 
HETATM    2  C4  UNL     1      38.171  -0.050  69.944  1.00  0.00    -0.002 C 
HETATM    3  C5  UNL     1      37.749  -1.462  70.217  1.00  0.00     0.036 C 
HETATM    4  C6  UNL     1      37.885  -2.616  69.510  1.00  0.00     0.089 C 
HETATM    5  N1  UNL     1      38.181  -3.615  68.547  1.00  0.00    -0.359 N 
HETATM    6  C7  UNL     1      37.012  -4.544  68.509  1.00  0.00     0.152 C 
HETATM    7  C8  UNL     1      39.490  -3.301  67.968  1.00  0.00     0.224 A 
HETATM    8  N2  UNL     1      38.565  -2.853  67.143  1.00  0.00    -0.056 NA
HETATM    9  C9  UNL     1      38.735  -1.743  66.388  1.00  0.00     0.641 A 
HETATM   10  C10 UNL     1      39.794  -2.087  67.212  1.00  0.00     0.252 A 
HETATM   11  C11 UNL     1      40.805  -2.455  68.027  1.00  0.00     0.106 A 
HETATM   12  C12 UNL     1      42.036  -1.794  68.188  1.00  0.00     0.035 A 
HETATM   13  C13 UNL     1      42.865  -2.393  69.071  1.00  0.00     0.099 A 
HETATM   14  C15 UNL     1      42.565  -3.532  69.761  1.00  0.00     0.101 A 
HETATM   15  C17 UNL     1      41.375  -4.173  69.612  1.00  0.00     0.048 A 
HETATM   16  C18 UNL     1      40.504  -3.628  68.747  1.00  0.00    -0.002 A 
HETATM   17  C19 UNL     1      39.781  -0.582  67.437  1.00  0.00     0.242 C 
HETATM   18  O3  UNL     1      40.228   0.450  66.915  1.00  0.00    -0.277 OA
HETATM   19  N3  UNL     1      38.936  -0.436  68.731  1.00  0.00    -0.230 NA
HETATM   20  H19 UNL     1      39.122   0.564  68.620  1.00  0.00     0.136 HD
ENDROOT
BRANCH   1  21
HETATM   21  C2  UNL     1      37.488   0.857  71.466  1.00  0.00    -0.030 C 
HETATM   22  C1  UNL     1      37.116   2.150  71.673  1.00  0.00     0.042 C 
ENDBRANCH   1  21
BRANCH  13  23
HETATM   23  O1  UNL     1      44.104  -1.871  69.331  1.00  0.00    -0.353 OA
HETATM   24  C14 UNL     1      44.331  -0.774  70.202  1.00  0.00     0.210 C 
ENDBRANCH  13  23
BRANCH  14  25
HETATM   25  O2  UNL     1      43.315  -4.207  70.654  1.00  0.00    -0.353 OA
HETATM   26  C16 UNL     1      43.750  -5.538  70.647  1.00  0.00     0.210 C 
ENDBRANCH  14  25
TORSDOF 3
ENDMDL
MODEL 9
REMARK VINA RESULT:      -5.9      7.535     11.450
REMARK  3 active torsions:
REMARK  status: ('A' for Active; 'I' for Inactive)
REMARK    1  A    between atoms: C2_2  and  C3_3 
REMARK    2  A    between atoms: C13_15  and  O1_16 
REMARK    3  A    between atoms: C15_18  and  O2_19 
ROOT
HETATM    1  C3  UNL     1      21.254   6.974  49.225  1.00  0.00     0.041 C 
HETATM    2  C4  UNL     1      21.206   5.799  49.904  1.00  0.00    -0.002 C 
HETATM    3  C5  UNL     1      20.927   5.047  51.170  1.00  0.00     0.036 C 
HETATM    4  C6  UNL     1      20.969   3.724  51.482  1.00  0.00     0.089 C 
HETATM    5  N1  UNL     1      21.104   2.311  51.481  1.00  0.00    -0.359 N 
HETATM    6  C7  UNL     1      20.004   1.768  52.333  1.00  0.00     0.152 C 
HETATM    7  C8  UNL     1      22.240   1.974  50.619  1.00  0.00     0.224 A 
HETATM    8  N2  UNL     1      21.137   1.817  49.914  1.00  0.00    -0.056 NA
HETATM    9  C9  UNL     1      21.083   2.049  48.582  1.00  0.00     0.641 A 
HETATM   10  C10 UNL     1      22.310   2.261  49.187  1.00  0.00     0.252 A 
HETATM   11  C11 UNL     1      23.490   2.457  49.812  1.00  0.00     0.106 A 
HETATM   12  C12 UNL     1      24.691   2.891  49.221  1.00  0.00     0.035 A 
HETATM   13  C13 UNL     1      25.720   2.993  50.091  1.00  0.00     0.099 A 
HETATM   14  C15 UNL     1      25.635   2.711  51.424  1.00  0.00     0.101 A 
HETATM   15  C17 UNL     1      24.477   2.294  52.001  1.00  0.00     0.048 A 
HETATM   16  C18 UNL     1      23.412   2.172  51.189  1.00  0.00    -0.002 A 
HETATM   17  C19 UNL     1      22.267   3.479  48.275  1.00  0.00     0.242 C 
HETATM   18  O3  UNL     1      22.536   3.787  47.105  1.00  0.00    -0.277 OA
HETATM   19  N3  UNL     1      21.712   4.588  49.210  1.00  0.00    -0.230 NA
HETATM   20  H19 UNL     1      21.817   5.192  48.391  1.00  0.00     0.136 HD
ENDROOT
BRANCH   1  21
HETATM   21  C2  UNL     1      20.818   7.585  50.424  1.00  0.00    -0.030 C 
HETATM   22  C1  UNL     1      20.533   8.722  49.733  1.00  0.00     0.042 C 
ENDBRANCH   1  21
BRANCH  13  23
HETATM   23  O1  UNL     1      26.956   3.398  49.666  1.00  0.00    -0.353 OA
HETATM   24  C14 UNL     1      27.186   4.583  48.920  1.00  0.00     0.210 C 
ENDBRANCH  13  23
BRANCH  14  25
HETATM   25  O2  UNL     1      26.594   2.776  52.369  1.00  0.00    -0.353 OA
HETATM   26  C16 UNL     1      27.559   1.832  52.744  1.00  0.00     0.210 C 
ENDBRANCH  14  25
TORSDOF 3
ENDMDL
