MODEL 1
REMARK VINA RESULT:      -7.9      0.000      0.000
REMARK  7 active torsions:
REMARK  status: ('A' for Active; 'I' for Inactive)
REMARK    1  A    between atoms: O1_2  and  C2_3 
REMARK    2  A    between atoms: C7_10  and  N3_11 
REMARK    3  A    between atoms: N3_11  and  C8_12 
REMARK    4  A    between atoms: C8_12  and  C12_17 
REMARK    5  A    between atoms: C9_13  and  C10_14 
REMARK    6  A    between atoms: C14_20  and  O2_21 
REMARK    7  A    between atoms: O2_21  and  C15_22 
ROOT
HETATM    1  C2  UNL     1      22.431   0.600  52.729  1.00  0.00     0.102 A 
HETATM    2  C3  UNL     1      21.347  -0.022  52.146  1.00  0.00     0.042 A 
HETATM    3  C4  UNL     1      21.003   0.229  50.835  1.00  0.00     0.035 A 
HETATM    4  C5  UNL     1      21.781   1.120  50.128  1.00  0.00     0.075 A 
HETATM    5  N1  UNL     1      21.549   1.401  48.858  1.00  0.00    -0.241 NA
HETATM    6  C6  UNL     1      22.310   2.230  48.156  1.00  0.00     0.236 A 
HETATM    7  N2  UNL     1      23.387   2.828  48.751  1.00  0.00    -0.223 NA
HETATM    8  C7  UNL     1      23.652   2.568  50.039  1.00  0.00     0.144 A 
HETATM    9  C13 UNL     1      22.848   1.714  50.745  1.00  0.00     0.075 A 
HETATM   10  C14 UNL     1      23.236   1.511  52.038  1.00  0.00     0.118 A 
ENDROOT
BRANCH   8  11
HETATM   11  N3  UNL     1      24.838   3.146  50.536  1.00  0.00    -0.343 N 
HETATM   12  H7  UNL     1      25.748   3.229  51.004  1.00  0.00     0.167 HD
BRANCH  11  13
HETATM   13  C8  UNL     1      25.030   4.557  50.256  1.00  0.00     0.024 C 
HETATM   14  C9  UNL     1      26.089   4.794  49.450  1.00  0.00     0.028 C 
BRANCH  14  15
HETATM   15  C10 UNL     1      26.875   5.816  48.769  1.00  0.00     0.031 C 
HETATM   16  C11 UNL     1      28.068   5.974  48.170  1.00  0.00     0.188 C 
HETATM   17  F1  UNL     1      28.725   4.788  48.237  1.00  0.00    -0.219 F 
ENDBRANCH  14  15
BRANCH  13  18
HETATM   18  C12 UNL     1      24.196   5.706  50.738  1.00  0.00     0.171 C 
HETATM   19 CL1  UNL     1      23.506   5.296  52.302  1.00  0.00    -0.124 Cl
ENDBRANCH  13  18
ENDBRANCH  11  13
ENDBRANCH   8  11
BRANCH  10  20
HETATM   20  O2  UNL     1      24.271   2.027  52.825  1.00  0.00    -0.342 OA
BRANCH  20  21
HETATM   21  C15 UNL     1      25.564   1.435  52.757  1.00  0.00     0.132 C 
HETATM   22  C16 UNL     1      26.272   1.693  54.067  1.00  0.00     0.062 C 
HETATM   23  C17 UNL     1      26.776   0.441  54.742  1.00  0.00     0.274 C 
HETATM   24  N4  UNL     1      27.549  -0.398  53.887  1.00  0.00     0.084 N 
HETATM   25  C18 UNL     1      28.975  -0.241  54.011  1.00  0.00     0.309 C 
HETATM   26  C19 UNL     1      27.091  -0.444  52.536  1.00  0.00     0.274 C 
HETATM   27  C20 UNL     1      25.631  -0.005  52.425  1.00  0.00     0.062 C 
ENDBRANCH  20  21
ENDBRANCH  10  20
BRANCH   1  28
HETATM   28  O1  UNL     1      22.650   0.246  54.046  1.00  0.00    -0.353 OA
HETATM   29  C1  UNL     1      22.007  -0.866  54.633  1.00  0.00     0.210 C 
ENDBRANCH   1  28
TORSDOF 7
ENDMDL
MODEL 2
REMARK VINA RESULT:      -7.9      2.847      5.725
REMARK  7 active torsions:
REMARK  status: ('A' for Active; 'I' for Inactive)
REMARK    1  A    between atoms: O1_2  and  C2_3 
REMARK    2  A    between atoms: C7_10  and  N3_11 
REMARK    3  A    between atoms: N3_11  and  C8_12 
REMARK    4  A    between atoms: C8_12  and  C12_17 
REMARK    5  A    between atoms: C9_13  and  C10_14 
REMARK    6  A    between atoms: C14_20  and  O2_21 
REMARK    7  A    between atoms: O2_21  and  C15_22 
ROOT
HETATM    1  C2  UNL     1      20.734   0.419  51.944  1.00  0.00     0.102 A 
HETATM    2  C3  UNL     1      19.845  -0.084  52.870  1.00  0.00     0.042 A 
HETATM    3  C4  UNL     1      20.288  -0.703  54.019  1.00  0.00     0.035 A 
HETATM    4  C5  UNL     1      21.650  -0.798  54.211  1.00  0.00     0.075 A 
HETATM    5  N1  UNL     1      22.170  -1.344  55.296  1.00  0.00    -0.241 NA
HETATM    6  C6  UNL     1      23.477  -1.411  55.510  1.00  0.00     0.236 A 
HETATM    7  N2  UNL     1      24.341  -0.897  54.582  1.00  0.00    -0.223 NA
HETATM    8  C7  UNL     1      23.850  -0.335  53.469  1.00  0.00     0.144 A 
HETATM    9  C13 UNL     1      22.497  -0.285  53.268  1.00  0.00     0.075 A 
HETATM   10  C14 UNL     1      22.120   0.333  52.110  1.00  0.00     0.118 A 
ENDROOT
BRANCH   8  11
HETATM   11  N3  UNL     1      24.809   0.260  52.624  1.00  0.00    -0.343 N 
HETATM   12  H7  UNL     1      25.226   0.688  51.790  1.00  0.00     0.167 HD
BRANCH  11  13
HETATM   13  C8  UNL     1      26.122   0.483  53.201  1.00  0.00     0.024 C 
HETATM   14  C9  UNL     1      26.995  -0.510  52.921  1.00  0.00     0.028 C 
BRANCH  14  15
HETATM   15  C10 UNL     1      28.358  -0.998  53.101  1.00  0.00     0.031 C 
HETATM   16  C11 UNL     1      29.384  -0.900  53.963  1.00  0.00     0.188 C 
HETATM   17  F1  UNL     1      29.000  -0.080  54.974  1.00  0.00    -0.219 F 
ENDBRANCH  14  15
BRANCH  13  18
HETATM   18  C12 UNL     1      26.574   1.657  54.016  1.00  0.00     0.171 C 
HETATM   19 CL1  UNL     1      27.910   2.446  53.190  1.00  0.00    -0.124 Cl
ENDBRANCH  13  18
ENDBRANCH  11  13
ENDBRANCH   8  11
BRANCH  10  20
HETATM   20  O2  UNL     1      22.831   0.899  51.045  1.00  0.00    -0.342 OA
BRANCH  20  21
HETATM   21  C15 UNL     1      22.681   2.285  50.761  1.00  0.00     0.132 C 
HETATM   22  C16 UNL     1      23.294   3.072  51.897  1.00  0.00     0.062 C 
HETATM   23  C17 UNL     1      24.339   4.065  51.453  1.00  0.00     0.274 C 
HETATM   24  N4  UNL     1      23.904   4.922  50.401  1.00  0.00     0.084 N 
HETATM   25  C18 UNL     1      23.434   6.215  50.827  1.00  0.00     0.309 C 
HETATM   26  C19 UNL     1      23.057   4.292  49.440  1.00  0.00     0.274 C 
HETATM   27  C20 UNL     1      23.213   2.771  49.469  1.00  0.00     0.062 C 
ENDBRANCH  20  21
ENDBRANCH  10  20
BRANCH   1  28
HETATM   28  O1  UNL     1      20.140   1.009  50.846  1.00  0.00    -0.353 OA
HETATM   29  C1  UNL     1      18.798   0.742  50.494  1.00  0.00     0.210 C 
ENDBRANCH   1  28
TORSDOF 7
ENDMDL
MODEL 3
REMARK VINA RESULT:      -7.7      1.979      2.466
REMARK  7 active torsions:
REMARK  status: ('A' for Active; 'I' for Inactive)
REMARK    1  A    between atoms: O1_2  and  C2_3 
REMARK    2  A    between atoms: C7_10  and  N3_11 
REMARK    3  A    between atoms: N3_11  and  C8_12 
REMARK    4  A    between atoms: C8_12  and  C12_17 
REMARK    5  A    between atoms: C9_13  and  C10_14 
REMARK    6  A    between atoms: C14_20  and  O2_21 
REMARK    7  A    between atoms: O2_21  and  C15_22 
ROOT
HETATM    1  C2  UNL     1      22.345  -0.139  53.702  1.00  0.00     0.102 A 
HETATM    2  C3  UNL     1      21.107   0.009  54.292  1.00  0.00     0.042 A 
HETATM    3  C4  UNL     1      20.261   1.034  53.923  1.00  0.00     0.035 A 
HETATM    4  C5  UNL     1      20.694   1.901  52.943  1.00  0.00     0.075 A 
HETATM    5  N1  UNL     1      19.942   2.893  52.501  1.00  0.00    -0.241 NA
HETATM    6  C6  UNL     1      20.332   3.713  51.535  1.00  0.00     0.236 A 
HETATM    7  N2  UNL     1      21.559   3.542  50.957  1.00  0.00    -0.223 NA
HETATM    8  C7  UNL     1      22.351   2.547  51.380  1.00  0.00     0.144 A 
HETATM    9  C13 UNL     1      21.928   1.717  52.384  1.00  0.00     0.075 A 
HETATM   10  C14 UNL     1      22.812   0.728  52.709  1.00  0.00     0.118 A 
ENDROOT
BRANCH   8  11
HETATM   11  N3  UNL     1      23.549   2.383  50.656  1.00  0.00    -0.343 N 
HETATM   12  H7  UNL     1      24.445   1.986  50.350  1.00  0.00     0.167 HD
BRANCH  11  13
HETATM   13  C8  UNL     1      23.797   3.348  49.600  1.00  0.00     0.024 C 
HETATM   14  C9  UNL     1      24.912   4.081  49.809  1.00  0.00     0.028 C 
BRANCH  14  15
HETATM   15  C10 UNL     1      25.769   5.140  49.288  1.00  0.00     0.031 C 
HETATM   16  C11 UNL     1      26.985   5.310  48.741  1.00  0.00     0.188 C 
HETATM   17  F1  UNL     1      27.579   4.092  48.664  1.00  0.00    -0.219 F 
ENDBRANCH  14  15
BRANCH  13  18
HETATM   18  C12 UNL     1      22.983   3.576  48.361  1.00  0.00     0.171 C 
HETATM   19 CL1  UNL     1      22.482   2.022  47.711  1.00  0.00    -0.124 Cl
ENDBRANCH  13  18
ENDBRANCH  11  13
ENDBRANCH   8  11
BRANCH  10  20
HETATM   20  O2  UNL     1      24.095   0.398  52.260  1.00  0.00    -0.342 OA
BRANCH  20  21
HETATM   21  C15 UNL     1      25.219   0.670  53.089  1.00  0.00     0.132 C 
HETATM   22  C16 UNL     1      26.084  -0.568  53.138  1.00  0.00     0.062 C 
HETATM   23  C17 UNL     1      27.518  -0.323  52.737  1.00  0.00     0.274 C 
HETATM   24  N4  UNL     1      28.127   0.766  53.427  1.00  0.00     0.084 N 
HETATM   25  C18 UNL     1      28.930   0.392  54.562  1.00  0.00     0.309 C 
HETATM   26  C19 UNL     1      27.253   1.866  53.678  1.00  0.00     0.274 C 
HETATM   27  C20 UNL     1      26.046   1.847  52.741  1.00  0.00     0.062 C 
ENDBRANCH  20  21
ENDBRANCH  10  20
BRANCH   1  28
HETATM   28  O1  UNL     1      23.076  -1.210  54.175  1.00  0.00    -0.353 OA
HETATM   29  C1  UNL     1      23.275  -1.421  55.558  1.00  0.00     0.210 C 
ENDBRANCH   1  28
TORSDOF 7
ENDMDL
MODEL 4
REMARK VINA RESULT:      -7.7      3.508      6.560
REMARK  7 active torsions:
REMARK  status: ('A' for Active; 'I' for Inactive)
REMARK    1  A    between atoms: O1_2  and  C2_3 
REMARK    2  A    between atoms: C7_10  and  N3_11 
REMARK    3  A    between atoms: N3_11  and  C8_12 
REMARK    4  A    between atoms: C8_12  and  C12_17 
REMARK    5  A    between atoms: C9_13  and  C10_14 
REMARK    6  A    between atoms: C14_20  and  O2_21 
REMARK    7  A    between atoms: O2_21  and  C15_22 
ROOT
HETATM    1  C2  UNL     1      25.581   0.491  53.244  1.00  0.00     0.102 A 
HETATM    2  C3  UNL     1      25.879  -0.212  54.393  1.00  0.00     0.042 A 
HETATM    3  C4  UNL     1      24.902  -0.901  55.079  1.00  0.00     0.035 A 
HETATM    4  C5  UNL     1      23.619  -0.865  54.575  1.00  0.00     0.075 A 
HETATM    5  N1  UNL     1      22.623  -1.520  55.144  1.00  0.00    -0.241 NA
HETATM    6  C6  UNL     1      21.392  -1.523  54.651  1.00  0.00     0.236 A 
HETATM    7  N2  UNL     1      21.120  -0.827  53.505  1.00  0.00    -0.223 NA
HETATM    8  C7  UNL     1      22.107  -0.150  52.900  1.00  0.00     0.144 A 
HETATM    9  C13 UNL     1      23.368  -0.157  53.433  1.00  0.00     0.075 A 
HETATM   10  C14 UNL     1      24.289   0.548  52.713  1.00  0.00     0.118 A 
ENDROOT
BRANCH   8  11
HETATM   11  N3  UNL     1      21.758   0.449  51.672  1.00  0.00    -0.343 N 
HETATM   12  H7  UNL     1      21.817   0.737  50.689  1.00  0.00     0.167 HD
BRANCH  11  13
HETATM   13  C8  UNL     1      20.482   1.138  51.634  1.00  0.00     0.024 C 
HETATM   14  C9  UNL     1      19.655   0.661  50.677  1.00  0.00     0.028 C 
BRANCH  14  15
HETATM   15  C10 UNL     1      18.344   0.787  50.050  1.00  0.00     0.031 C 
HETATM   16  C11 UNL     1      17.124   0.224  50.084  1.00  0.00     0.188 C 
HETATM   17  F1  UNL     1      17.155  -0.776  51.002  1.00  0.00    -0.219 F 
ENDBRANCH  14  15
BRANCH  13  18
HETATM   18  C12 UNL     1      20.018   2.254  52.522  1.00  0.00     0.171 C 
HETATM   19 CL1  UNL     1      19.869   3.722  51.567  1.00  0.00    -0.124 Cl
ENDBRANCH  13  18
ENDBRANCH  11  13
ENDBRANCH   8  11
BRANCH  10  20
HETATM   20  O2  UNL     1      24.214   1.324  51.551  1.00  0.00    -0.342 OA
BRANCH  20  21
HETATM   21  C15 UNL     1      24.326   2.740  51.646  1.00  0.00     0.132 C 
HETATM   22  C16 UNL     1      24.222   3.319  50.253  1.00  0.00     0.062 C 
HETATM   23  C17 UNL     1      23.144   4.365  50.110  1.00  0.00     0.274 C 
HETATM   24  N4  UNL     1      23.208   5.391  51.097  1.00  0.00     0.084 N 
HETATM   25  C18 UNL     1      23.874   6.597  50.677  1.00  0.00     0.309 C 
HETATM   26  C19 UNL     1      23.603   4.938  52.393  1.00  0.00     0.274 C 
HETATM   27  C20 UNL     1      23.383   3.433  52.550  1.00  0.00     0.062 C 
ENDBRANCH  20  21
ENDBRANCH  10  20
BRANCH   1  28
HETATM   28  O1  UNL     1      26.663   1.128  52.671  1.00  0.00    -0.353 OA
HETATM   29  C1  UNL     1      27.568   1.894  53.439  1.00  0.00     0.210 C 
ENDBRANCH   1  28
TORSDOF 7
ENDMDL
MODEL 5
REMARK VINA RESULT:      -7.4      2.192      5.095
REMARK  7 active torsions:
REMARK  status: ('A' for Active; 'I' for Inactive)
REMARK    1  A    between atoms: O1_2  and  C2_3 
REMARK    2  A    between atoms: C7_10  and  N3_11 
REMARK    3  A    between atoms: N3_11  and  C8_12 
REMARK    4  A    between atoms: C8_12  and  C12_17 
REMARK    5  A    between atoms: C9_13  and  C10_14 
REMARK    6  A    between atoms: C14_20  and  O2_21 
REMARK    7  A    between atoms: O2_21  and  C15_22 
ROOT
HETATM    1  C2  UNL     1      22.949   0.277  53.547  1.00  0.00     0.102 A 
HETATM    2  C3  UNL     1      23.666  -0.807  54.007  1.00  0.00     0.042 A 
HETATM    3  C4  UNL     1      25.043  -0.833  53.933  1.00  0.00     0.035 A 
HETATM    4  C5  UNL     1      25.675   0.262  53.385  1.00  0.00     0.075 A 
HETATM    5  N1  UNL     1      26.991   0.344  53.300  1.00  0.00    -0.241 NA
HETATM    6  C6  UNL     1      27.614   1.406  52.807  1.00  0.00     0.236 A 
HETATM    7  N2  UNL     1      26.883   2.474  52.365  1.00  0.00    -0.223 NA
HETATM    8  C7  UNL     1      25.545   2.427  52.435  1.00  0.00     0.144 A 
HETATM    9  C13 UNL     1      24.925   1.317  52.941  1.00  0.00     0.075 A 
HETATM   10  C14 UNL     1      23.563   1.400  52.983  1.00  0.00     0.118 A 
ENDROOT
BRANCH   8  11
HETATM   11  N3  UNL     1      24.883   3.612  52.056  1.00  0.00    -0.343 N 
HETATM   12  H7  UNL     1      24.329   4.474  52.129  1.00  0.00     0.167 HD
BRANCH  11  13
HETATM   13  C8  UNL     1      24.980   3.982  50.656  1.00  0.00     0.024 C 
HETATM   14  C9  UNL     1      24.308   5.116  50.363  1.00  0.00     0.028 C 
BRANCH  14  15
HETATM   15  C10 UNL     1      23.944   6.061  49.312  1.00  0.00     0.031 C 
HETATM   16  C11 UNL     1      23.460   6.075  48.058  1.00  0.00     0.188 C 
HETATM   17  F1  UNL     1      23.255   4.788  47.679  1.00  0.00    -0.219 F 
ENDBRANCH  14  15
BRANCH  13  18
HETATM   18  C12 UNL     1      25.733   3.268  49.572  1.00  0.00     0.171 C 
HETATM   19 CL1  UNL     1      27.089   4.266  49.065  1.00  0.00    -0.124 Cl
ENDBRANCH  13  18
ENDBRANCH  11  13
ENDBRANCH   8  11
BRANCH  10  20
HETATM   20  O2  UNL     1      22.645   2.373  52.575  1.00  0.00    -0.342 OA
BRANCH  20  21
HETATM   21  C15 UNL     1      21.747   2.087  51.508  1.00  0.00     0.132 C 
HETATM   22  C16 UNL     1      20.887   3.307  51.272  1.00  0.00     0.062 C 
HETATM   23  C17 UNL     1      20.920   3.807  49.849  1.00  0.00     0.274 C 
HETATM   24  N4  UNL     1      20.664   2.793  48.880  1.00  0.00     0.084 N 
HETATM   25  C18 UNL     1      19.306   2.736  48.404  1.00  0.00     0.309 C 
HETATM   26  C19 UNL     1      21.211   1.515  49.206  1.00  0.00     0.274 C 
HETATM   27  C20 UNL     1      22.340   1.636  50.230  1.00  0.00     0.062 C 
ENDBRANCH  20  21
ENDBRANCH  10  20
BRANCH   1  28
HETATM   28  O1  UNL     1      21.581   0.156  53.690  1.00  0.00    -0.353 OA
HETATM   29  C1  UNL     1      20.984  -1.038  54.154  1.00  0.00     0.210 C 
ENDBRANCH   1  28
TORSDOF 7
ENDMDL
MODEL 6
REMARK VINA RESULT:      -7.4      2.544      5.323
REMARK  7 active torsions:
REMARK  status: ('A' for Active; 'I' for Inactive)
REMARK    1  A    between atoms: O1_2  and  C2_3 
REMARK    2  A    between atoms: C7_10  and  N3_11 
REMARK    3  A    between atoms: N3_11  and  C8_12 
REMARK    4  A    between atoms: C8_12  and  C12_17 
REMARK    5  A    between atoms: C9_13  and  C10_14 
REMARK    6  A    between atoms: C14_20  and  O2_21 
REMARK    7  A    between atoms: O2_21  and  C15_22 
ROOT
HETATM    1  C2  UNL     1      22.750   0.259  53.654  1.00  0.00     0.102 A 
HETATM    2  C3  UNL     1      23.710  -0.707  53.868  1.00  0.00     0.042 A 
HETATM    3  C4  UNL     1      24.988  -0.563  53.371  1.00  0.00     0.035 A 
HETATM    4  C5  UNL     1      25.272   0.580  52.656  1.00  0.00     0.075 A 
HETATM    5  N1  UNL     1      26.475   0.823  52.168  1.00  0.00    -0.241 NA
HETATM    6  C6  UNL     1      26.772   1.934  51.509  1.00  0.00     0.236 A 
HETATM    7  N2  UNL     1      25.807   2.885  51.316  1.00  0.00    -0.223 NA
HETATM    8  C7  UNL     1      24.573   2.673  51.797  1.00  0.00     0.144 A 
HETATM    9  C13 UNL     1      24.290   1.514  52.468  1.00  0.00     0.075 A 
HETATM   10  C14 UNL     1      23.008   1.427  52.930  1.00  0.00     0.118 A 
ENDROOT
BRANCH   8  11
HETATM   11  N3  UNL     1      23.677   3.749  51.643  1.00  0.00    -0.343 N 
HETATM   12  H7  UNL     1      22.964   4.451  51.872  1.00  0.00     0.167 HD
BRANCH  11  13
HETATM   13  C8  UNL     1      23.661   4.390  50.340  1.00  0.00     0.024 C 
HETATM   14  C9  UNL     1      22.994   3.673  49.410  1.00  0.00     0.028 C 
BRANCH  14  15
HETATM   15  C10 UNL     1      22.564   3.617  48.017  1.00  0.00     0.031 C 
HETATM   16  C11 UNL     1      22.177   2.724  47.090  1.00  0.00     0.188 C 
HETATM   17  F1  UNL     1      22.207   1.494  47.663  1.00  0.00    -0.219 F 
ENDBRANCH  14  15
BRANCH  13  18
HETATM   18  C12 UNL     1      24.268   5.709  49.963  1.00  0.00     0.171 C 
HETATM   19 CL1  UNL     1      25.643   5.424  48.905  1.00  0.00    -0.124 Cl
ENDBRANCH  13  18
ENDBRANCH  11  13
ENDBRANCH   8  11
BRANCH  10  20
HETATM   20  O2  UNL     1      21.889   2.261  52.827  1.00  0.00    -0.342 OA
BRANCH  20  21
HETATM   21  C15 UNL     1      20.777   1.848  52.041  1.00  0.00     0.132 C 
HETATM   22  C16 UNL     1      19.871   3.041  51.837  1.00  0.00     0.062 C 
HETATM   23  C17 UNL     1      19.575   3.338  50.388  1.00  0.00     0.274 C 
HETATM   24  N4  UNL     1      19.118   2.205  49.654  1.00  0.00     0.084 N 
HETATM   25  C18 UNL     1      17.689   2.111  49.510  1.00  0.00     0.309 C 
HETATM   26  C19 UNL     1      19.740   0.974  50.023  1.00  0.00     0.274 C 
HETATM   27  C20 UNL     1      21.070   1.212  50.739  1.00  0.00     0.062 C 
ENDBRANCH  20  21
ENDBRANCH  10  20
BRANCH   1  28
HETATM   28  O1  UNL     1      21.520  -0.027  54.213  1.00  0.00    -0.353 OA
HETATM   29  C1  UNL     1      20.939  -1.311  54.115  1.00  0.00     0.210 C 
ENDBRANCH   1  28
TORSDOF 7
ENDMDL
MODEL 7
REMARK VINA RESULT:      -7.3      1.944      4.818
REMARK  7 active torsions:
REMARK  status: ('A' for Active; 'I' for Inactive)
REMARK    1  A    between atoms: O1_2  and  C2_3 
REMARK    2  A    between atoms: C7_10  and  N3_11 
REMARK    3  A    between atoms: N3_11  and  C8_12 
REMARK    4  A    between atoms: C8_12  and  C12_17 
REMARK    5  A    between atoms: C9_13  and  C10_14 
REMARK    6  A    between atoms: C14_20  and  O2_21 
REMARK    7  A    between atoms: O2_21  and  C15_22 
ROOT
HETATM    1  C2  UNL     1      23.878  -0.159  53.249  1.00  0.00     0.102 A 
HETATM    2  C3  UNL     1      24.530  -0.475  54.423  1.00  0.00     0.042 A 
HETATM    3  C4  UNL     1      25.776   0.042  54.705  1.00  0.00     0.035 A 
HETATM    4  C5  UNL     1      26.345   0.887  53.777  1.00  0.00     0.075 A 
HETATM    5  N1  UNL     1      27.521   1.456  53.972  1.00  0.00    -0.241 NA
HETATM    6  C6  UNL     1      28.065   2.297  53.104  1.00  0.00     0.236 A 
HETATM    7  N2  UNL     1      27.396   2.605  51.951  1.00  0.00    -0.223 NA
HETATM    8  C7  UNL     1      26.200   2.045  51.717  1.00  0.00     0.144 A 
HETATM    9  C13 UNL     1      25.663   1.174  52.626  1.00  0.00     0.075 A 
HETATM   10  C14 UNL     1      24.432   0.691  52.287  1.00  0.00     0.118 A 
ENDROOT
BRANCH   8  11
HETATM   11  N3  UNL     1      25.541   2.501  50.557  1.00  0.00    -0.343 N 
HETATM   12  H7  UNL     1      25.003   2.483  49.684  1.00  0.00     0.167 HD
BRANCH  11  13
HETATM   13  C8  UNL     1      25.533   3.937  50.347  1.00  0.00     0.024 C 
HETATM   14  C9  UNL     1      26.408   4.335  49.398  1.00  0.00     0.028 C 
BRANCH  14  15
HETATM   15  C10 UNL     1      26.956   5.474  48.669  1.00  0.00     0.031 C 
HETATM   16  C11 UNL     1      27.086   6.807  48.783  1.00  0.00     0.188 C 
HETATM   17  F1  UNL     1      26.519   7.180  49.958  1.00  0.00    -0.219 F 
ENDBRANCH  14  15
BRANCH  13  18
HETATM   18  C12 UNL     1      24.675   4.957  51.035  1.00  0.00     0.171 C 
HETATM   19 CL1  UNL     1      23.432   5.505  49.921  1.00  0.00    -0.124 Cl
ENDBRANCH  13  18
ENDBRANCH  11  13
ENDBRANCH   8  11
BRANCH  10  20
HETATM   20  O2  UNL     1      23.603   0.864  51.173  1.00  0.00    -0.342 OA
BRANCH  20  21
HETATM   21  C15 UNL     1      22.588   1.861  51.203  1.00  0.00     0.132 C 
HETATM   22  C16 UNL     1      21.282   1.221  50.792  1.00  0.00     0.062 C 
HETATM   23  C17 UNL     1      20.171   1.409  51.795  1.00  0.00     0.274 C 
HETATM   24  N4  UNL     1      19.983   2.765  52.194  1.00  0.00     0.084 N 
HETATM   25  C18 UNL     1      18.932   3.462  51.500  1.00  0.00     0.309 C 
HETATM   26  C19 UNL     1      21.192   3.517  52.309  1.00  0.00     0.274 C 
HETATM   27  C20 UNL     1      22.406   2.602  52.471  1.00  0.00     0.062 C 
ENDBRANCH  20  21
ENDBRANCH  10  20
BRANCH   1  28
HETATM   28  O1  UNL     1      22.639  -0.752  53.109  1.00  0.00    -0.353 OA
HETATM   29  C1  UNL     1      21.934  -1.273  54.218  1.00  0.00     0.210 C 
ENDBRANCH   1  28
TORSDOF 7
ENDMDL
MODEL 8
REMARK VINA RESULT:      -7.1      3.040      5.815
REMARK  7 active torsions:
REMARK  status: ('A' for Active; 'I' for Inactive)
REMARK    1  A    between atoms: O1_2  and  C2_3 
REMARK    2  A    between atoms: C7_10  and  N3_11 
REMARK    3  A    between atoms: N3_11  and  C8_12 
REMARK    4  A    between atoms: C8_12  and  C12_17 
REMARK    5  A    between atoms: C9_13  and  C10_14 
REMARK    6  A    between atoms: C14_20  and  O2_21 
REMARK    7  A    between atoms: O2_21  and  C15_22 
ROOT
HETATM    1  C2  UNL     1      25.866   4.323  49.833  1.00  0.00     0.102 A 
HETATM    2  C3  UNL     1      25.535   5.604  49.444  1.00  0.00     0.042 A 
HETATM    3  C4  UNL     1      24.340   6.177  49.825  1.00  0.00     0.035 A 
HETATM    4  C5  UNL     1      23.491   5.426  50.609  1.00  0.00     0.075 A 
HETATM    5  N1  UNL     1      22.339   5.899  51.051  1.00  0.00    -0.241 NA
HETATM    6  C6  UNL     1      21.529   5.201  51.834  1.00  0.00     0.236 A 
HETATM    7  N2  UNL     1      21.882   3.936  52.216  1.00  0.00    -0.223 NA
HETATM    8  C7  UNL     1      23.043   3.421  51.787  1.00  0.00     0.144 A 
HETATM    9  C13 UNL     1      23.859   4.160  50.973  1.00  0.00     0.075 A 
HETATM   10  C14 UNL     1      25.023   3.537  50.625  1.00  0.00     0.118 A 
ENDROOT
BRANCH   8  11
HETATM   11  N3  UNL     1      23.370   2.156  52.315  1.00  0.00    -0.343 N 
HETATM   12  H7  UNL     1      23.880   1.428  52.828  1.00  0.00     0.167 HD
BRANCH  11  13
HETATM   13  C8  UNL     1      22.441   1.080  52.025  1.00  0.00     0.024 C 
HETATM   14  C9  UNL     1      22.132   0.343  53.114  1.00  0.00     0.028 C 
BRANCH  14  15
HETATM   15  C10 UNL     1      21.363  -0.788  53.622  1.00  0.00     0.031 C 
HETATM   16  C11 UNL     1      21.432  -1.746  54.562  1.00  0.00     0.188 C 
HETATM   17  F1  UNL     1      22.599  -1.582  55.235  1.00  0.00    -0.219 F 
ENDBRANCH  14  15
BRANCH  13  18
HETATM   18  C12 UNL     1      21.815   0.744  50.704  1.00  0.00     0.171 C 
HETATM   19 CL1  UNL     1      20.109   1.162  50.756  1.00  0.00    -0.124 Cl
ENDBRANCH  13  18
ENDBRANCH  11  13
ENDBRANCH   8  11
BRANCH  10  20
HETATM   20  O2  UNL     1      25.553   2.270  50.889  1.00  0.00    -0.342 OA
BRANCH  20  21
HETATM   21  C15 UNL     1      26.224   2.034  52.123  1.00  0.00     0.132 C 
HETATM   22  C16 UNL     1      26.139   0.558  52.434  1.00  0.00     0.062 C 
HETATM   23  C17 UNL     1      27.481  -0.090  52.673  1.00  0.00     0.274 C 
HETATM   24  N4  UNL     1      28.288   0.598  53.625  1.00  0.00     0.084 N 
HETATM   25  C18 UNL     1      28.241   0.062  54.961  1.00  0.00     0.309 C 
HETATM   26  C19 UNL     1      28.175   2.021  53.574  1.00  0.00     0.274 C 
HETATM   27  C20 UNL     1      27.627   2.490  52.225  1.00  0.00     0.062 C 
ENDBRANCH  20  21
ENDBRANCH  10  20
BRANCH   1  28
HETATM   28  O1  UNL     1      27.093   3.889  49.374  1.00  0.00    -0.353 OA
HETATM   29  C1  UNL     1      27.937   4.722  48.605  1.00  0.00     0.210 C 
ENDBRANCH   1  28
TORSDOF 7
ENDMDL
MODEL 9
REMARK VINA RESULT:      -7.1      2.366      5.219
REMARK  7 active torsions:
REMARK  status: ('A' for Active; 'I' for Inactive)
REMARK    1  A    between atoms: O1_2  and  C2_3 
REMARK    2  A    between atoms: C7_10  and  N3_11 
REMARK    3  A    between atoms: N3_11  and  C8_12 
REMARK    4  A    between atoms: C8_12  and  C12_17 
REMARK    5  A    between atoms: C9_13  and  C10_14 
REMARK    6  A    between atoms: C14_20  and  O2_21 
REMARK    7  A    between atoms: O2_21  and  C15_22 
ROOT
HETATM    1  C2  UNL     1      22.468   1.411  51.562  1.00  0.00     0.102 A 
HETATM    2  C3  UNL     1      22.723   0.797  52.770  1.00  0.00     0.042 A 
HETATM    3  C4  UNL     1      23.994   0.778  53.304  1.00  0.00     0.035 A 
HETATM    4  C5  UNL     1      24.998   1.396  52.590  1.00  0.00     0.075 A 
HETATM    5  N1  UNL     1      26.240   1.459  53.035  1.00  0.00    -0.241 NA
HETATM    6  C6  UNL     1      27.208   2.080  52.376  1.00  0.00     0.236 A 
HETATM    7  N2  UNL     1      26.931   2.691  51.184  1.00  0.00    -0.223 NA
HETATM    8  C7  UNL     1      25.681   2.648  50.700  1.00  0.00     0.144 A 
HETATM    9  C13 UNL     1      24.701   1.994  51.396  1.00  0.00     0.075 A 
HETATM   10  C14 UNL     1      23.467   2.042  50.814  1.00  0.00     0.118 A 
ENDROOT
BRANCH   8  11
HETATM   11  N3  UNL     1      25.468   3.393  49.522  1.00  0.00    -0.343 N 
HETATM   12  H7  UNL     1      25.121   3.644  48.590  1.00  0.00     0.167 HD
BRANCH  11  13
HETATM   13  C8  UNL     1      26.091   4.702  49.470  1.00  0.00     0.024 C 
HETATM   14  C9  UNL     1      27.287   4.691  48.841  1.00  0.00     0.028 C 
BRANCH  14  15
HETATM   15  C10 UNL     1      28.426   5.495  48.412  1.00  0.00     0.031 C 
HETATM   16  C11 UNL     1      28.697   6.642  47.767  1.00  0.00     0.188 C 
HETATM   17  F1  UNL     1      27.514   7.209  47.415  1.00  0.00    -0.219 F 
ENDBRANCH  14  15
BRANCH  13  18
HETATM   18  C12 UNL     1      25.548   5.994  50.004  1.00  0.00     0.171 C 
HETATM   19 CL1  UNL     1      24.602   6.780  48.749  1.00  0.00    -0.124 Cl
ENDBRANCH  13  18
ENDBRANCH  11  13
ENDBRANCH   8  11
BRANCH  10  20
HETATM   20  O2  UNL     1      22.987   2.588  49.618  1.00  0.00    -0.342 OA
BRANCH  20  21
HETATM   21  C15 UNL     1      22.465   3.912  49.613  1.00  0.00     0.132 C 
HETATM   22  C16 UNL     1      21.177   3.911  48.821  1.00  0.00     0.062 C 
HETATM   23  C17 UNL     1      19.998   4.466  49.580  1.00  0.00     0.274 C 
HETATM   24  N4  UNL     1      20.245   5.740  50.171  1.00  0.00     0.084 N 
HETATM   25  C18 UNL     1      19.771   6.865  49.408  1.00  0.00     0.309 C 
HETATM   26  C19 UNL     1      21.569   5.906  50.678  1.00  0.00     0.274 C 
HETATM   27  C20 UNL     1      22.247   4.558  50.925  1.00  0.00     0.062 C 
ENDBRANCH  20  21
ENDBRANCH  10  20
BRANCH   1  28
HETATM   28  O1  UNL     1      21.149   1.348  51.159  1.00  0.00    -0.353 OA
HETATM   29  C1  UNL     1      20.301   0.288  51.553  1.00  0.00     0.210 C 
ENDBRANCH   1  28
TORSDOF 7
ENDMDL
