MODEL 1
REMARK VINA RESULT:      -6.8      0.000      0.000
REMARK  7 active torsions:
REMARK  status: ('A' for Active; 'I' for Inactive)
REMARK    1  A    between atoms: N1_2  and  C3_4 
REMARK    2  A    between atoms: C3_4  and  C4_5 
REMARK    3  A    between atoms: C4_5  and  C5_6 
REMARK    4  A    between atoms: C5_6  and  C6_8 
REMARK    5  A    between atoms: C9_11  and  O2_12 
REMARK    6  A    between atoms: O2_12  and  C10_13 
REMARK    7  A    between atoms: C10_13  and  C11_14 
ROOT
HETATM    1  C6  UNL     1      21.731  -0.429  53.466  1.00  0.00     0.010 A 
HETATM    2  C7  UNL     1      21.863  -1.135  54.649  1.00  0.00     0.018 A 
HETATM    3  C8  UNL     1      23.128  -1.310  55.208  1.00  0.00     0.037 A 
HETATM    4  C9  UNL     1      24.237  -0.775  54.570  1.00  0.00     0.069 A 
HETATM    5  C16 UNL     1      24.094  -0.063  53.374  1.00  0.00     0.037 A 
HETATM    6  C17 UNL     1      22.825   0.107  52.823  1.00  0.00     0.018 A 
ENDROOT
BRANCH   1   7
HETATM    7  C5  UNL     1      20.387  -0.275  52.937  1.00  0.00     0.161 C 
HETATM    8  O1  UNL     1      19.394  -0.681  53.558  1.00  0.00    -0.292 OA
BRANCH   7   9
HETATM    9  C4  UNL     1      20.015   0.348  51.665  1.00  0.00     0.114 C 
BRANCH   9  10
HETATM   10  C3  UNL     1      19.118   1.533  51.961  1.00  0.00     0.279 C 
BRANCH  10  11
HETATM   11  N1  UNL     1      19.677   2.777  51.493  1.00  0.00     0.080 N 
HETATM   12  C1  UNL     1      20.691   3.325  52.347  1.00  0.00     0.309 C 
HETATM   13  C2  UNL     1      18.590   3.734  51.370  1.00  0.00     0.309 C 
ENDBRANCH  10  11
ENDBRANCH   9  10
ENDBRANCH   7   9
ENDBRANCH   1   7
BRANCH   4  14
HETATM   14  O2  UNL     1      25.556  -0.848  54.974  1.00  0.00    -0.347 OA
BRANCH  14  15
HETATM   15  C10 UNL     1      26.473   0.216  54.856  1.00  0.00     0.210 C 
BRANCH  15  16
HETATM   16  C11 UNL     1      27.735  -0.312  54.235  1.00  0.00    -0.053 A 
HETATM   17  C12 UNL     1      28.933   0.224  54.488  1.00  0.00     0.005 A 
HETATM   18  C13 UNL     1      29.973  -0.481  53.757  1.00  0.00    -0.003 A 
HETATM   19  C14 UNL     1      29.367  -1.448  53.060  1.00  0.00    -0.022 A 
HETATM   20  C15 UNL     1      27.898  -1.438  53.292  1.00  0.00     0.063 A 
ENDBRANCH  15  16
ENDBRANCH  14  15
ENDBRANCH   4  14
TORSDOF 7
ENDMDL
MODEL 2
REMARK VINA RESULT:      -6.7      2.849      7.984
REMARK  7 active torsions:
REMARK  status: ('A' for Active; 'I' for Inactive)
REMARK    1  A    between atoms: N1_2  and  C3_4 
REMARK    2  A    between atoms: C3_4  and  C4_5 
REMARK    3  A    between atoms: C4_5  and  C5_6 
REMARK    4  A    between atoms: C5_6  and  C6_8 
REMARK    5  A    between atoms: C9_11  and  O2_12 
REMARK    6  A    between atoms: O2_12  and  C10_13 
REMARK    7  A    between atoms: C10_13  and  C11_14 
ROOT
HETATM    1  C6  UNL     1      24.764   0.402  52.879  1.00  0.00     0.010 A 
HETATM    2  C7  UNL     1      24.226  -0.614  53.649  1.00  0.00     0.018 A 
HETATM    3  C8  UNL     1      22.863  -0.610  53.939  1.00  0.00     0.037 A 
HETATM    4  C9  UNL     1      22.065   0.414  53.452  1.00  0.00     0.069 A 
HETATM    5  C16 UNL     1      22.617   1.438  52.674  1.00  0.00     0.037 A 
HETATM    6  C17 UNL     1      23.982   1.425  52.389  1.00  0.00     0.018 A 
ENDROOT
BRANCH   1   7
HETATM    7  C5  UNL     1      26.190   0.338  52.605  1.00  0.00     0.161 C 
HETATM    8  O1  UNL     1      26.720   1.061  51.750  1.00  0.00    -0.292 OA
BRANCH   7   9
HETATM    9  C4  UNL     1      27.166  -0.536  53.259  1.00  0.00     0.114 C 
BRANCH   9  10
HETATM   10  C3  UNL     1      27.576   0.106  54.569  1.00  0.00     0.279 C 
BRANCH  10  11
HETATM   11  N1  UNL     1      28.984   0.415  54.613  1.00  0.00     0.080 N 
HETATM   12  C1  UNL     1      29.299   1.772  54.271  1.00  0.00     0.309 C 
HETATM   13  C2  UNL     1      29.663  -0.479  53.690  1.00  0.00     0.309 C 
ENDBRANCH  10  11
ENDBRANCH   9  10
ENDBRANCH   7   9
ENDBRANCH   1   7
BRANCH   4  14
HETATM   14  O2  UNL     1      20.706   0.581  53.636  1.00  0.00    -0.347 OA
BRANCH  14  15
HETATM   15  C10 UNL     1      19.761  -0.455  53.494  1.00  0.00     0.210 C 
BRANCH  15  16
HETATM   16  C11 UNL     1      18.944  -0.187  52.263  1.00  0.00    -0.053 A 
HETATM   17  C12 UNL     1      17.691  -0.634  52.125  1.00  0.00     0.005 A 
HETATM   18  C13 UNL     1      17.142  -0.230  50.842  1.00  0.00    -0.003 A 
HETATM   19  C14 UNL     1      18.096   0.467  50.216  1.00  0.00    -0.022 A 
HETATM   20  C15 UNL     1      19.325   0.564  51.048  1.00  0.00     0.063 A 
ENDBRANCH  15  16
ENDBRANCH  14  15
ENDBRANCH   4  14
TORSDOF 7
ENDMDL
MODEL 3
REMARK VINA RESULT:      -6.7      2.725      8.175
REMARK  7 active torsions:
REMARK  status: ('A' for Active; 'I' for Inactive)
REMARK    1  A    between atoms: N1_2  and  C3_4 
REMARK    2  A    between atoms: C3_4  and  C4_5 
REMARK    3  A    between atoms: C4_5  and  C5_6 
REMARK    4  A    between atoms: C5_6  and  C6_8 
REMARK    5  A    between atoms: C9_11  and  O2_12 
REMARK    6  A    between atoms: O2_12  and  C10_13 
REMARK    7  A    between atoms: C10_13  and  C11_14 
ROOT
HETATM    1  C6  UNL     1      24.114  -0.398  53.837  1.00  0.00     0.010 A 
HETATM    2  C7  UNL     1      23.808   0.511  52.840  1.00  0.00     0.018 A 
HETATM    3  C8  UNL     1      22.474   0.815  52.572  1.00  0.00     0.037 A 
HETATM    4  C9  UNL     1      21.473   0.199  53.307  1.00  0.00     0.069 A 
HETATM    5  C16 UNL     1      21.791  -0.720  54.313  1.00  0.00     0.037 A 
HETATM    6  C17 UNL     1      23.128  -1.017  54.575  1.00  0.00     0.018 A 
ENDROOT
BRANCH   1   7
HETATM    7  C5  UNL     1      25.523  -0.667  54.075  1.00  0.00     0.161 C 
HETATM    8  O1  UNL     1      25.988  -0.726  55.222  1.00  0.00    -0.292 OA
BRANCH   7   9
HETATM    9  C4  UNL     1      26.551  -0.899  53.058  1.00  0.00     0.114 C 
BRANCH   9  10
HETATM   10  C3  UNL     1      27.396   0.354  52.944  1.00  0.00     0.279 C 
BRANCH  10  11
HETATM   11  N1  UNL     1      28.771   0.124  53.308  1.00  0.00     0.080 N 
HETATM   12  C1  UNL     1      29.118  -1.260  53.454  1.00  0.00     0.309 C 
HETATM   13  C2  UNL     1      29.018   0.812  54.565  1.00  0.00     0.309 C 
ENDBRANCH  10  11
ENDBRANCH   9  10
ENDBRANCH   7   9
ENDBRANCH   1   7
BRANCH   4  14
HETATM   14  O2  UNL     1      20.108   0.375  53.181  1.00  0.00    -0.347 OA
BRANCH  14  15
HETATM   15  C10 UNL     1      19.167  -0.668  53.298  1.00  0.00     0.210 C 
BRANCH  15  16
HETATM   16  C11 UNL     1      18.169  -0.535  52.185  1.00  0.00    -0.053 A 
HETATM   17  C12 UNL     1      18.444   0.124  51.054  1.00  0.00     0.005 A 
HETATM   18  C13 UNL     1      17.303   0.095  50.155  1.00  0.00    -0.003 A 
HETATM   19  C14 UNL     1      16.340  -0.595  50.775  1.00  0.00    -0.022 A 
HETATM   20  C15 UNL     1      16.789  -1.061  52.114  1.00  0.00     0.063 A 
ENDBRANCH  15  16
ENDBRANCH  14  15
ENDBRANCH   4  14
TORSDOF 7
ENDMDL
MODEL 4
REMARK VINA RESULT:      -6.7      3.091      8.216
REMARK  7 active torsions:
REMARK  status: ('A' for Active; 'I' for Inactive)
REMARK    1  A    between atoms: N1_2  and  C3_4 
REMARK    2  A    between atoms: C3_4  and  C4_5 
REMARK    3  A    between atoms: C4_5  and  C5_6 
REMARK    4  A    between atoms: C5_6  and  C6_8 
REMARK    5  A    between atoms: C9_11  and  O2_12 
REMARK    6  A    between atoms: O2_12  and  C10_13 
REMARK    7  A    between atoms: C10_13  and  C11_14 
ROOT
HETATM    1  C6  UNL     1      23.630  -0.467  53.989  1.00  0.00     0.010 A 
HETATM    2  C7  UNL     1      23.085   0.441  53.098  1.00  0.00     0.018 A 
HETATM    3  C8  UNL     1      21.700   0.550  52.988  1.00  0.00     0.037 A 
HETATM    4  C9  UNL     1      20.887  -0.255  53.772  1.00  0.00     0.069 A 
HETATM    5  C16 UNL     1      21.447  -1.170  54.670  1.00  0.00     0.037 A 
HETATM    6  C17 UNL     1      22.833  -1.272  54.774  1.00  0.00     0.018 A 
ENDROOT
BRANCH   1   7
HETATM    7  C5  UNL     1      25.080  -0.528  54.064  1.00  0.00     0.161 C 
HETATM    8  O1  UNL     1      25.663  -0.867  55.104  1.00  0.00    -0.292 OA
BRANCH   7   9
HETATM    9  C4  UNL     1      26.023  -0.220  52.987  1.00  0.00     0.114 C 
BRANCH   9  10
HETATM   10  C3  UNL     1      27.281  -1.036  53.210  1.00  0.00     0.279 C 
BRANCH  10  11
HETATM   11  N1  UNL     1      28.480  -0.257  53.031  1.00  0.00     0.080 N 
HETATM   12  C1  UNL     1      29.669  -0.884  53.534  1.00  0.00     0.309 C 
HETATM   13  C2  UNL     1      28.289   1.013  53.710  1.00  0.00     0.309 C 
ENDBRANCH  10  11
ENDBRANCH   9  10
ENDBRANCH   7   9
ENDBRANCH   1   7
BRANCH   4  14
HETATM   14  O2  UNL     1      19.506  -0.285  53.797  1.00  0.00    -0.347 OA
BRANCH  14  15
HETATM   15  C10 UNL     1      18.702  -0.416  52.647  1.00  0.00     0.210 C 
BRANCH  15  16
HETATM   16  C11 UNL     1      17.753  -1.560  52.859  1.00  0.00    -0.053 A 
HETATM   17  C12 UNL     1      18.071  -2.623  53.604  1.00  0.00     0.005 A 
HETATM   18  C13 UNL     1      16.972  -3.573  53.637  1.00  0.00    -0.003 A 
HETATM   19  C14 UNL     1      15.990  -3.052  52.893  1.00  0.00    -0.022 A 
HETATM   20  C15 UNL     1      16.384  -1.733  52.330  1.00  0.00     0.063 A 
ENDBRANCH  15  16
ENDBRANCH  14  15
ENDBRANCH   4  14
TORSDOF 7
ENDMDL
MODEL 5
REMARK VINA RESULT:      -6.7      4.562      5.674
REMARK  7 active torsions:
REMARK  status: ('A' for Active; 'I' for Inactive)
REMARK    1  A    between atoms: N1_2  and  C3_4 
REMARK    2  A    between atoms: C3_4  and  C4_5 
REMARK    3  A    between atoms: C4_5  and  C5_6 
REMARK    4  A    between atoms: C5_6  and  C6_8 
REMARK    5  A    between atoms: C9_11  and  O2_12 
REMARK    6  A    between atoms: O2_12  and  C10_13 
REMARK    7  A    between atoms: C10_13  and  C11_14 
ROOT
HETATM    1  C6  UNL     1      24.582   0.464  53.044  1.00  0.00     0.010 A 
HETATM    2  C7  UNL     1      24.072   1.730  52.813  1.00  0.00     0.018 A 
HETATM    3  C8  UNL     1      24.807   2.641  52.058  1.00  0.00     0.037 A 
HETATM    4  C9  UNL     1      26.042   2.267  51.549  1.00  0.00     0.069 A 
HETATM    5  C16 UNL     1      26.550   0.985  51.788  1.00  0.00     0.037 A 
HETATM    6  C17 UNL     1      25.807   0.080  52.544  1.00  0.00     0.018 A 
ENDROOT
BRANCH   1   7
HETATM    7  C5  UNL     1      23.764  -0.442  53.833  1.00  0.00     0.161 C 
HETATM    8  O1  UNL     1      24.193  -0.967  54.871  1.00  0.00    -0.292 OA
BRANCH   7   9
HETATM    9  C4  UNL     1      22.389  -0.853  53.544  1.00  0.00     0.114 C 
BRANCH   9  10
HETATM   10  C3  UNL     1      21.485  -0.271  54.613  1.00  0.00     0.279 C 
BRANCH  10  11
HETATM   11  N1  UNL     1      20.237   0.209  54.076  1.00  0.00     0.080 N 
HETATM   12  C1  UNL     1      19.468  -0.789  53.389  1.00  0.00     0.309 C 
HETATM   13  C2  UNL     1      20.538   1.294  53.156  1.00  0.00     0.309 C 
ENDBRANCH  10  11
ENDBRANCH   9  10
ENDBRANCH   7   9
ENDBRANCH   1   7
BRANCH   4  14
HETATM   14  O2  UNL     1      26.903   3.030  50.785  1.00  0.00    -0.347 OA
BRANCH  14  15
HETATM   15  C10 UNL     1      26.788   3.184  49.389  1.00  0.00     0.210 C 
BRANCH  15  16
HETATM   16  C11 UNL     1      26.953   4.639  49.056  1.00  0.00    -0.053 A 
HETATM   17  C12 UNL     1      26.006   5.545  49.324  1.00  0.00     0.005 A 
HETATM   18  C13 UNL     1      26.429   6.868  48.898  1.00  0.00    -0.003 A 
HETATM   19  C14 UNL     1      27.649   6.731  48.369  1.00  0.00    -0.022 A 
HETATM   20  C15 UNL     1      28.101   5.315  48.416  1.00  0.00     0.063 A 
ENDBRANCH  15  16
ENDBRANCH  14  15
ENDBRANCH   4  14
TORSDOF 7
ENDMDL
MODEL 6
REMARK VINA RESULT:      -6.6      2.790      8.117
REMARK  7 active torsions:
REMARK  status: ('A' for Active; 'I' for Inactive)
REMARK    1  A    between atoms: N1_2  and  C3_4 
REMARK    2  A    between atoms: C3_4  and  C4_5 
REMARK    3  A    between atoms: C4_5  and  C5_6 
REMARK    4  A    between atoms: C5_6  and  C6_8 
REMARK    5  A    between atoms: C9_11  and  O2_12 
REMARK    6  A    between atoms: O2_12  and  C10_13 
REMARK    7  A    between atoms: C10_13  and  C11_14 
ROOT
HETATM    1  C6  UNL     1      24.189  -0.218  53.548  1.00  0.00     0.010 A 
HETATM    2  C7  UNL     1      23.134  -0.932  54.088  1.00  0.00     0.018 A 
HETATM    3  C8  UNL     1      21.827  -0.594  53.744  1.00  0.00     0.037 A 
HETATM    4  C9  UNL     1      21.601   0.456  52.866  1.00  0.00     0.069 A 
HETATM    5  C16 UNL     1      22.674   1.173  52.325  1.00  0.00     0.037 A 
HETATM    6  C17 UNL     1      23.979   0.827  52.675  1.00  0.00     0.018 A 
ENDROOT
BRANCH   1   7
HETATM    7  C5  UNL     1      25.529  -0.624  53.940  1.00  0.00     0.161 C 
HETATM    8  O1  UNL     1      25.852  -0.731  55.132  1.00  0.00    -0.292 OA
BRANCH   7   9
HETATM    9  C4  UNL     1      26.639  -0.951  53.043  1.00  0.00     0.114 C 
BRANCH   9  10
HETATM   10  C3  UNL     1      27.509   0.282  52.896  1.00  0.00     0.279 C 
BRANCH  10  11
HETATM   11  N1  UNL     1      28.866   0.051  53.323  1.00  0.00     0.080 N 
HETATM   12  C1  UNL     1      29.213  -1.335  53.460  1.00  0.00     0.309 C 
HETATM   13  C2  UNL     1      29.048   0.715  54.603  1.00  0.00     0.309 C 
ENDBRANCH  10  11
ENDBRANCH   9  10
ENDBRANCH   7   9
ENDBRANCH   1   7
BRANCH   4  14
HETATM   14  O2  UNL     1      20.384   0.928  52.415  1.00  0.00    -0.347 OA
BRANCH  14  15
HETATM   15  C10 UNL     1      19.802   0.553  51.188  1.00  0.00     0.210 C 
BRANCH  15  16
HETATM   16  C11 UNL     1      18.476  -0.094  51.469  1.00  0.00    -0.053 A 
HETATM   17  C12 UNL     1      18.220  -0.728  52.618  1.00  0.00     0.005 A 
HETATM   18  C13 UNL     1      16.867  -1.256  52.620  1.00  0.00    -0.003 A 
HETATM   19  C14 UNL     1      16.321  -0.924  51.446  1.00  0.00    -0.022 A 
HETATM   20  C15 UNL     1      17.279  -0.159  50.604  1.00  0.00     0.063 A 
ENDBRANCH  15  16
ENDBRANCH  14  15
ENDBRANCH   4  14
TORSDOF 7
ENDMDL
MODEL 7
REMARK VINA RESULT:      -6.5      4.601      6.849
REMARK  7 active torsions:
REMARK  status: ('A' for Active; 'I' for Inactive)
REMARK    1  A    between atoms: N1_2  and  C3_4 
REMARK    2  A    between atoms: C3_4  and  C4_5 
REMARK    3  A    between atoms: C4_5  and  C5_6 
REMARK    4  A    between atoms: C5_6  and  C6_8 
REMARK    5  A    between atoms: C9_11  and  O2_12 
REMARK    6  A    between atoms: O2_12  and  C10_13 
REMARK    7  A    between atoms: C10_13  and  C11_14 
ROOT
HETATM    1  C6  UNL     1      24.121   1.055  52.956  1.00  0.00     0.010 A 
HETATM    2  C7  UNL     1      24.749   2.208  53.395  1.00  0.00     0.018 A 
HETATM    3  C8  UNL     1      24.547   3.404  52.710  1.00  0.00     0.037 A 
HETATM    4  C9  UNL     1      23.721   3.423  51.596  1.00  0.00     0.069 A 
HETATM    5  C16 UNL     1      23.090   2.252  51.159  1.00  0.00     0.037 A 
HETATM    6  C17 UNL     1      23.298   1.060  51.851  1.00  0.00     0.018 A 
ENDROOT
BRANCH   1   7
HETATM    7  C5  UNL     1      24.366  -0.159  53.717  1.00  0.00     0.161 C 
HETATM    8  O1  UNL     1      23.463  -0.979  53.938  1.00  0.00    -0.292 OA
BRANCH   7   9
HETATM    9  C4  UNL     1      25.639  -0.580  54.305  1.00  0.00     0.114 C 
BRANCH   9  10
HETATM   10  C3  UNL     1      26.601  -0.895  53.177  1.00  0.00     0.279 C 
BRANCH  10  11
HETATM   11  N1  UNL     1      27.909  -0.330  53.395  1.00  0.00     0.080 N 
HETATM   12  C1  UNL     1      28.983  -1.276  53.298  1.00  0.00     0.309 C 
HETATM   13  C2  UNL     1      27.918   0.266  54.721  1.00  0.00     0.309 C 
ENDBRANCH  10  11
ENDBRANCH   9  10
ENDBRANCH   7   9
ENDBRANCH   1   7
BRANCH   4  14
HETATM   14  O2  UNL     1      23.406   4.507  50.800  1.00  0.00    -0.347 OA
BRANCH  14  15
HETATM   15  C10 UNL     1      23.632   4.551  49.409  1.00  0.00     0.210 C 
BRANCH  15  16
HETATM   16  C11 UNL     1      25.099   4.760  49.172  1.00  0.00    -0.053 A 
HETATM   17  C12 UNL     1      25.604   5.945  48.813  1.00  0.00     0.005 A 
HETATM   18  C13 UNL     1      27.045   5.860  48.653  1.00  0.00    -0.003 A 
HETATM   19  C14 UNL     1      27.390   4.597  48.923  1.00  0.00    -0.022 A 
HETATM   20  C15 UNL     1      26.200   3.779  49.277  1.00  0.00     0.063 A 
ENDBRANCH  15  16
ENDBRANCH  14  15
ENDBRANCH   4  14
TORSDOF 7
ENDMDL
MODEL 8
REMARK VINA RESULT:      -6.4      1.535      2.316
REMARK  7 active torsions:
REMARK  status: ('A' for Active; 'I' for Inactive)
REMARK    1  A    between atoms: N1_2  and  C3_4 
REMARK    2  A    between atoms: C3_4  and  C4_5 
REMARK    3  A    between atoms: C4_5  and  C5_6 
REMARK    4  A    between atoms: C5_6  and  C6_8 
REMARK    5  A    between atoms: C9_11  and  O2_12 
REMARK    6  A    between atoms: O2_12  and  C10_13 
REMARK    7  A    between atoms: C10_13  and  C11_14 
ROOT
HETATM    1  C6  UNL     1      21.755   0.952  52.891  1.00  0.00     0.010 A 
HETATM    2  C7  UNL     1      22.888   1.579  52.403  1.00  0.00     0.018 A 
HETATM    3  C8  UNL     1      24.141   1.018  52.641  1.00  0.00     0.037 A 
HETATM    4  C9  UNL     1      24.236  -0.160  53.367  1.00  0.00     0.069 A 
HETATM    5  C16 UNL     1      23.085  -0.787  53.857  1.00  0.00     0.037 A 
HETATM    6  C17 UNL     1      21.835  -0.219  53.613  1.00  0.00     0.018 A 
ENDROOT
BRANCH   1   7
HETATM    7  C5  UNL     1      20.477   1.581  52.603  1.00  0.00     0.161 C 
HETATM    8  O1  UNL     1      20.226   2.737  52.971  1.00  0.00    -0.292 OA
BRANCH   7   9
HETATM    9  C4  UNL     1      19.354   0.986  51.876  1.00  0.00     0.114 C 
BRANCH   9  10
HETATM   10  C3  UNL     1      18.828   2.012  50.893  1.00  0.00     0.279 C 
BRANCH  10  11
HETATM   11  N1  UNL     1      17.393   2.142  50.950  1.00  0.00     0.080 N 
HETATM   12  C1  UNL     1      16.936   3.328  51.615  1.00  0.00     0.309 C 
HETATM   13  C2  UNL     1      16.869   0.975  51.641  1.00  0.00     0.309 C 
ENDBRANCH  10  11
ENDBRANCH   9  10
ENDBRANCH   7   9
ENDBRANCH   1   7
BRANCH   4  14
HETATM   14  O2  UNL     1      25.383  -0.854  53.697  1.00  0.00    -0.347 OA
BRANCH  14  15
HETATM   15  C10 UNL     1      26.317  -1.324  52.752  1.00  0.00     0.210 C 
BRANCH  15  16
HETATM   16  C11 UNL     1      27.670  -0.780  53.110  1.00  0.00    -0.053 A 
HETATM   17  C12 UNL     1      28.752  -1.561  53.202  1.00  0.00     0.005 A 
HETATM   18  C13 UNL     1      29.920  -0.775  53.561  1.00  0.00    -0.003 A 
HETATM   19  C14 UNL     1      29.510   0.492  53.684  1.00  0.00    -0.022 A 
HETATM   20  C15 UNL     1      28.054   0.615  53.412  1.00  0.00     0.063 A 
ENDBRANCH  15  16
ENDBRANCH  14  15
ENDBRANCH   4  14
TORSDOF 7
ENDMDL
MODEL 9
REMARK VINA RESULT:      -6.3      5.769      7.823
REMARK  7 active torsions:
REMARK  status: ('A' for Active; 'I' for Inactive)
REMARK    1  A    between atoms: N1_2  and  C3_4 
REMARK    2  A    between atoms: C3_4  and  C4_5 
REMARK    3  A    between atoms: C4_5  and  C5_6 
REMARK    4  A    between atoms: C5_6  and  C6_8 
REMARK    5  A    between atoms: C9_11  and  O2_12 
REMARK    6  A    between atoms: O2_12  and  C10_13 
REMARK    7  A    between atoms: C10_13  and  C11_14 
ROOT
HETATM    1  C6  UNL     1      25.538   1.742  52.409  1.00  0.00     0.010 A 
HETATM    2  C7  UNL     1      24.472   2.625  52.384  1.00  0.00     0.018 A 
HETATM    3  C8  UNL     1      24.363   3.542  51.341  1.00  0.00     0.037 A 
HETATM    4  C9  UNL     1      25.325   3.559  50.343  1.00  0.00     0.069 A 
HETATM    5  C16 UNL     1      26.399   2.664  50.376  1.00  0.00     0.037 A 
HETATM    6  C17 UNL     1      26.500   1.749  51.423  1.00  0.00     0.018 A 
ENDROOT
BRANCH   1   7
HETATM    7  C5  UNL     1      25.592   0.805  53.519  1.00  0.00     0.161 C 
HETATM    8  O1  UNL     1      24.617   0.105  53.825  1.00  0.00    -0.292 OA
BRANCH   7   9
HETATM    9  C4  UNL     1      26.738   0.555  54.395  1.00  0.00     0.114 C 
BRANCH   9  10
HETATM   10  C3  UNL     1      27.602  -0.512  53.753  1.00  0.00     0.279 C 
BRANCH  10  11
HETATM   11  N1  UNL     1      28.942  -0.050  53.492  1.00  0.00     0.080 N 
HETATM   12  C1  UNL     1      29.964  -1.019  53.772  1.00  0.00     0.309 C 
HETATM   13  C2  UNL     1      29.171   1.132  54.307  1.00  0.00     0.309 C 
ENDBRANCH  10  11
ENDBRANCH   9  10
ENDBRANCH   7   9
ENDBRANCH   1   7
BRANCH   4  14
HETATM   14  O2  UNL     1      25.379   4.391  49.241  1.00  0.00    -0.347 OA
BRANCH  14  15
HETATM   15  C10 UNL     1      25.598   5.782  49.316  1.00  0.00     0.210 C 
BRANCH  15  16
HETATM   16  C11 UNL     1      26.926   6.088  48.687  1.00  0.00    -0.053 A 
HETATM   17  C12 UNL     1      27.213   7.289  48.173  1.00  0.00     0.005 A 
HETATM   18  C13 UNL     1      28.562   7.305  47.633  1.00  0.00    -0.003 A 
HETATM   19  C14 UNL     1      29.073   6.086  47.835  1.00  0.00    -0.022 A 
HETATM   20  C15 UNL     1      28.095   5.199  48.519  1.00  0.00     0.063 A 
ENDBRANCH  15  16
ENDBRANCH  14  15
ENDBRANCH   4  14
TORSDOF 7
ENDMDL
