MODEL 1
REMARK VINA RESULT:      -9.0      0.000      0.000
REMARK  5 active torsions:
REMARK  status: ('A' for Active; 'I' for Inactive)
REMARK    1  A    between atoms: O1_2  and  C2_3 
REMARK    2  A    between atoms: C2_3  and  C3_4 
REMARK    3  A    between atoms: C5_6  and  C6_7 
REMARK    4  A    between atoms: C10_13  and  O2_14 
REMARK    5  A    between atoms: N3_15  and  C11_16 
ROOT
HETATM    1  C6  UNL     1      24.650   1.463  53.071  1.00  0.00     0.073 A 
HETATM    2  N1  UNL     1      24.693   0.192  53.576  1.00  0.00    -0.241 NA
HETATM    3  C7  UNL     1      23.585  -0.560  53.531  1.00  0.00     0.236 A 
HETATM    4  N2  UNL     1      22.510   0.022  52.979  1.00  0.00    -0.217 NA
HETATM    5  C8  UNL     1      22.467   1.265  52.485  1.00  0.00     0.179 A 
HETATM    6  C9  UNL     1      23.563   2.138  52.476  1.00  0.00     0.082 A 
HETATM    7  C10 UNL     1      23.906   3.462  52.032  1.00  0.00     0.407 A 
HETATM    8  N3  UNL     1      23.850   3.791  50.605  1.00  0.00     0.182 N 
HETATM    9  C17 UNL     1      22.687   3.547  49.697  1.00  0.00     0.296 A 
HETATM   10  O3  UNL     1      23.104   3.403  50.900  1.00  0.00     0.000 OA
HETATM   11  N4  UNL     1      21.501   3.292  48.801  1.00  0.00    -0.348 N 
HETATM   12  C18 UNL     1      20.448   2.616  49.612  1.00  0.00     0.081 A 
HETATM   13  C19 UNL     1      21.044   1.537  49.004  1.00  0.00     0.008 A 
HETATM   14  C20 UNL     1      21.384   0.668  50.013  1.00  0.00     0.014 A 
HETATM   15  C21 UNL     1      20.840   1.621  50.802  1.00  0.00     0.126 A 
HETATM   16  C22 UNL     1      20.230   2.769  51.177  1.00  0.00     0.085 A 
HETATM   17  C23 UNL     1      19.859   3.681  50.213  1.00  0.00    -0.006 A 
HETATM   18  O4  UNL     1      21.076   1.121  52.121  1.00  0.00    -0.314 OA
HETATM   19  H24 UNL     1      22.296   3.764  48.320  1.00  0.00     0.162 HD
ENDROOT
BRANCH   1  20
HETATM   20  C5  UNL     1      25.994   2.053  53.285  1.00  0.00     0.037 C 
HETATM   21  C3  UNL     1      27.252   1.563  53.260  1.00  0.00    -0.058 C 
HETATM   22  C4  UNL     1      28.388   2.476  53.538  1.00  0.00     0.046 C 
BRANCH  21  23
HETATM   23  C2  UNL     1      27.906   0.250  53.016  1.00  0.00     0.201 C 
BRANCH  23  24
HETATM   24  O1  UNL     1      28.697  -0.054  54.127  1.00  0.00    -0.392 OA
HETATM   25  C1  UNL     1      29.725  -0.929  53.737  1.00  0.00     0.201 C 
ENDBRANCH  23  24
ENDBRANCH  21  23
ENDBRANCH   1  20
BRANCH   7  26
HETATM   26  O2  UNL     1      23.091   4.422  52.711  1.00  0.00    -0.364 OA
HETATM   27  H12 UNL     1      23.505   5.301  52.741  1.00  0.00     0.212 HD
ENDBRANCH   7  26
BRANCH   8  28
HETATM   28  C11 UNL     1      24.976   4.440  49.847  1.00  0.00     0.235 C 
HETATM   29  C12 UNL     1      26.212   3.607  49.856  1.00  0.00     0.036 C 
HETATM   30  C13 UNL     1      27.278   4.488  49.187  1.00  0.00     0.002 C 
HETATM   31  C14 UNL     1      26.678   5.630  48.416  1.00  0.00     0.000 C 
HETATM   32  C15 UNL     1      25.888   6.594  49.270  1.00  0.00     0.002 C 
HETATM   33  C16 UNL     1      25.312   5.784  50.426  1.00  0.00     0.036 C 
ENDBRANCH   8  28
TORSDOF 5
ENDMDL
MODEL 2
REMARK VINA RESULT:      -8.9      1.929      6.667
REMARK  5 active torsions:
REMARK  status: ('A' for Active; 'I' for Inactive)
REMARK    1  A    between atoms: O1_2  and  C2_3 
REMARK    2  A    between atoms: C2_3  and  C3_4 
REMARK    3  A    between atoms: C5_6  and  C6_7 
REMARK    4  A    between atoms: C10_13  and  O2_14 
REMARK    5  A    between atoms: N3_15  and  C11_16 
ROOT
HETATM    1  C6  UNL     1      24.657   3.834  50.331  1.00  0.00     0.073 A 
HETATM    2  N1  UNL     1      25.464   4.150  49.271  1.00  0.00    -0.241 NA
HETATM    3  C7  UNL     1      26.751   3.779  49.305  1.00  0.00     0.236 A 
HETATM    4  N2  UNL     1      27.135   3.116  50.406  1.00  0.00    -0.217 NA
HETATM    5  C8  UNL     1      26.347   2.807  51.443  1.00  0.00     0.179 A 
HETATM    6  C9  UNL     1      24.988   3.140  51.514  1.00  0.00     0.082 A 
HETATM    7  C10 UNL     1      23.861   2.969  52.391  1.00  0.00     0.407 A 
HETATM    8  N3  UNL     1      23.371   1.621  52.695  1.00  0.00     0.182 N 
HETATM    9  C17 UNL     1      24.204   0.476  53.177  1.00  0.00     0.296 A 
HETATM   10  O3  UNL     1      24.251   1.704  52.813  1.00  0.00     0.000 OA
HETATM   11  N4  UNL     1      25.065  -0.663  53.662  1.00  0.00    -0.348 N 
HETATM   12  C18 UNL     1      26.474  -0.181  53.724  1.00  0.00     0.081 A 
HETATM   13  C19 UNL     1      26.465  -0.809  52.502  1.00  0.00     0.008 A 
HETATM   14  C20 UNL     1      26.934   0.111  51.595  1.00  0.00     0.014 A 
HETATM   15  C21 UNL     1      27.018   0.906  52.684  1.00  0.00     0.126 A 
HETATM   16  C22 UNL     1      26.942   1.315  53.972  1.00  0.00     0.085 A 
HETATM   17  C23 UNL     1      26.484   0.439  54.932  1.00  0.00    -0.006 A 
HETATM   18  O4  UNL     1      27.436   2.159  52.137  1.00  0.00    -0.314 OA
HETATM   19  H24 UNL     1      24.054  -0.904  53.584  1.00  0.00     0.162 HD
ENDROOT
BRANCH   1  20
HETATM   20  C5  UNL     1      23.316   4.392  50.026  1.00  0.00     0.037 C 
HETATM   21  C3  UNL     1      22.390   4.151  49.073  1.00  0.00    -0.058 C 
HETATM   22  C4  UNL     1      21.129   4.932  49.079  1.00  0.00     0.046 C 
BRANCH  21  23
HETATM   23  C2  UNL     1      22.242   3.249  47.901  1.00  0.00     0.201 C 
BRANCH  23  24
HETATM   24  O1  UNL     1      22.621   1.962  48.293  1.00  0.00    -0.392 OA
HETATM   25  C1  UNL     1      21.473   1.229  48.641  1.00  0.00     0.201 C 
ENDBRANCH  23  24
ENDBRANCH  21  23
ENDBRANCH   1  20
BRANCH   7  26
HETATM   26  O2  UNL     1      24.128   3.605  53.644  1.00  0.00    -0.364 OA
HETATM   27  H12 UNL     1      24.496   2.987  54.299  1.00  0.00     0.212 HD
ENDBRANCH   7  26
BRANCH   8  28
HETATM   28  C11 UNL     1      21.932   1.202  52.568  1.00  0.00     0.235 C 
HETATM   29  C12 UNL     1      21.056   2.326  52.134  1.00  0.00     0.036 C 
HETATM   30  C13 UNL     1      19.630   1.762  52.217  1.00  0.00     0.002 C 
HETATM   31  C14 UNL     1      19.610   0.260  52.282  1.00  0.00     0.000 C 
HETATM   32  C15 UNL     1      20.302  -0.307  53.501  1.00  0.00     0.002 C 
HETATM   33  C16 UNL     1      21.407   0.675  53.872  1.00  0.00     0.036 C 
ENDBRANCH   8  28
TORSDOF 5
ENDMDL
MODEL 3
REMARK VINA RESULT:      -8.9      1.983      6.686
REMARK  5 active torsions:
REMARK  status: ('A' for Active; 'I' for Inactive)
REMARK    1  A    between atoms: O1_2  and  C2_3 
REMARK    2  A    between atoms: C2_3  and  C3_4 
REMARK    3  A    between atoms: C5_6  and  C6_7 
REMARK    4  A    between atoms: C10_13  and  O2_14 
REMARK    5  A    between atoms: N3_15  and  C11_16 
ROOT
HETATM    1  C6  UNL     1      24.565   3.642  50.405  1.00  0.00     0.073 A 
HETATM    2  N1  UNL     1      25.351   3.942  49.324  1.00  0.00    -0.241 NA
HETATM    3  C7  UNL     1      26.640   3.581  49.342  1.00  0.00     0.236 A 
HETATM    4  N2  UNL     1      27.050   2.944  50.450  1.00  0.00    -0.217 NA
HETATM    5  C8  UNL     1      26.283   2.651  51.507  1.00  0.00     0.179 A 
HETATM    6  C9  UNL     1      24.923   2.976  51.595  1.00  0.00     0.082 A 
HETATM    7  C10 UNL     1      23.814   2.814  52.497  1.00  0.00     0.407 A 
HETATM    8  N3  UNL     1      23.339   1.470  52.837  1.00  0.00     0.182 N 
HETATM    9  C17 UNL     1      24.189   0.341  53.327  1.00  0.00     0.296 A 
HETATM   10  O3  UNL     1      24.220   1.562  52.937  1.00  0.00     0.000 OA
HETATM   11  N4  UNL     1      25.067  -0.782  53.820  1.00  0.00    -0.348 N 
HETATM   12  C18 UNL     1      26.474  -0.289  53.846  1.00  0.00     0.081 A 
HETATM   13  C19 UNL     1      26.447  -0.942  52.637  1.00  0.00     0.008 A 
HETATM   14  C20 UNL     1      26.893  -0.038  51.703  1.00  0.00     0.014 A 
HETATM   15  C21 UNL     1      26.990   0.781  52.774  1.00  0.00     0.126 A 
HETATM   16  C22 UNL     1      26.935   1.216  54.054  1.00  0.00     0.085 A 
HETATM   17  C23 UNL     1      26.501   0.357  55.040  1.00  0.00    -0.006 A 
HETATM   18  O4  UNL     1      27.389   2.025  52.194  1.00  0.00    -0.314 OA
HETATM   19  H24 UNL     1      24.056  -1.032  53.765  1.00  0.00     0.162 HD
ENDROOT
BRANCH   1  20
HETATM   20  C5  UNL     1      23.215   4.184  50.113  1.00  0.00     0.037 C 
HETATM   21  C3  UNL     1      22.682   5.424  50.095  1.00  0.00    -0.058 C 
HETATM   22  C4  UNL     1      21.248   5.588  49.753  1.00  0.00     0.046 C 
BRANCH  21  23
HETATM   23  C2  UNL     1      23.147   6.815  50.341  1.00  0.00     0.201 C 
BRANCH  23  24
HETATM   24  O1  UNL     1      24.264   6.756  51.179  1.00  0.00    -0.392 OA
HETATM   25  C1  UNL     1      25.361   7.344  50.526  1.00  0.00     0.201 C 
ENDBRANCH  23  24
ENDBRANCH  21  23
ENDBRANCH   1  20
BRANCH   7  26
HETATM   26  O2  UNL     1      24.099   3.479  53.731  1.00  0.00    -0.364 OA
HETATM   27  H12 UNL     1      23.291   3.695  54.227  1.00  0.00     0.212 HD
ENDBRANCH   7  26
BRANCH   8  28
HETATM   28  C11 UNL     1      21.901   1.038  52.745  1.00  0.00     0.235 C 
HETATM   29  C12 UNL     1      21.488   0.212  53.915  1.00  0.00     0.036 C 
HETATM   30  C13 UNL     1      20.069  -0.264  53.573  1.00  0.00     0.002 C 
HETATM   31  C14 UNL     1      19.444   0.543  52.469  1.00  0.00     0.000 C 
HETATM   32  C15 UNL     1      20.187   0.457  51.155  1.00  0.00     0.002 C 
HETATM   33  C16 UNL     1      21.657   0.239  51.498  1.00  0.00     0.036 C 
ENDBRANCH   8  28
TORSDOF 5
ENDMDL
MODEL 4
REMARK VINA RESULT:      -8.6      2.301      5.736
REMARK  5 active torsions:
REMARK  status: ('A' for Active; 'I' for Inactive)
REMARK    1  A    between atoms: O1_2  and  C2_3 
REMARK    2  A    between atoms: C2_3  and  C3_4 
REMARK    3  A    between atoms: C5_6  and  C6_7 
REMARK    4  A    between atoms: C10_13  and  O2_14 
REMARK    5  A    between atoms: N3_15  and  C11_16 
ROOT
HETATM    1  C6  UNL     1      20.947   3.781  51.860  1.00  0.00     0.073 A 
HETATM    2  N1  UNL     1      19.731   3.860  51.234  1.00  0.00    -0.241 NA
HETATM    3  C7  UNL     1      19.519   4.850  50.357  1.00  0.00     0.236 A 
HETATM    4  N2  UNL     1      20.547   5.693  50.172  1.00  0.00    -0.217 NA
HETATM    5  C8  UNL     1      21.735   5.616  50.784  1.00  0.00     0.179 A 
HETATM    6  C9  UNL     1      22.069   4.623  51.715  1.00  0.00     0.082 A 
HETATM    7  C10 UNL     1      23.186   4.206  52.519  1.00  0.00     0.407 A 
HETATM    8  N3  UNL     1      24.431   3.779  51.874  1.00  0.00     0.182 N 
HETATM    9  C17 UNL     1      25.182   4.545  50.831  1.00  0.00     0.296 A 
HETATM   10  O3  UNL     1      24.135   4.564  51.570  1.00  0.00     0.000 OA
HETATM   11  N4  UNL     1      25.921   5.335  49.781  1.00  0.00    -0.348 N 
HETATM   12  C18 UNL     1      25.139   6.573  49.501  1.00  0.00     0.081 A 
HETATM   13  C19 UNL     1      24.716   5.757  48.479  1.00  0.00     0.008 A 
HETATM   14  C20 UNL     1      23.343   5.750  48.539  1.00  0.00     0.014 A 
HETATM   15  C21 UNL     1      23.542   6.574  49.592  1.00  0.00     0.126 A 
HETATM   16  C22 UNL     1      24.181   7.325  50.518  1.00  0.00     0.085 A 
HETATM   17  C23 UNL     1      25.558   7.379  50.510  1.00  0.00    -0.006 A 
HETATM   18  O4  UNL     1      22.219   6.787  50.090  1.00  0.00    -0.314 OA
HETATM   19  H24 UNL     1      26.393   4.444  50.046  1.00  0.00     0.162 HD
ENDROOT
BRANCH   1  20
HETATM   20  C5  UNL     1      20.876   2.621  52.782  1.00  0.00     0.037 C 
HETATM   21  C3  UNL     1      20.573   1.314  52.629  1.00  0.00    -0.058 C 
HETATM   22  C4  UNL     1      20.602   0.423  53.815  1.00  0.00     0.046 C 
BRANCH  21  23
HETATM   23  C2  UNL     1      20.178   0.409  51.518  1.00  0.00     0.201 C 
BRANCH  23  24
HETATM   24  O1  UNL     1      21.298   0.202  50.708  1.00  0.00    -0.392 OA
HETATM   25  C1  UNL     1      21.118   0.877  49.489  1.00  0.00     0.201 C 
ENDBRANCH  23  24
ENDBRANCH  21  23
ENDBRANCH   1  20
BRANCH   7  26
HETATM   26  O2  UNL     1      23.530   5.247  53.438  1.00  0.00    -0.364 OA
HETATM   27  H12 UNL     1      23.296   6.128  53.100  1.00  0.00     0.212 HD
ENDBRANCH   7  26
BRANCH   8  28
HETATM   28  C11 UNL     1      25.140   2.490  52.186  1.00  0.00     0.235 C 
HETATM   29  C12 UNL     1      24.246   1.307  52.039  1.00  0.00     0.036 C 
HETATM   30  C13 UNL     1      25.081   0.123  52.547  1.00  0.00     0.002 C 
HETATM   31  C14 UNL     1      26.549   0.442  52.611  1.00  0.00     0.000 C 
HETATM   32  C15 UNL     1      26.887   1.566  53.563  1.00  0.00     0.002 C 
HETATM   33  C16 UNL     1      25.681   2.498  53.586  1.00  0.00     0.036 C 
ENDBRANCH   8  28
TORSDOF 5
ENDMDL
MODEL 5
REMARK VINA RESULT:      -7.8      1.613      2.086
REMARK  5 active torsions:
REMARK  status: ('A' for Active; 'I' for Inactive)
REMARK    1  A    between atoms: O1_2  and  C2_3 
REMARK    2  A    between atoms: C2_3  and  C3_4 
REMARK    3  A    between atoms: C5_6  and  C6_7 
REMARK    4  A    between atoms: C10_13  and  O2_14 
REMARK    5  A    between atoms: N3_15  and  C11_16 
ROOT
HETATM    1  C6  UNL     1      22.931   2.303  52.627  1.00  0.00     0.073 A 
HETATM    2  N1  UNL     1      22.504   1.087  53.090  1.00  0.00    -0.241 NA
HETATM    3  C7  UNL     1      21.242   0.710  52.846  1.00  0.00     0.236 A 
HETATM    4  N2  UNL     1      20.497   1.584  52.153  1.00  0.00    -0.217 NA
HETATM    5  C8  UNL     1      20.913   2.773  51.700  1.00  0.00     0.179 A 
HETATM    6  C9  UNL     1      22.210   3.268  51.893  1.00  0.00     0.082 A 
HETATM    7  C10 UNL     1      23.006   4.417  51.553  1.00  0.00     0.407 A 
HETATM    8  N3  UNL     1      23.281   4.725  50.147  1.00  0.00     0.182 N 
HETATM    9  C17 UNL     1      22.259   4.835  49.060  1.00  0.00     0.296 A 
HETATM   10  O3  UNL     1      22.415   4.588  50.308  1.00  0.00     0.000 OA
HETATM   11  N4  UNL     1      21.210   4.940  47.982  1.00  0.00    -0.348 N 
HETATM   12  C18 UNL     1      19.887   4.631  48.595  1.00  0.00     0.081 A 
HETATM   13  C19 UNL     1      20.215   3.413  48.051  1.00  0.00     0.008 A 
HETATM   14  C20 UNL     1      20.108   2.497  49.071  1.00  0.00     0.014 A 
HETATM   15  C21 UNL     1      19.762   3.583  49.797  1.00  0.00     0.126 A 
HETATM   16  C22 UNL     1      19.479   4.868  50.111  1.00  0.00     0.085 A 
HETATM   17  C23 UNL     1      19.562   5.835  49.133  1.00  0.00    -0.006 A 
HETATM   18  O4  UNL     1      19.622   3.055  51.119  1.00  0.00    -0.314 OA
HETATM   19  H24 UNL     1      22.177   5.139  47.648  1.00  0.00     0.162 HD
ENDROOT
BRANCH   1  20
HETATM   20  C5  UNL     1      24.339   2.456  53.068  1.00  0.00     0.037 C 
HETATM   21  C3  UNL     1      25.390   1.615  53.174  1.00  0.00    -0.058 C 
HETATM   22  C4  UNL     1      26.684   2.137  53.677  1.00  0.00     0.046 C 
BRANCH  21  23
HETATM   23  C2  UNL     1      25.666   0.178  52.914  1.00  0.00     0.201 C 
BRANCH  23  24
HETATM   24  O1  UNL     1      26.067  -0.412  54.116  1.00  0.00    -0.392 OA
HETATM   25  C1  UNL     1      24.940  -0.938  54.771  1.00  0.00     0.201 C 
ENDBRANCH  23  24
ENDBRANCH  21  23
ENDBRANCH   1  20
BRANCH   7  26
HETATM   26  O2  UNL     1      22.424   5.591  52.129  1.00  0.00    -0.364 OA
HETATM   27  H12 UNL     1      21.467   5.494  52.271  1.00  0.00     0.212 HD
ENDBRANCH   7  26
BRANCH   8  28
HETATM   28  C11 UNL     1      24.656   4.987  49.597  1.00  0.00     0.235 C 
HETATM   29  C12 UNL     1      25.553   3.805  49.741  1.00  0.00     0.036 C 
HETATM   30  C13 UNL     1      26.931   4.304  49.283  1.00  0.00     0.002 C 
HETATM   31  C14 UNL     1      26.845   5.581  48.494  1.00  0.00     0.000 C 
HETATM   32  C15 UNL     1      26.274   6.743  49.275  1.00  0.00     0.002 C 
HETATM   33  C16 UNL     1      25.301   6.152  50.290  1.00  0.00     0.036 C 
ENDBRANCH   8  28
TORSDOF 5
ENDMDL
MODEL 6
REMARK VINA RESULT:      -7.8      2.086      5.775
REMARK  5 active torsions:
REMARK  status: ('A' for Active; 'I' for Inactive)
REMARK    1  A    between atoms: O1_2  and  C2_3 
REMARK    2  A    between atoms: C2_3  and  C3_4 
REMARK    3  A    between atoms: C5_6  and  C6_7 
REMARK    4  A    between atoms: C10_13  and  O2_14 
REMARK    5  A    between atoms: N3_15  and  C11_16 
ROOT
HETATM    1  C6  UNL     1      21.323   1.262  53.163  1.00  0.00     0.073 A 
HETATM    2  N1  UNL     1      20.731   0.564  54.182  1.00  0.00    -0.241 NA
HETATM    3  C7  UNL     1      21.426  -0.406  54.790  1.00  0.00     0.236 A 
HETATM    4  N2  UNL     1      22.670  -0.607  54.328  1.00  0.00    -0.217 NA
HETATM    5  C8  UNL     1      23.249   0.075  53.332  1.00  0.00     0.179 A 
HETATM    6  C9  UNL     1      22.620   1.111  52.629  1.00  0.00     0.082 A 
HETATM    7  C10 UNL     1      22.901   2.052  51.579  1.00  0.00     0.407 A 
HETATM    8  N3  UNL     1      23.962   3.048  51.756  1.00  0.00     0.182 N 
HETATM    9  C17 UNL     1      25.368   2.760  52.179  1.00  0.00     0.296 A 
HETATM   10  O3  UNL     1      24.231   2.218  51.943  1.00  0.00     0.000 OA
HETATM   11  N4  UNL     1      26.779   2.446  52.607  1.00  0.00    -0.348 N 
HETATM   12  C18 UNL     1      26.869   0.979  52.856  1.00  0.00     0.081 A 
HETATM   13  C19 UNL     1      26.668   1.449  54.131  1.00  0.00     0.008 A 
HETATM   14  C20 UNL     1      25.593   0.753  54.631  1.00  0.00     0.014 A 
HETATM   15  C21 UNL     1      25.613   0.161  53.415  1.00  0.00     0.126 A 
HETATM   16  C22 UNL     1      25.995  -0.144  52.154  1.00  0.00     0.085 A 
HETATM   17  C23 UNL     1      27.068   0.514  51.595  1.00  0.00    -0.006 A 
HETATM   18  O4  UNL     1      24.467  -0.692  53.453  1.00  0.00    -0.314 OA
HETATM   19  H24 UNL     1      26.616   3.457  52.410  1.00  0.00     0.162 HD
ENDROOT
BRANCH   1  20
HETATM   20  C5  UNL     1      20.316   2.235  52.673  1.00  0.00     0.037 C 
HETATM   21  C3  UNL     1      19.474   2.268  51.618  1.00  0.00    -0.058 C 
HETATM   22  C4  UNL     1      18.588   3.444  51.439  1.00  0.00     0.046 C 
BRANCH  21  23
HETATM   23  C2  UNL     1      19.137   1.393  50.464  1.00  0.00     0.201 C 
BRANCH  23  24
HETATM   24  O1  UNL     1      19.091   2.188  49.316  1.00  0.00    -0.392 OA
HETATM   25  C1  UNL     1      20.306   2.068  48.621  1.00  0.00     0.201 C 
ENDBRANCH  23  24
ENDBRANCH  21  23
ENDBRANCH   1  20
BRANCH   7  26
HETATM   26  O2  UNL     1      23.192   1.346  50.368  1.00  0.00    -0.364 OA
HETATM   27  H12 UNL     1      23.048   1.896  49.579  1.00  0.00     0.212 HD
ENDBRANCH   7  26
BRANCH   8  28
HETATM   28  C11 UNL     1      23.780   4.522  51.521  1.00  0.00     0.235 C 
HETATM   29  C12 UNL     1      22.356   4.940  51.659  1.00  0.00     0.036 C 
HETATM   30  C13 UNL     1      22.341   6.415  51.233  1.00  0.00     0.002 C 
HETATM   31  C14 UNL     1      23.714   7.027  51.235  1.00  0.00     0.000 C 
HETATM   32  C15 UNL     1      24.673   6.374  50.266  1.00  0.00     0.002 C 
HETATM   33  C16 UNL     1      24.252   4.913  50.151  1.00  0.00     0.036 C 
ENDBRANCH   8  28
TORSDOF 5
ENDMDL
MODEL 7
REMARK VINA RESULT:      -7.6      5.759      9.873
REMARK  5 active torsions:
REMARK  status: ('A' for Active; 'I' for Inactive)
REMARK    1  A    between atoms: O1_2  and  C2_3 
REMARK    2  A    between atoms: C2_3  and  C3_4 
REMARK    3  A    between atoms: C5_6  and  C6_7 
REMARK    4  A    between atoms: C10_13  and  O2_14 
REMARK    5  A    between atoms: N3_15  and  C11_16 
ROOT
HETATM    1  C6  UNL     1      27.347   6.910  48.035  1.00  0.00     0.073 A 
HETATM    2  N1  UNL     1      26.694   5.899  48.690  1.00  0.00    -0.241 NA
HETATM    3  C7  UNL     1      27.359   4.768  48.958  1.00  0.00     0.236 A 
HETATM    4  N2  UNL     1      28.636   4.733  48.548  1.00  0.00    -0.217 NA
HETATM    5  C8  UNL     1      29.274   5.720  47.908  1.00  0.00     0.179 A 
HETATM    6  C9  UNL     1      28.681   6.946  47.579  1.00  0.00     0.082 A 
HETATM    7  C10 UNL     1      29.023   8.198  46.959  1.00  0.00     0.407 A 
HETATM    8  N3  UNL     1      30.053   9.052  47.559  1.00  0.00     0.182 N 
HETATM    9  C17 UNL     1      31.428   8.616  47.953  1.00  0.00     0.296 A 
HETATM   10  O3  UNL     1      30.320   8.207  47.455  1.00  0.00     0.000 OA
HETATM   11  N4  UNL     1      32.810   8.153  48.342  1.00  0.00    -0.348 N 
HETATM   12  C18 UNL     1      32.905   6.694  48.054  1.00  0.00     0.081 A 
HETATM   13  C19 UNL     1      32.604   6.678  49.394  1.00  0.00     0.008 A 
HETATM   14  C20 UNL     1      31.507   5.861  49.531  1.00  0.00     0.014 A 
HETATM   15  C21 UNL     1      31.625   5.744  48.189  1.00  0.00     0.126 A 
HETATM   16  C22 UNL     1      32.101   5.907  46.934  1.00  0.00     0.085 A 
HETATM   17  C23 UNL     1      33.202   6.709  46.729  1.00  0.00    -0.006 A 
HETATM   18  O4  UNL     1      30.492   4.947  47.835  1.00  0.00    -0.314 OA
HETATM   19  H24 UNL     1      32.645   9.169  48.509  1.00  0.00     0.162 HD
ENDROOT
BRANCH   1  20
HETATM   20  C5  UNL     1      26.362   8.005  47.854  1.00  0.00     0.037 C 
HETATM   21  C3  UNL     1      25.618   8.751  48.698  1.00  0.00    -0.058 C 
HETATM   22  C4  UNL     1      24.711   9.783  48.139  1.00  0.00     0.046 C 
BRANCH  21  23
HETATM   23  C2  UNL     1      25.412   8.858  50.166  1.00  0.00     0.201 C 
BRANCH  23  24
HETATM   24  O1  UNL     1      24.122   8.406  50.457  1.00  0.00    -0.392 OA
HETATM   25  C1  UNL     1      24.197   7.102  50.978  1.00  0.00     0.201 C 
ENDBRANCH  23  24
ENDBRANCH  21  23
ENDBRANCH   1  20
BRANCH   7  26
HETATM   26  O2  UNL     1      29.411   7.970  45.601  1.00  0.00    -0.364 OA
HETATM   27  H12 UNL     1      28.839   7.320  45.160  1.00  0.00     0.212 HD
ENDBRANCH   7  26
BRANCH   8  28
HETATM   28  C11 UNL     1      29.864  10.514  47.856  1.00  0.00     0.235 C 
HETATM   29  C12 UNL     1      28.831  10.745  48.905  1.00  0.00     0.036 C 
HETATM   30  C13 UNL     1      28.663  12.270  48.956  1.00  0.00     0.002 C 
HETATM   31  C14 UNL     1      29.806  12.995  48.302  1.00  0.00     0.000 C 
HETATM   32  C15 UNL     1      29.958  12.692  46.829  1.00  0.00     0.002 C 
HETATM   33  C16 UNL     1      29.456  11.267  46.623  1.00  0.00     0.036 C 
ENDBRANCH   8  28
TORSDOF 5
ENDMDL
MODEL 8
REMARK VINA RESULT:      -7.5      6.544     10.631
REMARK  5 active torsions:
REMARK  status: ('A' for Active; 'I' for Inactive)
REMARK    1  A    between atoms: O1_2  and  C2_3 
REMARK    2  A    between atoms: C2_3  and  C3_4 
REMARK    3  A    between atoms: C5_6  and  C6_7 
REMARK    4  A    between atoms: C10_13  and  O2_14 
REMARK    5  A    between atoms: N3_15  and  C11_16 
ROOT
HETATM    1  C6  UNL     1      27.994   7.763  47.635  1.00  0.00     0.073 A 
HETATM    2  N1  UNL     1      26.793   8.049  47.041  1.00  0.00    -0.241 NA
HETATM    3  C7  UNL     1      26.604   9.268  46.520  1.00  0.00     0.236 A 
HETATM    4  N2  UNL     1      27.638  10.116  46.635  1.00  0.00    -0.217 NA
HETATM    5  C8  UNL     1      28.812   9.837  47.215  1.00  0.00     0.179 A 
HETATM    6  C9  UNL     1      29.121   8.596  47.788  1.00  0.00     0.082 A 
HETATM    7  C10 UNL     1      30.218   7.934  48.441  1.00  0.00     0.407 A 
HETATM    8  N3  UNL     1      31.476   7.722  47.719  1.00  0.00     0.182 N 
HETATM    9  C17 UNL     1      32.253   8.772  46.991  1.00  0.00     0.296 A 
HETATM   10  O3  UNL     1      31.190   8.565  47.676  1.00  0.00     0.000 OA
HETATM   11  N4  UNL     1      33.019   9.848  46.264  1.00  0.00    -0.348 N 
HETATM   12  C18 UNL     1      32.247  11.118  46.375  1.00  0.00     0.081 A 
HETATM   13  C19 UNL     1      31.845  10.675  45.139  1.00  0.00     0.008 A 
HETATM   14  C20 UNL     1      30.471  10.663  45.164  1.00  0.00     0.014 A 
HETATM   15  C21 UNL     1      30.648  11.107  46.429  1.00  0.00     0.126 A 
HETATM   16  C22 UNL     1      31.268  11.517  47.559  1.00  0.00     0.085 A 
HETATM   17  C23 UNL     1      32.644  11.558  47.597  1.00  0.00    -0.006 A 
HETATM   18  O4  UNL     1      29.315  11.163  46.940  1.00  0.00    -0.314 OA
HETATM   19  H24 UNL     1      33.483   8.914  46.240  1.00  0.00     0.162 HD
ENDROOT
BRANCH   1  20
HETATM   20  C5  UNL     1      27.899   6.370  48.137  1.00  0.00     0.037 C 
HETATM   21  C3  UNL     1      26.913   5.635  48.695  1.00  0.00    -0.058 C 
HETATM   22  C4  UNL     1      27.193   4.233  49.091  1.00  0.00     0.046 C 
BRANCH  21  23
HETATM   23  C2  UNL     1      25.488   5.830  49.073  1.00  0.00     0.201 C 
BRANCH  23  24
HETATM   24  O1  UNL     1      25.449   6.322  50.380  1.00  0.00    -0.392 OA
HETATM   25  C1  UNL     1      24.151   6.163  50.895  1.00  0.00     0.201 C 
ENDBRANCH  23  24
ENDBRANCH  21  23
ENDBRANCH   1  20
BRANCH   7  26
HETATM   26  O2  UNL     1      30.544   8.625  49.650  1.00  0.00    -0.364 OA
HETATM   27  H12 UNL     1      31.498   8.792  49.732  1.00  0.00     0.212 HD
ENDBRANCH   7  26
BRANCH   8  28
HETATM   28  C11 UNL     1      32.175   6.393  47.620  1.00  0.00     0.235 C 
HETATM   29  C12 UNL     1      31.221   5.274  47.383  1.00  0.00     0.036 C 
HETATM   30  C13 UNL     1      32.081   4.005  47.472  1.00  0.00     0.002 C 
HETATM   31  C14 UNL     1      33.550   4.298  47.344  1.00  0.00     0.000 C 
HETATM   32  C15 UNL     1      34.092   5.187  48.440  1.00  0.00     0.002 C 
HETATM   33  C16 UNL     1      32.946   6.095  48.873  1.00  0.00     0.036 C 
ENDBRANCH   8  28
TORSDOF 5
ENDMDL
MODEL 9
REMARK VINA RESULT:      -7.5      5.838      9.755
REMARK  5 active torsions:
REMARK  status: ('A' for Active; 'I' for Inactive)
REMARK    1  A    between atoms: O1_2  and  C2_3 
REMARK    2  A    between atoms: C2_3  and  C3_4 
REMARK    3  A    between atoms: C5_6  and  C6_7 
REMARK    4  A    between atoms: C10_13  and  O2_14 
REMARK    5  A    between atoms: N3_15  and  C11_16 
ROOT
HETATM    1  C6  UNL     1      26.414   8.106  48.062  1.00  0.00     0.073 A 
HETATM    2  N1  UNL     1      25.182   8.139  47.466  1.00  0.00    -0.241 NA
HETATM    3  C7  UNL     1      24.642   9.326  47.161  1.00  0.00     0.236 A 
HETATM    4  N2  UNL     1      25.381  10.399  47.479  1.00  0.00    -0.217 NA
HETATM    5  C8  UNL     1      26.586  10.369  48.061  1.00  0.00     0.179 A 
HETATM    6  C9  UNL     1      27.248   9.186  48.421  1.00  0.00     0.082 A 
HETATM    7  C10 UNL     1      28.492   8.760  49.002  1.00  0.00     0.407 A 
HETATM    8  N3  UNL     1      29.755   9.058  48.322  1.00  0.00     0.182 N 
HETATM    9  C17 UNL     1      30.188  10.404  47.834  1.00  0.00     0.296 A 
HETATM   10  O3  UNL     1      29.234   9.776  48.414  1.00  0.00     0.000 OA
HETATM   11  N4  UNL     1      30.603  11.771  47.351  1.00  0.00    -0.348 N 
HETATM   12  C18 UNL     1      29.493  12.720  47.646  1.00  0.00     0.081 A 
HETATM   13  C19 UNL     1      29.236  12.417  46.331  1.00  0.00     0.008 A 
HETATM   14  C20 UNL     1      27.926  12.004  46.281  1.00  0.00     0.014 A 
HETATM   15  C21 UNL     1      27.968  12.238  47.612  1.00  0.00     0.126 A 
HETATM   16  C22 UNL     1      28.441  12.593  48.828  1.00  0.00     0.085 A 
HETATM   17  C23 UNL     1      29.745  13.021  48.946  1.00  0.00    -0.006 A 
HETATM   18  O4  UNL     1      26.677  11.810  48.054  1.00  0.00    -0.314 OA
HETATM   19  H24 UNL     1      31.320  11.032  47.187  1.00  0.00     0.162 HD
ENDROOT
BRANCH   1  20
HETATM   20  C5  UNL     1      26.733   6.678  48.303  1.00  0.00     0.037 C 
HETATM   21  C3  UNL     1      26.247   5.731  49.134  1.00  0.00    -0.058 C 
HETATM   22  C4  UNL     1      26.835   4.370  49.100  1.00  0.00     0.046 C 
BRANCH  21  23
HETATM   23  C2  UNL     1      25.194   5.635  50.179  1.00  0.00     0.201 C 
BRANCH  23  24
HETATM   24  O1  UNL     1      24.827   4.292  50.304  1.00  0.00    -0.392 OA
HETATM   25  C1  UNL     1      24.087   4.124  51.486  1.00  0.00     0.201 C 
ENDBRANCH  23  24
ENDBRANCH  21  23
ENDBRANCH   1  20
BRANCH   7  26
HETATM   26  O2  UNL     1      28.603   9.279  50.331  1.00  0.00    -0.364 OA
HETATM   27  H12 UNL     1      29.528   9.426  50.592  1.00  0.00     0.212 HD
ENDBRANCH   7  26
BRANCH   8  28
HETATM   28  C11 UNL     1      30.813   8.031  48.025  1.00  0.00     0.235 C 
HETATM   29  C12 UNL     1      30.239   6.788  47.436  1.00  0.00     0.036 C 
HETATM   30  C13 UNL     1      31.423   5.814  47.355  1.00  0.00     0.002 C 
HETATM   31  C14 UNL     1      32.749   6.512  47.475  1.00  0.00     0.000 C 
HETATM   32  C15 UNL     1      32.947   7.221  48.795  1.00  0.00     0.002 C 
HETATM   33  C16 UNL     1      31.565   7.656  49.269  1.00  0.00     0.036 C 
ENDBRANCH   8  28
TORSDOF 5
ENDMDL
