MODEL 1
REMARK VINA RESULT:      -7.5      0.000      0.000
REMARK  7 active torsions:
REMARK  status: ('A' for Active; 'I' for Inactive)
REMARK    1  A    between atoms: N1_2  and  C2_3 
REMARK    2  A    between atoms: C2_3  and  C3_4 
REMARK    3  A    between atoms: C3_4  and  C4_5 
REMARK    4  A    between atoms: C5_6  and  C6_7 
REMARK    5  A    between atoms: C9_13  and  N5_14 
REMARK    6  A    between atoms: N5_14  and  C10_15 
REMARK    7  A    between atoms: C10_15  and  C12_17 
ROOT
HETATM    1  C6  UNL     1      26.266  -0.087  53.543  1.00  0.00     0.000 C 
HETATM    2  C7  UNL     1      27.237  -0.334  54.374  1.00  0.00     0.118 C 
HETATM    3  N2  UNL     1      27.890   0.573  54.958  1.00  0.00    -0.171 NA
HETATM    4  N3  UNL     1      28.600   1.751  54.653  1.00  0.00    -0.271 N 
HETATM    5  C8  UNL     1      28.650   2.450  53.409  1.00  0.00     0.227 C 
HETATM    6  N4  UNL     1      27.959   2.475  52.309  1.00  0.00    -0.225 NA
HETATM    7  C9  UNL     1      26.786   1.740  51.913  1.00  0.00     0.126 C 
HETATM    8  C18 UNL     1      26.044   0.709  52.340  1.00  0.00     0.064 C 
HETATM    9  H11 UNL     1      29.146   2.130  55.445  1.00  0.00     0.190 HD
ENDROOT
BRANCH   7  10
HETATM   10  N5  UNL     1      26.309   2.317  50.704  1.00  0.00    -0.366 N 
HETATM   11  H13 UNL     1      26.759   1.820  49.932  1.00  0.00     0.161 HD
BRANCH  10  12
HETATM   12  C10 UNL     1      25.367   3.388  51.058  1.00  0.00     0.112 C 
HETATM   13  C11 UNL     1      25.466   4.564  50.101  1.00  0.00     0.037 C 
BRANCH  12  14
HETATM   14  C12 UNL     1      23.973   2.902  51.168  1.00  0.00    -0.036 A 
HETATM   15  C13 UNL     1      23.373   2.176  50.136  1.00  0.00     0.009 A 
HETATM   16  C14 UNL     1      22.087   1.678  50.135  1.00  0.00     0.001 A 
HETATM   17  C15 UNL     1      21.339   1.922  51.248  1.00  0.00     0.000 A 
HETATM   18  C16 UNL     1      21.854   2.633  52.319  1.00  0.00     0.001 A 
HETATM   19  C17 UNL     1      23.157   3.111  52.263  1.00  0.00     0.009 A 
ENDBRANCH  12  14
ENDBRANCH  10  12
ENDBRANCH   7  10
BRANCH   1  20
HETATM   20  C5  UNL     1      25.035  -0.794  53.880  1.00  0.00     0.010 C 
HETATM   21  C4  UNL     1      23.898  -0.396  53.334  1.00  0.00    -0.024 C 
BRANCH  21  22
HETATM   22  C3  UNL     1      22.499  -0.887  53.461  1.00  0.00     0.057 C 
BRANCH  22  23
HETATM   23  C2  UNL     1      21.893  -0.509  54.792  1.00  0.00     0.272 C 
BRANCH  23  24
HETATM   24  N1  UNL     1      20.545   0.009  54.678  1.00  0.00     0.079 N 
HETATM   25  C1  UNL     1      19.879  -0.578  53.553  1.00  0.00     0.306 C 
HETATM   26  H4  UNL     1      20.515   1.030  54.734  1.00  0.00     0.315 HD
ENDBRANCH  23  24
ENDBRANCH  22  23
ENDBRANCH  21  22
ENDBRANCH   1  20
TORSDOF 7
ENDMDL
MODEL 2
REMARK VINA RESULT:      -7.3      1.815      5.469
REMARK  7 active torsions:
REMARK  status: ('A' for Active; 'I' for Inactive)
REMARK    1  A    between atoms: N1_2  and  C2_3 
REMARK    2  A    between atoms: C2_3  and  C3_4 
REMARK    3  A    between atoms: C3_4  and  C4_5 
REMARK    4  A    between atoms: C5_6  and  C6_7 
REMARK    5  A    between atoms: C9_13  and  N5_14 
REMARK    6  A    between atoms: N5_14  and  C10_15 
REMARK    7  A    between atoms: C10_15  and  C12_17 
ROOT
HETATM    1  C6  UNL     1      23.353  -0.495  54.059  1.00  0.00     0.000 C 
HETATM    2  C7  UNL     1      22.756  -1.179  54.991  1.00  0.00     0.118 C 
HETATM    3  N2  UNL     1      21.667  -1.787  54.808  1.00  0.00    -0.171 NA
HETATM    4  N3  UNL     1      20.370  -1.542  54.313  1.00  0.00    -0.271 N 
HETATM    5  C8  UNL     1      19.899  -0.389  53.616  1.00  0.00     0.227 C 
HETATM    6  N4  UNL     1      20.427   0.617  52.986  1.00  0.00    -0.225 NA
HETATM    7  C9  UNL     1      21.803   0.962  52.740  1.00  0.00     0.126 C 
HETATM    8  C18 UNL     1      23.028   0.576  53.122  1.00  0.00     0.064 C 
HETATM    9  H11 UNL     1      19.699  -2.308  54.496  1.00  0.00     0.190 HD
ENDROOT
BRANCH   7  10
HETATM   10  N5  UNL     1      21.814   2.036  51.809  1.00  0.00    -0.366 N 
HETATM   11  H13 UNL     1      21.271   2.800  52.219  1.00  0.00     0.161 HD
BRANCH  10  12
HETATM   12  C10 UNL     1      22.597   1.610  50.641  1.00  0.00     0.112 C 
HETATM   13  C11 UNL     1      21.703   1.221  49.475  1.00  0.00     0.037 C 
BRANCH  12  14
HETATM   14  C12 UNL     1      23.600   2.621  50.233  1.00  0.00    -0.036 A 
HETATM   15  C13 UNL     1      23.271   3.662  49.361  1.00  0.00     0.009 A 
HETATM   16  C14 UNL     1      24.124   4.651  48.920  1.00  0.00     0.001 A 
HETATM   17  C15 UNL     1      25.405   4.601  49.383  1.00  0.00     0.000 A 
HETATM   18  C16 UNL     1      25.818   3.604  50.251  1.00  0.00     0.001 A 
HETATM   19  C17 UNL     1      24.914   2.633  50.661  1.00  0.00     0.009 A 
ENDBRANCH  12  14
ENDBRANCH  10  12
ENDBRANCH   7  10
BRANCH   1  20
HETATM   20  C5  UNL     1      24.747  -0.883  53.872  1.00  0.00     0.010 C 
HETATM   21  C4  UNL     1      25.477  -0.240  52.976  1.00  0.00    -0.024 C 
BRANCH  21  22
HETATM   22  C3  UNL     1      26.895  -0.382  52.549  1.00  0.00     0.057 C 
BRANCH  22  23
HETATM   23  C2  UNL     1      27.835   0.345  53.482  1.00  0.00     0.272 C 
BRANCH  23  24
HETATM   24  N1  UNL     1      28.568  -0.545  54.360  1.00  0.00     0.079 N 
HETATM   25  C1  UNL     1      29.736  -1.047  53.698  1.00  0.00     0.306 C 
HETATM   26  H4  UNL     1      27.963  -1.246  54.796  1.00  0.00     0.315 HD
ENDBRANCH  23  24
ENDBRANCH  22  23
ENDBRANCH  21  22
ENDBRANCH   1  20
TORSDOF 7
ENDMDL
MODEL 3
REMARK VINA RESULT:      -7.2      2.773      7.472
REMARK  7 active torsions:
REMARK  status: ('A' for Active; 'I' for Inactive)
REMARK    1  A    between atoms: N1_2  and  C2_3 
REMARK    2  A    between atoms: C2_3  and  C3_4 
REMARK    3  A    between atoms: C3_4  and  C4_5 
REMARK    4  A    between atoms: C5_6  and  C6_7 
REMARK    5  A    between atoms: C9_13  and  N5_14 
REMARK    6  A    between atoms: N5_14  and  C10_15 
REMARK    7  A    between atoms: C10_15  and  C12_17 
ROOT
HETATM    1  C6  UNL     1      25.700   3.319  50.041  1.00  0.00     0.000 C 
HETATM    2  C7  UNL     1      24.576   3.433  49.396  1.00  0.00     0.118 C 
HETATM    3  N2  UNL     1      23.529   3.907  49.915  1.00  0.00    -0.171 NA
HETATM    4  N3  UNL     1      22.725   3.735  51.059  1.00  0.00    -0.271 N 
HETATM    5  C8  UNL     1      23.008   2.957  52.222  1.00  0.00     0.227 C 
HETATM    6  N4  UNL     1      24.056   2.415  52.766  1.00  0.00    -0.225 NA
HETATM    7  C9  UNL     1      25.435   2.402  52.355  1.00  0.00     0.126 C 
HETATM    8  C18 UNL     1      26.178   2.739  51.292  1.00  0.00     0.064 C 
HETATM    9  H11 UNL     1      21.826   4.243  51.021  1.00  0.00     0.190 HD
ENDROOT
BRANCH   7  10
HETATM   10  N5  UNL     1      26.196   1.862  53.428  1.00  0.00    -0.366 N 
HETATM   11  H13 UNL     1      25.590   1.846  54.252  1.00  0.00     0.161 HD
BRANCH  10  12
HETATM   12  C10 UNL     1      27.537   1.550  52.916  1.00  0.00     0.112 C 
HETATM   13  C11 UNL     1      28.615   2.336  53.644  1.00  0.00     0.037 C 
BRANCH  12  14
HETATM   14  C12 UNL     1      27.827   0.097  52.937  1.00  0.00    -0.036 A 
HETATM   15  C13 UNL     1      29.059  -0.393  53.379  1.00  0.00     0.009 A 
HETATM   16  C14 UNL     1      29.430  -1.719  53.439  1.00  0.00     0.001 A 
HETATM   17  C15 UNL     1      28.503  -2.630  53.028  1.00  0.00     0.000 A 
HETATM   18  C16 UNL     1      27.256  -2.232  52.575  1.00  0.00     0.001 A 
HETATM   19  C17 UNL     1      26.938  -0.881  52.536  1.00  0.00     0.009 A 
ENDBRANCH  12  14
ENDBRANCH  10  12
ENDBRANCH   7  10
BRANCH   1  20
HETATM   20  C5  UNL     1      26.823   3.933  49.341  1.00  0.00     0.010 C 
HETATM   21  C4  UNL     1      26.726   5.195  48.956  1.00  0.00    -0.024 C 
BRANCH  21  22
HETATM   22  C3  UNL     1      27.665   6.099  48.239  1.00  0.00     0.057 C 
BRANCH  22  23
HETATM   23  C2  UNL     1      29.077   5.563  48.253  1.00  0.00     0.272 C 
BRANCH  23  24
HETATM   24  N1  UNL     1      29.991   6.385  49.022  1.00  0.00     0.079 N 
HETATM   25  C1  UNL     1      29.863   7.761  48.643  1.00  0.00     0.306 C 
HETATM   26  H4  UNL     1      30.942   6.007  49.028  1.00  0.00     0.315 HD
ENDBRANCH  23  24
ENDBRANCH  22  23
ENDBRANCH  21  22
ENDBRANCH   1  20
TORSDOF 7
ENDMDL
MODEL 4
REMARK VINA RESULT:      -7.1      1.649      3.412
REMARK  7 active torsions:
REMARK  status: ('A' for Active; 'I' for Inactive)
REMARK    1  A    between atoms: N1_2  and  C2_3 
REMARK    2  A    between atoms: C2_3  and  C3_4 
REMARK    3  A    between atoms: C3_4  and  C4_5 
REMARK    4  A    between atoms: C5_6  and  C6_7 
REMARK    5  A    between atoms: C9_13  and  N5_14 
REMARK    6  A    between atoms: N5_14  and  C10_15 
REMARK    7  A    between atoms: C10_15  and  C12_17 
ROOT
HETATM    1  C6  UNL     1      24.667  -0.050  53.311  1.00  0.00     0.000 C 
HETATM    2  C7  UNL     1      25.607  -0.935  53.470  1.00  0.00     0.118 C 
HETATM    3  N2  UNL     1      26.732  -0.661  53.972  1.00  0.00    -0.171 NA
HETATM    4  N3  UNL     1      27.783   0.263  53.810  1.00  0.00    -0.271 N 
HETATM    5  C8  UNL     1      27.800   1.444  53.008  1.00  0.00     0.227 C 
HETATM    6  N4  UNL     1      26.922   2.203  52.424  1.00  0.00    -0.225 NA
HETATM    7  C9  UNL     1      25.486   2.121  52.371  1.00  0.00     0.126 C 
HETATM    8  C18 UNL     1      24.508   1.265  52.698  1.00  0.00     0.064 C 
HETATM    9  H11 UNL     1      28.635   0.029  54.348  1.00  0.00     0.190 HD
ENDROOT
BRANCH   7  10
HETATM   10  N5  UNL     1      25.010   3.329  51.792  1.00  0.00    -0.366 N 
HETATM   11  H13 UNL     1      24.765   3.958  52.561  1.00  0.00     0.161 HD
BRANCH  10  12
HETATM   12  C10 UNL     1      25.065   3.180  50.331  1.00  0.00     0.112 C 
HETATM   13  C11 UNL     1      23.676   3.101  49.721  1.00  0.00     0.037 C 
BRANCH  12  14
HETATM   14  C12 UNL     1      25.876   4.238  49.685  1.00  0.00    -0.036 A 
HETATM   15  C13 UNL     1      25.418   5.555  49.599  1.00  0.00     0.009 A 
HETATM   16  C14 UNL     1      26.089   6.612  49.022  1.00  0.00     0.001 A 
HETATM   17  C15 UNL     1      27.312   6.337  48.487  1.00  0.00     0.000 A 
HETATM   18  C16 UNL     1      27.844   5.058  48.528  1.00  0.00     0.001 A 
HETATM   19  C17 UNL     1      27.122   4.033  49.123  1.00  0.00     0.009 A 
ENDBRANCH  12  14
ENDBRANCH  10  12
ENDBRANCH   7  10
BRANCH   1  20
HETATM   20  C5  UNL     1      23.395  -0.459  53.896  1.00  0.00     0.010 C 
HETATM   21  C4  UNL     1      22.354   0.351  53.797  1.00  0.00    -0.024 C 
BRANCH  21  22
HETATM   22  C3  UNL     1      20.948   0.239  54.271  1.00  0.00     0.057 C 
BRANCH  22  23
HETATM   23  C2  UNL     1      20.063  -0.428  53.243  1.00  0.00     0.272 C 
BRANCH  23  24
HETATM   24  N1  UNL     1      19.072  -1.308  53.830  1.00  0.00     0.079 N 
HETATM   25  C1  UNL     1      17.866  -1.286  53.056  1.00  0.00     0.306 C 
HETATM   26  H4  UNL     1      18.962  -1.154  54.836  1.00  0.00     0.315 HD
ENDBRANCH  23  24
ENDBRANCH  22  23
ENDBRANCH  21  22
ENDBRANCH   1  20
TORSDOF 7
ENDMDL
MODEL 5
REMARK VINA RESULT:      -7.0      3.136      7.829
REMARK  7 active torsions:
REMARK  status: ('A' for Active; 'I' for Inactive)
REMARK    1  A    between atoms: N1_2  and  C2_3 
REMARK    2  A    between atoms: C2_3  and  C3_4 
REMARK    3  A    between atoms: C3_4  and  C4_5 
REMARK    4  A    between atoms: C5_6  and  C6_7 
REMARK    5  A    between atoms: C9_13  and  N5_14 
REMARK    6  A    between atoms: N5_14  and  C10_15 
REMARK    7  A    between atoms: C10_15  and  C12_17 
ROOT
HETATM    1  C6  UNL     1      25.940   4.703  49.606  1.00  0.00     0.000 C 
HETATM    2  C7  UNL     1      25.360   5.868  49.607  1.00  0.00     0.118 C 
HETATM    3  N2  UNL     1      24.954   6.433  50.659  1.00  0.00    -0.171 NA
HETATM    4  N3  UNL     1      24.153   6.157  51.785  1.00  0.00    -0.271 N 
HETATM    5  C8  UNL     1      23.622   4.898  52.199  1.00  0.00     0.227 C 
HETATM    6  N4  UNL     1      23.847   3.645  51.940  1.00  0.00    -0.225 NA
HETATM    7  C9  UNL     1      24.801   3.017  51.064  1.00  0.00     0.126 C 
HETATM    8  C18 UNL     1      25.674   3.358  50.105  1.00  0.00     0.064 C 
HETATM    9  H11 UNL     1      23.938   6.988  52.362  1.00  0.00     0.190 HD
ENDROOT
BRANCH   7  10
HETATM   10  N5  UNL     1      24.774   1.621  51.332  1.00  0.00    -0.366 N 
HETATM   11  H13 UNL     1      24.585   1.145  50.447  1.00  0.00     0.161 HD
BRANCH  10  12
HETATM   12  C10 UNL     1      25.027   1.435  52.768  1.00  0.00     0.112 C 
HETATM   13  C11 UNL     1      24.119   0.373  53.367  1.00  0.00     0.037 C 
BRANCH  12  14
HETATM   14  C12 UNL     1      26.451   1.149  53.059  1.00  0.00    -0.036 A 
HETATM   15  C13 UNL     1      27.336   2.166  53.428  1.00  0.00     0.009 A 
HETATM   16  C14 UNL     1      28.674   2.009  53.719  1.00  0.00     0.001 A 
HETATM   17  C15 UNL     1      29.171   0.743  53.638  1.00  0.00     0.000 A 
HETATM   18  C16 UNL     1      28.364  -0.325  53.280  1.00  0.00     0.001 A 
HETATM   19  C17 UNL     1      27.023  -0.107  52.998  1.00  0.00     0.009 A 
ENDBRANCH  12  14
ENDBRANCH  10  12
ENDBRANCH   7  10
BRANCH   1  20
HETATM   20  C5  UNL     1      27.223   4.708  48.912  1.00  0.00     0.010 C 
HETATM   21  C4  UNL     1      27.739   5.863  48.526  1.00  0.00    -0.024 C 
BRANCH  21  22
HETATM   22  C3  UNL     1      28.998   6.212  47.813  1.00  0.00     0.057 C 
BRANCH  22  23
HETATM   23  C2  UNL     1      29.630   7.463  48.376  1.00  0.00     0.272 C 
BRANCH  23  24
HETATM   24  N1  UNL     1      30.689   7.189  49.328  1.00  0.00     0.079 N 
HETATM   25  C1  UNL     1      31.901   7.840  48.926  1.00  0.00     0.306 C 
HETATM   26  H4  UNL     1      30.767   6.192  49.546  1.00  0.00     0.315 HD
ENDBRANCH  23  24
ENDBRANCH  22  23
ENDBRANCH  21  22
ENDBRANCH   1  20
TORSDOF 7
ENDMDL
MODEL 6
REMARK VINA RESULT:      -6.9      1.310      2.109
REMARK  7 active torsions:
REMARK  status: ('A' for Active; 'I' for Inactive)
REMARK    1  A    between atoms: N1_2  and  C2_3 
REMARK    2  A    between atoms: C2_3  and  C3_4 
REMARK    3  A    between atoms: C3_4  and  C4_5 
REMARK    4  A    between atoms: C5_6  and  C6_7 
REMARK    5  A    between atoms: C9_13  and  N5_14 
REMARK    6  A    between atoms: N5_14  and  C10_15 
REMARK    7  A    between atoms: C10_15  and  C12_17 
ROOT
HETATM    1  C6  UNL     1      26.635  -0.265  53.035  1.00  0.00     0.000 C 
HETATM    2  C7  UNL     1      27.586  -0.824  53.726  1.00  0.00     0.118 C 
HETATM    3  N2  UNL     1      28.217  -0.224  54.638  1.00  0.00    -0.171 NA
HETATM    4  N3  UNL     1      28.927   0.976  54.842  1.00  0.00    -0.271 N 
HETATM    5  C8  UNL     1      29.003   2.110  53.979  1.00  0.00     0.227 C 
HETATM    6  N4  UNL     1      28.339   2.570  52.961  1.00  0.00    -0.225 NA
HETATM    7  C9  UNL     1      27.182   2.057  52.276  1.00  0.00     0.126 C 
HETATM    8  C18 UNL     1      26.437   0.943  52.241  1.00  0.00     0.064 C 
HETATM    9  H11 UNL     1      29.449   1.009  55.734  1.00  0.00     0.190 HD
ENDROOT
BRANCH   7  10
HETATM   10  N5  UNL     1      26.732   3.067  51.382  1.00  0.00    -0.366 N 
HETATM   11  H13 UNL     1      27.560   3.560  51.039  1.00  0.00     0.161 HD
BRANCH  10  12
HETATM   12  C10 UNL     1      25.266   2.987  51.317  1.00  0.00     0.112 C 
HETATM   13  C11 UNL     1      24.625   3.299  52.660  1.00  0.00     0.037 C 
BRANCH  12  14
HETATM   14  C12 UNL     1      24.701   3.837  50.243  1.00  0.00    -0.036 A 
HETATM   15  C13 UNL     1      23.521   3.485  49.582  1.00  0.00     0.009 A 
HETATM   16  C14 UNL     1      22.912   4.201  48.573  1.00  0.00     0.001 A 
HETATM   17  C15 UNL     1      23.523   5.358  48.193  1.00  0.00     0.000 A 
HETATM   18  C16 UNL     1      24.696   5.783  48.795  1.00  0.00     0.001 A 
HETATM   19  C17 UNL     1      25.265   5.020  49.806  1.00  0.00     0.009 A 
ENDBRANCH  12  14
ENDBRANCH  10  12
ENDBRANCH   7  10
BRANCH   1  20
HETATM   20  C5  UNL     1      25.401  -1.043  53.033  1.00  0.00     0.010 C 
HETATM   21  C4  UNL     1      24.249  -0.418  53.207  1.00  0.00    -0.024 C 
BRANCH  21  22
HETATM   22  C3  UNL     1      22.842  -0.902  53.256  1.00  0.00     0.057 C 
BRANCH  22  23
HETATM   23  C2  UNL     1      22.303  -0.908  54.667  1.00  0.00     0.272 C 
BRANCH  23  24
HETATM   24  N1  UNL     1      20.881  -1.185  54.733  1.00  0.00     0.079 N 
HETATM   25  C1  UNL     1      20.198  -0.542  53.649  1.00  0.00     0.306 C 
HETATM   26  H4  UNL     1      20.496  -1.021  55.666  1.00  0.00     0.315 HD
ENDBRANCH  23  24
ENDBRANCH  22  23
ENDBRANCH  21  22
ENDBRANCH   1  20
TORSDOF 7
ENDMDL
MODEL 7
REMARK VINA RESULT:      -6.9      3.104      7.280
REMARK  7 active torsions:
REMARK  status: ('A' for Active; 'I' for Inactive)
REMARK    1  A    between atoms: N1_2  and  C2_3 
REMARK    2  A    between atoms: C2_3  and  C3_4 
REMARK    3  A    between atoms: C3_4  and  C4_5 
REMARK    4  A    between atoms: C5_6  and  C6_7 
REMARK    5  A    between atoms: C9_13  and  N5_14 
REMARK    6  A    between atoms: N5_14  and  C10_15 
REMARK    7  A    between atoms: C10_15  and  C12_17 
ROOT
HETATM    1  C6  UNL     1      25.789   4.886  49.646  1.00  0.00     0.000 C 
HETATM    2  C7  UNL     1      25.378   6.119  49.692  1.00  0.00     0.118 C 
HETATM    3  N2  UNL     1      25.049   6.696  50.764  1.00  0.00    -0.171 NA
HETATM    4  N3  UNL     1      24.212   6.493  51.879  1.00  0.00    -0.271 N 
HETATM    5  C8  UNL     1      23.508   5.307  52.245  1.00  0.00     0.227 C 
HETATM    6  N4  UNL     1      23.558   4.045  51.940  1.00  0.00    -0.225 NA
HETATM    7  C9  UNL     1      24.419   3.323  51.041  1.00  0.00     0.126 C 
HETATM    8  C18 UNL     1      25.335   3.573  50.096  1.00  0.00     0.064 C 
HETATM    9  H11 UNL     1      24.112   7.325  52.486  1.00  0.00     0.190 HD
ENDROOT
BRANCH   7  10
HETATM   10  N5  UNL     1      24.195   1.935  51.257  1.00  0.00    -0.366 N 
HETATM   11  H13 UNL     1      25.102   1.467  51.188  1.00  0.00     0.161 HD
BRANCH  10  12
HETATM   12  C10 UNL     1      22.757   1.743  51.491  1.00  0.00     0.112 C 
HETATM   13  C11 UNL     1      22.038   1.287  50.232  1.00  0.00     0.037 C 
BRANCH  12  14
HETATM   14  C12 UNL     1      22.485   0.830  52.624  1.00  0.00    -0.036 A 
HETATM   15  C13 UNL     1      21.210   0.728  53.187  1.00  0.00     0.009 A 
HETATM   16  C14 UNL     1      20.850  -0.086  54.239  1.00  0.00     0.001 A 
HETATM   17  C15 UNL     1      21.835  -0.862  54.773  1.00  0.00     0.000 A 
HETATM   18  C16 UNL     1      23.128  -0.825  54.277  1.00  0.00     0.001 A 
HETATM   19  C17 UNL     1      23.432   0.016  53.215  1.00  0.00     0.009 A 
ENDBRANCH  12  14
ENDBRANCH  10  12
ENDBRANCH   7  10
BRANCH   1  20
HETATM   20  C5  UNL     1      27.064   4.736  48.953  1.00  0.00     0.010 C 
HETATM   21  C4  UNL     1      27.704   5.821  48.548  1.00  0.00    -0.024 C 
BRANCH  21  22
HETATM   22  C3  UNL     1      28.994   6.015  47.831  1.00  0.00     0.057 C 
BRANCH  22  23
HETATM   23  C2  UNL     1      29.706   7.265  48.292  1.00  0.00     0.272 C 
BRANCH  23  24
HETATM   24  N1  UNL     1      28.981   7.989  49.317  1.00  0.00     0.079 N 
HETATM   25  C1  UNL     1      29.008   9.397  49.046  1.00  0.00     0.306 C 
HETATM   26  H4  UNL     1      29.259   7.709  50.261  1.00  0.00     0.315 HD
ENDBRANCH  23  24
ENDBRANCH  22  23
ENDBRANCH  21  22
ENDBRANCH   1  20
TORSDOF 7
ENDMDL
MODEL 8
REMARK VINA RESULT:      -6.8      1.498      2.378
REMARK  7 active torsions:
REMARK  status: ('A' for Active; 'I' for Inactive)
REMARK    1  A    between atoms: N1_2  and  C2_3 
REMARK    2  A    between atoms: C2_3  and  C3_4 
REMARK    3  A    between atoms: C3_4  and  C4_5 
REMARK    4  A    between atoms: C5_6  and  C6_7 
REMARK    5  A    between atoms: C9_13  and  N5_14 
REMARK    6  A    between atoms: N5_14  and  C10_15 
REMARK    7  A    between atoms: C10_15  and  C12_17 
ROOT
HETATM    1  C6  UNL     1      24.118  -0.513  54.114  1.00  0.00     0.000 C 
HETATM    2  C7  UNL     1      24.885  -1.236  54.877  1.00  0.00     0.118 C 
HETATM    3  N2  UNL     1      25.891  -0.771  55.479  1.00  0.00    -0.171 NA
HETATM    4  N3  UNL     1      27.054  -0.024  55.208  1.00  0.00    -0.271 N 
HETATM    5  C8  UNL     1      27.393   0.670  54.007  1.00  0.00     0.227 C 
HETATM    6  N4  UNL     1      26.767   1.089  52.948  1.00  0.00    -0.225 NA
HETATM    7  C9  UNL     1      25.381   0.999  52.571  1.00  0.00     0.126 C 
HETATM    8  C18 UNL     1      24.259   0.387  52.974  1.00  0.00     0.064 C 
HETATM    9  H11 UNL     1      27.728   0.005  55.992  1.00  0.00     0.190 HD
ENDROOT
BRANCH   7  10
HETATM   10  N5  UNL     1      25.196   1.820  51.425  1.00  0.00    -0.366 N 
HETATM   11  H13 UNL     1      26.044   1.745  50.857  1.00  0.00     0.161 HD
BRANCH  10  12
HETATM   12  C10 UNL     1      23.867   2.439  51.525  1.00  0.00     0.112 C 
HETATM   13  C11 UNL     1      23.959   3.927  51.818  1.00  0.00     0.037 C 
BRANCH  12  14
HETATM   14  C12 UNL     1      23.030   2.178  50.331  1.00  0.00    -0.036 A 
HETATM   15  C13 UNL     1      23.252   2.851  49.126  1.00  0.00     0.009 A 
HETATM   16  C14 UNL     1      22.536   2.684  47.960  1.00  0.00     0.001 A 
HETATM   17  C15 UNL     1      21.520   1.777  47.994  1.00  0.00     0.000 A 
HETATM   18  C16 UNL     1      21.230   1.065  49.146  1.00  0.00     0.001 A 
HETATM   19  C17 UNL     1      21.985   1.274  50.292  1.00  0.00     0.009 A 
ENDBRANCH  12  14
ENDBRANCH  10  12
ENDBRANCH   7  10
BRANCH   1  20
HETATM   20  C5  UNL     1      22.707  -0.609  54.473  1.00  0.00     0.010 C 
HETATM   21  C4  UNL     1      21.850   0.243  53.934  1.00  0.00    -0.024 C 
BRANCH  21  22
HETATM   22  C3  UNL     1      20.379   0.414  54.081  1.00  0.00     0.057 C 
BRANCH  22  23
HETATM   23  C2  UNL     1      19.615  -0.486  53.138  1.00  0.00     0.272 C 
BRANCH  23  24
HETATM   24  N1  UNL     1      18.711  -1.391  53.820  1.00  0.00     0.079 N 
HETATM   25  C1  UNL     1      17.443  -1.425  53.153  1.00  0.00     0.306 C 
HETATM   26  H4  UNL     1      18.682  -1.224  54.829  1.00  0.00     0.315 HD
ENDBRANCH  23  24
ENDBRANCH  22  23
ENDBRANCH  21  22
ENDBRANCH   1  20
TORSDOF 7
ENDMDL
MODEL 9
REMARK VINA RESULT:      -6.6      2.067      5.458
REMARK  7 active torsions:
REMARK  status: ('A' for Active; 'I' for Inactive)
REMARK    1  A    between atoms: N1_2  and  C2_3 
REMARK    2  A    between atoms: C2_3  and  C3_4 
REMARK    3  A    between atoms: C3_4  and  C4_5 
REMARK    4  A    between atoms: C5_6  and  C6_7 
REMARK    5  A    between atoms: C9_13  and  N5_14 
REMARK    6  A    between atoms: N5_14  and  C10_15 
REMARK    7  A    between atoms: C10_15  and  C12_17 
ROOT
HETATM    1  C6  UNL     1      25.882   2.825  50.550  1.00  0.00     0.000 C 
HETATM    2  C7  UNL     1      26.459   3.645  49.722  1.00  0.00     0.118 C 
HETATM    3  N2  UNL     1      26.018   4.801  49.478  1.00  0.00    -0.171 NA
HETATM    4  N3  UNL     1      24.819   5.433  49.093  1.00  0.00    -0.271 N 
HETATM    5  C8  UNL     1      23.512   4.865  49.017  1.00  0.00     0.227 C 
HETATM    6  N4  UNL     1      22.913   3.805  49.470  1.00  0.00    -0.225 NA
HETATM    7  C9  UNL     1      23.395   2.722  50.286  1.00  0.00     0.126 C 
HETATM    8  C18 UNL     1      24.556   2.255  50.766  1.00  0.00     0.064 C 
HETATM    9  H11 UNL     1      24.932   6.428  48.837  1.00  0.00     0.190 HD
ENDROOT
BRANCH   7  10
HETATM   10  N5  UNL     1      22.269   1.947  50.676  1.00  0.00    -0.366 N 
HETATM   11  H13 UNL     1      21.946   1.442  49.848  1.00  0.00     0.161 HD
BRANCH  10  12
HETATM   12  C10 UNL     1      22.032   2.187  52.107  1.00  0.00     0.112 C 
HETATM   13  C11 UNL     1      20.824   3.082  52.334  1.00  0.00     0.037 C 
BRANCH  12  14
HETATM   14  C12 UNL     1      21.921   0.929  52.881  1.00  0.00    -0.036 A 
HETATM   15  C13 UNL     1      23.052   0.287  53.392  1.00  0.00     0.009 A 
HETATM   16  C14 UNL     1      23.061  -0.882  54.122  1.00  0.00     0.001 A 
HETATM   17  C15 UNL     1      21.849  -1.458  54.364  1.00  0.00     0.000 A 
HETATM   18  C16 UNL     1      20.676  -0.889  53.895  1.00  0.00     0.001 A 
HETATM   19  C17 UNL     1      20.729   0.290  53.165  1.00  0.00     0.009 A 
ENDBRANCH  12  14
ENDBRANCH  10  12
ENDBRANCH   7  10
BRANCH   1  20
HETATM   20  C5  UNL     1      26.793   2.307  51.566  1.00  0.00     0.010 C 
HETATM   21  C4  UNL     1      26.518   1.149  52.143  1.00  0.00    -0.024 C 
BRANCH  21  22
HETATM   22  C3  UNL     1      27.221   0.358  53.189  1.00  0.00     0.057 C 
BRANCH  22  23
HETATM   23  C2  UNL     1      27.394  -1.085  52.775  1.00  0.00     0.272 C 
BRANCH  23  24
HETATM   24  N1  UNL     1      28.488  -1.746  53.458  1.00  0.00     0.079 N 
HETATM   25  C1  UNL     1      29.642  -0.896  53.491  1.00  0.00     0.306 C 
HETATM   26  H4  UNL     1      28.643  -2.698  53.114  1.00  0.00     0.315 HD
ENDBRANCH  23  24
ENDBRANCH  22  23
ENDBRANCH  21  22
ENDBRANCH   1  20
TORSDOF 7
ENDMDL
