MODEL 1
REMARK VINA RESULT:      -8.6      0.000      0.000
REMARK  5 active torsions:
REMARK  status: ('A' for Active; 'I' for Inactive)
REMARK    1  A    between atoms: N1_7  and  C7_8 
REMARK    2  A    between atoms: C11_14  and  O1_15 
REMARK    3  A    between atoms: C12_16  and  C13_17 
REMARK    4  A    between atoms: C13_17  and  C14_18 
REMARK    5  A    between atoms: C14_18  and  N4_19 
ROOT
HETATM    1  C7  UNL     1      23.173   2.933  49.346  1.00  0.00     0.146 A 
HETATM    2  N2  UNL     1      22.535   2.457  48.274  1.00  0.00    -0.223 NA
HETATM    3  C8  UNL     1      21.360   1.833  48.368  1.00  0.00     0.236 A 
HETATM    4  N3  UNL     1      20.788   1.669  49.571  1.00  0.00    -0.241 NA
HETATM    5  C9  UNL     1      21.365   2.122  50.727  1.00  0.00     0.070 A 
HETATM    6  C10 UNL     1      22.601   2.770  50.572  1.00  0.00     0.048 A 
HETATM    7  C11 UNL     1      23.175   3.194  51.931  1.00  0.00     0.190 C 
HETATM    8  C12 UNL     1      23.833   1.896  52.395  1.00  0.00     0.255 C 
HETATM    9  N5  UNL     1      23.110   0.715  52.131  1.00  0.00     0.094 N 
HETATM   10  C19 UNL     1      23.337  -0.426  52.944  1.00  0.00     0.297 C 
HETATM   11  C20 UNL     1      22.370  -0.422  54.073  1.00  0.00     0.003 C 
HETATM   12  C21 UNL     1      21.276   0.349  54.047  1.00  0.00    -0.002 C 
HETATM   13  C22 UNL     1      20.629   1.298  53.162  1.00  0.00     0.002 C 
HETATM   14  C23 UNL     1      20.659   1.914  52.012  1.00  0.00     0.032 C 
HETATM   15  H23 UNL     1      23.099   0.432  51.127  1.00  0.00     0.316 HD
ENDROOT
BRANCH   8  16
HETATM   16  C13 UNL     1      24.629   2.064  53.623  1.00  0.00     0.068 C 
BRANCH  16  17
HETATM   17  C14 UNL     1      26.099   2.130  53.546  1.00  0.00     0.275 C 
BRANCH  17  18
HETATM   18  N4  UNL     1      26.666   0.808  53.761  1.00  0.00     0.092 N 
HETATM   19  C15 UNL     1      27.913   0.824  54.494  1.00  0.00     0.298 C 
HETATM   20  C16 UNL     1      28.705  -0.384  53.977  1.00  0.00     0.198 C 
HETATM   21  O2  UNL     1      27.889  -1.465  53.747  1.00  0.00    -0.388 OA
HETATM   22  C17 UNL     1      27.214  -1.266  52.547  1.00  0.00     0.198 C 
HETATM   23  C18 UNL     1      26.862   0.187  52.440  1.00  0.00     0.298 C 
ENDBRANCH  17  18
ENDBRANCH  16  17
ENDBRANCH   8  16
BRANCH   7  24
HETATM   24  O1  UNL     1      22.071   3.458  52.720  1.00  0.00    -0.388 OA
HETATM   25  H9  UNL     1      21.886   4.400  52.852  1.00  0.00     0.210 HD
ENDBRANCH   7  24
BRANCH   1  26
HETATM   26  N1  UNL     1      24.410   3.611  49.253  1.00  0.00    -0.310 N 
HETATM   27  C2  UNL     1      24.398   5.015  48.920  1.00  0.00     0.014 C 
HETATM   28  C1  UNL     1      23.095   5.725  48.706  1.00  0.00     0.068 C 
HETATM   29  C3  UNL     1      25.556   5.672  48.812  1.00  0.00     0.026 C 
HETATM   30  C4  UNL     1      26.826   4.996  49.018  1.00  0.00     0.015 C 
HETATM   31  C5  UNL     1      26.804   3.792  49.494  1.00  0.00    -0.009 C 
HETATM   32  C6  UNL     1      25.722   3.080  49.432  1.00  0.00     0.111 C 
ENDBRANCH   1  26
TORSDOF 5
ENDMDL
MODEL 2
REMARK VINA RESULT:      -8.2      1.960      5.227
REMARK  5 active torsions:
REMARK  status: ('A' for Active; 'I' for Inactive)
REMARK    1  A    between atoms: N1_7  and  C7_8 
REMARK    2  A    between atoms: C11_14  and  O1_15 
REMARK    3  A    between atoms: C12_16  and  C13_17 
REMARK    4  A    between atoms: C13_17  and  C14_18 
REMARK    5  A    between atoms: C14_18  and  N4_19 
ROOT
HETATM    1  C7  UNL     1      20.128   2.086  51.976  1.00  0.00     0.146 A 
HETATM    2  N2  UNL     1      19.068   2.884  52.126  1.00  0.00    -0.223 NA
HETATM    3  C8  UNL     1      18.843   3.921  51.318  1.00  0.00     0.236 A 
HETATM    4  N3  UNL     1      19.700   4.185  50.319  1.00  0.00    -0.241 NA
HETATM    5  C9  UNL     1      20.814   3.425  50.085  1.00  0.00     0.070 A 
HETATM    6  C10 UNL     1      21.004   2.346  50.965  1.00  0.00     0.048 A 
HETATM    7  C11 UNL     1      22.301   1.593  50.640  1.00  0.00     0.190 C 
HETATM    8  C12 UNL     1      23.336   2.456  51.359  1.00  0.00     0.255 C 
HETATM    9  N5  UNL     1      23.141   3.849  51.270  1.00  0.00     0.094 N 
HETATM   10  C19 UNL     1      24.258   4.712  51.419  1.00  0.00     0.297 C 
HETATM   11  C20 UNL     1      24.841   4.992  50.081  1.00  0.00     0.003 C 
HETATM   12  C21 UNL     1      24.154   4.742  48.958  1.00  0.00    -0.002 C 
HETATM   13  C22 UNL     1      22.857   4.233  48.563  1.00  0.00     0.002 C 
HETATM   14  C23 UNL     1      21.698   3.775  48.951  1.00  0.00     0.032 C 
HETATM   15  H23 UNL     1      22.343   4.209  51.837  1.00  0.00     0.316 HD
ENDROOT
BRANCH   8  16
HETATM   16  C13 UNL     1      24.682   1.857  51.359  1.00  0.00     0.068 C 
BRANCH  16  17
HETATM   17  C14 UNL     1      25.003   0.764  52.294  1.00  0.00     0.275 C 
BRANCH  17  18
HETATM   18  N4  UNL     1      26.077   1.174  53.186  1.00  0.00     0.092 N 
HETATM   19  C15 UNL     1      27.020   2.085  52.576  1.00  0.00     0.298 C 
HETATM   20  C16 UNL     1      28.363   1.799  53.261  1.00  0.00     0.198 C 
HETATM   21  O2  UNL     1      28.204   1.539  54.600  1.00  0.00    -0.388 OA
HETATM   22  C17 UNL     1      27.736   0.238  54.749  1.00  0.00     0.198 C 
HETATM   23  C18 UNL     1      26.768  -0.045  53.640  1.00  0.00     0.298 C 
ENDBRANCH  17  18
ENDBRANCH  16  17
ENDBRANCH   8  16
BRANCH   7  24
HETATM   24  O1  UNL     1      22.461   1.728  49.273  1.00  0.00    -0.388 OA
HETATM   25  H9  UNL     1      22.412   2.640  48.949  1.00  0.00     0.210 HD
ENDBRANCH   7  24
BRANCH   1  26
HETATM   26  N1  UNL     1      20.365   0.974  52.816  1.00  0.00    -0.310 N 
HETATM   27  C2  UNL     1      19.524  -0.189  52.666  1.00  0.00     0.014 C 
HETATM   28  C1  UNL     1      18.448  -0.209  51.623  1.00  0.00     0.068 C 
HETATM   29  C3  UNL     1      19.720  -1.245  53.460  1.00  0.00     0.026 C 
HETATM   30  C4  UNL     1      20.761  -1.240  54.475  1.00  0.00     0.015 C 
HETATM   31  C5  UNL     1      21.615  -0.267  54.465  1.00  0.00    -0.009 C 
HETATM   32  C6  UNL     1      21.345   0.838  53.844  1.00  0.00     0.111 C 
ENDBRANCH   1  26
TORSDOF 5
ENDMDL
MODEL 3
REMARK VINA RESULT:      -7.9      2.176      5.769
REMARK  5 active torsions:
REMARK  status: ('A' for Active; 'I' for Inactive)
REMARK    1  A    between atoms: N1_7  and  C7_8 
REMARK    2  A    between atoms: C11_14  and  O1_15 
REMARK    3  A    between atoms: C12_16  and  C13_17 
REMARK    4  A    between atoms: C13_17  and  C14_18 
REMARK    5  A    between atoms: C14_18  and  N4_19 
ROOT
HETATM    1  C7  UNL     1      26.385   2.332  51.271  1.00  0.00     0.146 A 
HETATM    2  N2  UNL     1      27.041   2.770  50.194  1.00  0.00    -0.223 NA
HETATM    3  C8  UNL     1      26.688   3.886  49.554  1.00  0.00     0.236 A 
HETATM    4  N3  UNL     1      25.643   4.604  49.995  1.00  0.00    -0.241 NA
HETATM    5  C9  UNL     1      24.909   4.237  51.090  1.00  0.00     0.070 A 
HETATM    6  C10 UNL     1      25.321   3.054  51.725  1.00  0.00     0.048 A 
HETATM    7  C11 UNL     1      24.404   2.715  52.908  1.00  0.00     0.190 C 
HETATM    8  C12 UNL     1      23.247   2.015  52.197  1.00  0.00     0.255 C 
HETATM    9  N5  UNL     1      22.845   2.586  50.972  1.00  0.00     0.094 N 
HETATM   10  C19 UNL     1      21.518   2.375  50.517  1.00  0.00     0.297 C 
HETATM   11  C20 UNL     1      20.654   3.486  50.995  1.00  0.00     0.003 C 
HETATM   12  C21 UNL     1      21.183   4.630  51.448  1.00  0.00    -0.002 C 
HETATM   13  C22 UNL     1      22.488   5.228  51.642  1.00  0.00     0.002 C 
HETATM   14  C23 UNL     1      23.780   5.094  51.519  1.00  0.00     0.032 C 
HETATM   15  H23 UNL     1      23.513   2.432  50.187  1.00  0.00     0.316 HD
ENDROOT
BRANCH   8  16
HETATM   16  C13 UNL     1      22.278   1.417  53.132  1.00  0.00     0.068 C 
BRANCH  16  17
HETATM   17  C14 UNL     1      21.960  -0.020  53.045  1.00  0.00     0.275 C 
BRANCH  17  18
HETATM   18  N4  UNL     1      20.558  -0.237  53.365  1.00  0.00     0.092 N 
HETATM   19  C15 UNL     1      20.307  -1.482  54.058  1.00  0.00     0.298 C 
HETATM   20  C16 UNL     1      18.897  -1.908  53.633  1.00  0.00     0.198 C 
HETATM   21  O2  UNL     1      18.051  -0.831  53.527  1.00  0.00    -0.388 OA
HETATM   22  C17 UNL     1      18.320  -0.169  52.333  1.00  0.00     0.198 C 
HETATM   23  C18 UNL     1      19.801  -0.199  52.102  1.00  0.00     0.298 C 
ENDBRANCH  17  18
ENDBRANCH  16  17
ENDBRANCH   8  16
BRANCH   7  24
HETATM   24  O1  UNL     1      23.975   3.937  53.391  1.00  0.00    -0.388 OA
HETATM   25  H9  UNL     1      23.992   4.017  54.357  1.00  0.00     0.210 HD
ENDBRANCH   7  24
BRANCH   1  26
HETATM   26  N1  UNL     1      26.762   1.160  51.964  1.00  0.00    -0.310 N 
HETATM   27  C2  UNL     1      27.786   1.262  52.976  1.00  0.00     0.014 C 
HETATM   28  C1  UNL     1      28.405   2.592  53.287  1.00  0.00     0.068 C 
HETATM   29  C3  UNL     1      28.169   0.165  53.633  1.00  0.00     0.026 C 
HETATM   30  C4  UNL     1      27.577  -1.131  53.342  1.00  0.00     0.015 C 
HETATM   31  C5  UNL     1      26.539  -1.165  52.569  1.00  0.00    -0.009 C 
HETATM   32  C6  UNL     1      26.267  -0.166  51.788  1.00  0.00     0.111 C 
ENDBRANCH   1  26
TORSDOF 5
ENDMDL
MODEL 4
REMARK VINA RESULT:      -7.9      2.222      5.884
REMARK  5 active torsions:
REMARK  status: ('A' for Active; 'I' for Inactive)
REMARK    1  A    between atoms: N1_7  and  C7_8 
REMARK    2  A    between atoms: C11_14  and  O1_15 
REMARK    3  A    between atoms: C12_16  and  C13_17 
REMARK    4  A    between atoms: C13_17  and  C14_18 
REMARK    5  A    between atoms: C14_18  and  N4_19 
ROOT
HETATM    1  C7  UNL     1      24.615   0.534  53.225  1.00  0.00     0.146 A 
HETATM    2  N2  UNL     1      23.984  -0.235  54.116  1.00  0.00    -0.223 NA
HETATM    3  C8  UNL     1      22.681  -0.502  54.024  1.00  0.00     0.236 A 
HETATM    4  N3  UNL     1      21.966   0.011  53.010  1.00  0.00    -0.241 NA
HETATM    5  C9  UNL     1      22.523   0.810  52.048  1.00  0.00     0.070 A 
HETATM    6  C10 UNL     1      23.897   1.060  52.193  1.00  0.00     0.048 A 
HETATM    7  C11 UNL     1      24.405   1.999  51.090  1.00  0.00     0.190 C 
HETATM    8  C12 UNL     1      24.024   3.364  51.660  1.00  0.00     0.255 C 
HETATM    9  N5  UNL     1      22.767   3.432  52.295  1.00  0.00     0.094 N 
HETATM   10  C19 UNL     1      22.104   4.685  52.375  1.00  0.00     0.297 C 
HETATM   11  C20 UNL     1      21.205   4.837  51.202  1.00  0.00     0.003 C 
HETATM   12  C21 UNL     1      20.858   3.784  50.451  1.00  0.00    -0.002 C 
HETATM   13  C22 UNL     1      21.090   2.354  50.403  1.00  0.00     0.002 C 
HETATM   14  C23 UNL     1      21.667   1.322  50.955  1.00  0.00     0.032 C 
HETATM   15  H23 UNL     1      22.727   2.955  53.222  1.00  0.00     0.316 HD
ENDROOT
BRANCH   8  16
HETATM   16  C13 UNL     1      24.559   4.485  50.869  1.00  0.00     0.068 C 
BRANCH  16  17
HETATM   17  C14 UNL     1      25.843   4.341  50.161  1.00  0.00     0.275 C 
BRANCH  17  18
HETATM   18  N4  UNL     1      25.982   5.395  49.167  1.00  0.00     0.092 N 
HETATM   19  C15 UNL     1      27.304   5.471  48.584  1.00  0.00     0.298 C 
HETATM   20  C16 UNL     1      27.510   6.950  48.234  1.00  0.00     0.198 C 
HETATM   21  O2  UNL     1      26.356   7.524  47.758  1.00  0.00    -0.388 OA
HETATM   22  C17 UNL     1      25.515   7.791  48.834  1.00  0.00     0.198 C 
HETATM   23  C18 UNL     1      25.642   6.670  49.821  1.00  0.00     0.298 C 
ENDBRANCH  17  18
ENDBRANCH  16  17
ENDBRANCH   8  16
BRANCH   7  24
HETATM   24  O1  UNL     1      23.613   1.722  49.991  1.00  0.00    -0.388 OA
HETATM   25  H9  UNL     1      22.809   2.259  49.928  1.00  0.00     0.210 HD
ENDBRANCH   7  24
BRANCH   1  26
HETATM   26  N1  UNL     1      25.999   0.807  53.305  1.00  0.00    -0.310 N 
HETATM   27  C2  UNL     1      26.926  -0.239  52.944  1.00  0.00     0.014 C 
HETATM   28  C1  UNL     1      26.414  -1.568  52.476  1.00  0.00     0.068 C 
HETATM   29  C3  UNL     1      28.239  -0.008  53.027  1.00  0.00     0.026 C 
HETATM   30  C4  UNL     1      28.749   1.276  53.479  1.00  0.00     0.015 C 
HETATM   31  C5  UNL     1      27.907   2.250  53.617  1.00  0.00    -0.009 C 
HETATM   32  C6  UNL     1      26.638   2.012  53.724  1.00  0.00     0.111 C 
ENDBRANCH   1  26
TORSDOF 5
ENDMDL
MODEL 5
REMARK VINA RESULT:      -7.8      2.270      5.687
REMARK  5 active torsions:
REMARK  status: ('A' for Active; 'I' for Inactive)
REMARK    1  A    between atoms: N1_7  and  C7_8 
REMARK    2  A    between atoms: C11_14  and  O1_15 
REMARK    3  A    between atoms: C12_16  and  C13_17 
REMARK    4  A    between atoms: C13_17  and  C14_18 
REMARK    5  A    between atoms: C14_18  and  N4_19 
ROOT
HETATM    1  C7  UNL     1      24.067   0.256  53.336  1.00  0.00     0.146 A 
HETATM    2  N2  UNL     1      23.620  -0.565  54.289  1.00  0.00    -0.223 NA
HETATM    3  C8  UNL     1      22.379  -1.055  54.278  1.00  0.00     0.236 A 
HETATM    4  N3  UNL     1      21.542  -0.722  53.284  1.00  0.00    -0.241 NA
HETATM    5  C9  UNL     1      21.908   0.113  52.262  1.00  0.00     0.070 A 
HETATM    6  C10 UNL     1      23.223   0.601  52.324  1.00  0.00     0.048 A 
HETATM    7  C11 UNL     1      23.510   1.558  51.159  1.00  0.00     0.190 C 
HETATM    8  C12 UNL     1      22.925   2.864  51.693  1.00  0.00     0.255 C 
HETATM    9  N5  UNL     1      21.705   2.747  52.391  1.00  0.00     0.094 N 
HETATM   10  C19 UNL     1      20.840   3.870  52.456  1.00  0.00     0.297 C 
HETATM   11  C20 UNL     1      19.875   3.810  51.327  1.00  0.00     0.003 C 
HETATM   12  C21 UNL     1      19.682   2.677  50.638  1.00  0.00    -0.002 C 
HETATM   13  C22 UNL     1      20.156   1.308  50.635  1.00  0.00     0.002 C 
HETATM   14  C23 UNL     1      20.927   0.418  51.196  1.00  0.00     0.032 C 
HETATM   15  H23 UNL     1      21.790   2.316  53.337  1.00  0.00     0.316 HD
ENDROOT
BRANCH   8  16
HETATM   16  C13 UNL     1      23.221   4.021  50.831  1.00  0.00     0.068 C 
BRANCH  16  17
HETATM   17  C14 UNL     1      24.515   4.106  50.131  1.00  0.00     0.275 C 
BRANCH  17  18
HETATM   18  N4  UNL     1      25.122   5.407  50.369  1.00  0.00     0.092 N 
HETATM   19  C15 UNL     1      24.228   6.360  50.989  1.00  0.00     0.298 C 
HETATM   20  C16 UNL     1      24.674   7.733  50.472  1.00  0.00     0.198 C 
HETATM   21  O2  UNL     1      26.042   7.818  50.374  1.00  0.00    -0.388 OA
HETATM   22  C17 UNL     1      26.449   7.142  49.229  1.00  0.00     0.198 C 
HETATM   23  C18 UNL     1      25.593   5.922  49.072  1.00  0.00     0.298 C 
ENDBRANCH  17  18
ENDBRANCH  16  17
ENDBRANCH   8  16
BRANCH   7  24
HETATM   24  O1  UNL     1      22.729   1.097  50.115  1.00  0.00    -0.388 OA
HETATM   25  H9  UNL     1      22.259   0.270  50.299  1.00  0.00     0.210 HD
ENDBRANCH   7  24
BRANCH   1  26
HETATM   26  N1  UNL     1      25.386   0.765  53.332  1.00  0.00    -0.310 N 
HETATM   27  C2  UNL     1      26.447  -0.084  52.846  1.00  0.00     0.014 C 
HETATM   28  C1  UNL     1      26.135  -1.461  52.341  1.00  0.00     0.068 C 
HETATM   29  C3  UNL     1      27.702   0.371  52.847  1.00  0.00     0.026 C 
HETATM   30  C4  UNL     1      28.018   1.704  53.334  1.00  0.00     0.015 C 
HETATM   31  C5  UNL     1      27.035   2.507  53.588  1.00  0.00    -0.009 C 
HETATM   32  C6  UNL     1      25.838   2.045  53.772  1.00  0.00     0.111 C 
ENDBRANCH   1  26
TORSDOF 5
ENDMDL
MODEL 6
REMARK VINA RESULT:      -7.7      1.649      1.930
REMARK  5 active torsions:
REMARK  status: ('A' for Active; 'I' for Inactive)
REMARK    1  A    between atoms: N1_7  and  C7_8 
REMARK    2  A    between atoms: C11_14  and  O1_15 
REMARK    3  A    between atoms: C12_16  and  C13_17 
REMARK    4  A    between atoms: C13_17  and  C14_18 
REMARK    5  A    between atoms: C14_18  and  N4_19 
ROOT
HETATM    1  C7  UNL     1      23.438   4.979  48.866  1.00  0.00     0.146 A 
HETATM    2  N2  UNL     1      22.665   5.028  47.778  1.00  0.00    -0.223 NA
HETATM    3  C8  UNL     1      21.349   4.817  47.834  1.00  0.00     0.236 A 
HETATM    4  N3  UNL     1      20.768   4.547  49.013  1.00  0.00    -0.241 NA
HETATM    5  C9  UNL     1      21.475   4.475  50.182  1.00  0.00     0.070 A 
HETATM    6  C10 UNL     1      22.856   4.703  50.067  1.00  0.00     0.048 A 
HETATM    7  C11 UNL     1      23.554   4.554  51.426  1.00  0.00     0.190 C 
HETATM    8  C12 UNL     1      23.738   3.040  51.503  1.00  0.00     0.255 C 
HETATM    9  N5  UNL     1      22.655   2.267  51.037  1.00  0.00     0.094 N 
HETATM   10  C19 UNL     1      22.490   0.946  51.530  1.00  0.00     0.297 C 
HETATM   11  C20 UNL     1      21.594   0.975  52.715  1.00  0.00     0.003 C 
HETATM   12  C21 UNL     1      20.825   2.040  52.978  1.00  0.00    -0.002 C 
HETATM   13  C22 UNL     1      20.529   3.340  52.410  1.00  0.00     0.002 C 
HETATM   14  C23 UNL     1      20.754   4.186  51.442  1.00  0.00     0.032 C 
HETATM   15  H23 UNL     1      22.539   2.271  50.001  1.00  0.00     0.316 HD
ENDROOT
BRANCH   8  16
HETATM   16  C13 UNL     1      24.556   2.619  52.654  1.00  0.00     0.068 C 
BRANCH  16  17
HETATM   17  C14 UNL     1      26.002   2.385  52.484  1.00  0.00     0.275 C 
BRANCH  17  18
HETATM   18  N4  UNL     1      26.511   1.605  53.602  1.00  0.00     0.092 N 
HETATM   19  C15 UNL     1      27.913   1.270  53.483  1.00  0.00     0.298 C 
HETATM   20  C16 UNL     1      28.073  -0.075  54.202  1.00  0.00     0.198 C 
HETATM   21  O2  UNL     1      27.295  -0.142  55.332  1.00  0.00    -0.388 OA
HETATM   22  C17 UNL     1      25.979  -0.386  54.953  1.00  0.00     0.198 C 
HETATM   23  C18 UNL     1      25.702   0.377  53.693  1.00  0.00     0.298 C 
ENDBRANCH  17  18
ENDBRANCH  16  17
ENDBRANCH   8  16
BRANCH   7  24
HETATM   24  O1  UNL     1      22.613   4.951  52.358  1.00  0.00    -0.388 OA
HETATM   25  H9  UNL     1      22.704   4.532  53.227  1.00  0.00     0.210 HD
ENDBRANCH   7  24
BRANCH   1  26
HETATM   26  N1  UNL     1      24.830   5.218  48.818  1.00  0.00    -0.310 N 
HETATM   27  C2  UNL     1      25.286   6.567  48.585  1.00  0.00     0.014 C 
HETATM   28  C1  UNL     1      24.293   7.678  48.424  1.00  0.00     0.068 C 
HETATM   29  C3  UNL     1      26.597   6.813  48.521  1.00  0.00     0.026 C 
HETATM   30  C4  UNL     1      27.571   5.745  48.676  1.00  0.00     0.015 C 
HETATM   31  C5  UNL     1      27.145   4.586  49.067  1.00  0.00    -0.009 C 
HETATM   32  C6  UNL     1      25.892   4.275  48.957  1.00  0.00     0.111 C 
ENDBRANCH   1  26
TORSDOF 5
ENDMDL
MODEL 7
REMARK VINA RESULT:      -7.6      2.546      5.407
REMARK  5 active torsions:
REMARK  status: ('A' for Active; 'I' for Inactive)
REMARK    1  A    between atoms: N1_7  and  C7_8 
REMARK    2  A    between atoms: C11_14  and  O1_15 
REMARK    3  A    between atoms: C12_16  and  C13_17 
REMARK    4  A    between atoms: C13_17  and  C14_18 
REMARK    5  A    between atoms: C14_18  and  N4_19 
ROOT
HETATM    1  C7  UNL     1      22.252   5.709  50.571  1.00  0.00     0.146 A 
HETATM    2  N2  UNL     1      22.558   6.972  50.878  1.00  0.00    -0.223 NA
HETATM    3  C8  UNL     1      23.818   7.406  50.912  1.00  0.00     0.236 A 
HETATM    4  N3  UNL     1      24.822   6.561  50.632  1.00  0.00    -0.241 NA
HETATM    5  C9  UNL     1      24.609   5.248  50.307  1.00  0.00     0.070 A 
HETATM    6  C10 UNL     1      23.264   4.842  50.286  1.00  0.00     0.048 A 
HETATM    7  C11 UNL     1      23.146   3.348  49.956  1.00  0.00     0.190 C 
HETATM    8  C12 UNL     1      23.390   2.718  51.325  1.00  0.00     0.255 C 
HETATM    9  N5  UNL     1      24.401   3.318  52.103  1.00  0.00     0.094 N 
HETATM   10  C19 UNL     1      25.056   2.543  53.096  1.00  0.00     0.297 C 
HETATM   11  C20 UNL     1      26.270   1.921  52.507  1.00  0.00     0.003 C 
HETATM   12  C21 UNL     1      26.786   2.362  51.352  1.00  0.00    -0.002 C 
HETATM   13  C22 UNL     1      26.526   3.386  50.361  1.00  0.00     0.002 C 
HETATM   14  C23 UNL     1      25.772   4.386  49.996  1.00  0.00     0.032 C 
HETATM   15  H23 UNL     1      24.144   4.248  52.499  1.00  0.00     0.316 HD
ENDROOT
BRANCH   8  16
HETATM   16  C13 UNL     1      23.159   1.263  51.337  1.00  0.00     0.068 C 
BRANCH  16  17
HETATM   17  C14 UNL     1      21.793   0.733  51.177  1.00  0.00     0.275 C 
BRANCH  17  18
HETATM   18  N4  UNL     1      21.398   0.012  52.378  1.00  0.00     0.092 N 
HETATM   19  C15 UNL     1      20.547   0.778  53.261  1.00  0.00     0.298 C 
HETATM   20  C16 UNL     1      20.865   0.272  54.674  1.00  0.00     0.198 C 
HETATM   21  O2  UNL     1      21.075  -1.085  54.691  1.00  0.00    -0.388 OA
HETATM   22  C17 UNL     1      22.351  -1.345  54.201  1.00  0.00     0.198 C 
HETATM   23  C18 UNL     1      22.629  -0.389  53.081  1.00  0.00     0.298 C 
ENDBRANCH  17  18
ENDBRANCH  16  17
ENDBRANCH   8  16
BRANCH   7  24
HETATM   24  O1  UNL     1      24.219   3.078  49.127  1.00  0.00    -0.388 OA
HETATM   25  H9  UNL     1      24.108   2.296  48.565  1.00  0.00     0.210 HD
ENDBRANCH   7  24
BRANCH   1  26
HETATM   26  N1  UNL     1      20.918   5.244  50.515  1.00  0.00    -0.310 N 
HETATM   27  C2  UNL     1      20.093   5.662  49.407  1.00  0.00     0.014 C 
HETATM   28  C1  UNL     1      20.661   6.547  48.339  1.00  0.00     0.068 C 
HETATM   29  C3  UNL     1      18.825   5.247  49.343  1.00  0.00     0.026 C 
HETATM   30  C4  UNL     1      18.262   4.388  50.372  1.00  0.00     0.015 C 
HETATM   31  C5  UNL     1      19.068   3.880  51.248  1.00  0.00    -0.009 C 
HETATM   32  C6  UNL     1      20.239   4.400  51.444  1.00  0.00     0.111 C 
ENDBRANCH   1  26
TORSDOF 5
ENDMDL
MODEL 8
REMARK VINA RESULT:      -7.5      6.379     10.457
REMARK  5 active torsions:
REMARK  status: ('A' for Active; 'I' for Inactive)
REMARK    1  A    between atoms: N1_7  and  C7_8 
REMARK    2  A    between atoms: C11_14  and  O1_15 
REMARK    3  A    between atoms: C12_16  and  C13_17 
REMARK    4  A    between atoms: C13_17  and  C14_18 
REMARK    5  A    between atoms: C14_18  and  N4_19 
ROOT
HETATM    1  C7  UNL     1      33.145   6.758  47.204  1.00  0.00     0.146 A 
HETATM    2  N2  UNL     1      34.161   7.383  46.604  1.00  0.00    -0.223 NA
HETATM    3  C8  UNL     1      34.310   8.707  46.659  1.00  0.00     0.236 A 
HETATM    4  N3  UNL     1      33.419   9.450  47.334  1.00  0.00    -0.241 NA
HETATM    5  C9  UNL     1      32.344   8.902  47.981  1.00  0.00     0.070 A 
HETATM    6  C10 UNL     1      32.234   7.504  47.891  1.00  0.00     0.048 A 
HETATM    7  C11 UNL     1      30.975   7.004  48.612  1.00  0.00     0.190 C 
HETATM    8  C12 UNL     1      29.909   7.229  47.541  1.00  0.00     0.255 C 
HETATM    9  N5  UNL     1      30.023   8.426  46.805  1.00  0.00     0.094 N 
HETATM   10  C19 UNL     1      28.863   8.976  46.201  1.00  0.00     0.297 C 
HETATM   11  C20 UNL     1      28.236   9.944  47.138  1.00  0.00     0.003 C 
HETATM   12  C21 UNL     1      28.911  10.430  48.188  1.00  0.00    -0.002 C 
HETATM   13  C22 UNL     1      30.227  10.321  48.786  1.00  0.00     0.002 C 
HETATM   14  C23 UNL     1      31.417   9.791  48.716  1.00  0.00     0.032 C 
HETATM   15  H23 UNL     1      30.812   8.436  46.122  1.00  0.00     0.316 HD
ENDROOT
BRANCH   8  16
HETATM   16  C13 UNL     1      28.599   6.663  47.909  1.00  0.00     0.068 C 
BRANCH  16  17
HETATM   17  C14 UNL     1      28.505   5.273  48.390  1.00  0.00     0.275 C 
BRANCH  17  18
HETATM   18  N4  UNL     1      27.109   4.903  48.566  1.00  0.00     0.092 N 
HETATM   19  C15 UNL     1      26.245   6.024  48.865  1.00  0.00     0.298 C 
HETATM   20  C16 UNL     1      25.122   5.450  49.738  1.00  0.00     0.198 C 
HETATM   21  O2  UNL     1      24.744   4.197  49.320  1.00  0.00    -0.388 OA
HETATM   22  C17 UNL     1      25.691   3.277  49.758  1.00  0.00     0.198 C 
HETATM   23  C18 UNL     1      27.046   3.910  49.652  1.00  0.00     0.298 C 
ENDBRANCH  17  18
ENDBRANCH  16  17
ENDBRANCH   8  16
BRANCH   7  24
HETATM   24  O1  UNL     1      30.779   7.895  49.651  1.00  0.00    -0.388 OA
HETATM   25  H9  UNL     1      31.593   8.265  50.023  1.00  0.00     0.210 HD
ENDBRANCH   7  24
BRANCH   1  26
HETATM   26  N1  UNL     1      32.989   5.354  47.166  1.00  0.00    -0.310 N 
HETATM   27  C2  UNL     1      33.905   4.542  47.931  1.00  0.00     0.014 C 
HETATM   28  C1  UNL     1      34.974   5.192  48.758  1.00  0.00     0.068 C 
HETATM   29  C3  UNL     1      33.786   3.213  47.897  1.00  0.00     0.026 C 
HETATM   30  C4  UNL     1      32.754   2.570  47.100  1.00  0.00     0.015 C 
HETATM   31  C5  UNL     1      31.837   3.318  46.576  1.00  0.00    -0.009 C 
HETATM   32  C6  UNL     1      32.027   4.593  46.438  1.00  0.00     0.111 C 
ENDBRANCH   1  26
TORSDOF 5
ENDMDL
MODEL 9
REMARK VINA RESULT:      -7.5      2.489      6.512
REMARK  5 active torsions:
REMARK  status: ('A' for Active; 'I' for Inactive)
REMARK    1  A    between atoms: N1_7  and  C7_8 
REMARK    2  A    between atoms: C11_14  and  O1_15 
REMARK    3  A    between atoms: C12_16  and  C13_17 
REMARK    4  A    between atoms: C13_17  and  C14_18 
REMARK    5  A    between atoms: C14_18  and  N4_19 
ROOT
HETATM    1  C7  UNL     1      25.516   2.882  51.082  1.00  0.00     0.146 A 
HETATM    2  N2  UNL     1      26.414   2.869  50.095  1.00  0.00    -0.223 NA
HETATM    3  C8  UNL     1      26.645   3.939  49.333  1.00  0.00     0.236 A 
HETATM    4  N3  UNL     1      25.962   5.073  49.553  1.00  0.00    -0.241 NA
HETATM    5  C9  UNL     1      25.021   5.184  50.541  1.00  0.00     0.070 A 
HETATM    6  C10 UNL     1      24.816   4.029  51.313  1.00  0.00     0.048 A 
HETATM    7  C11 UNL     1      23.713   4.252  52.356  1.00  0.00     0.190 C 
HETATM    8  C12 UNL     1      22.458   4.005  51.522  1.00  0.00     0.255 C 
HETATM    9  N5  UNL     1      22.480   4.528  50.213  1.00  0.00     0.094 N 
HETATM   10  C19 UNL     1      21.250   4.824  49.569  1.00  0.00     0.297 C 
HETATM   11  C20 UNL     1      20.892   6.243  49.827  1.00  0.00     0.003 C 
HETATM   12  C21 UNL     1      21.802   7.117  50.278  1.00  0.00    -0.002 C 
HETATM   13  C22 UNL     1      23.206   7.145  50.634  1.00  0.00     0.002 C 
HETATM   14  C23 UNL     1      24.323   6.477  50.727  1.00  0.00     0.032 C 
HETATM   15  H23 UNL     1      23.104   4.013  49.555  1.00  0.00     0.316 HD
ENDROOT
BRANCH   8  16
HETATM   16  C13 UNL     1      21.226   3.983  52.331  1.00  0.00     0.068 C 
BRANCH  16  17
HETATM   17  C14 UNL     1      20.615   2.696  52.707  1.00  0.00     0.275 C 
BRANCH  17  18
HETATM   18  N4  UNL     1      19.679   2.272  51.677  1.00  0.00     0.092 N 
HETATM   19  C15 UNL     1      18.507   3.115  51.576  1.00  0.00     0.298 C 
HETATM   20  C16 UNL     1      17.379   2.189  51.104  1.00  0.00     0.198 C 
HETATM   21  O2  UNL     1      17.827   1.273  50.184  1.00  0.00    -0.388 OA
HETATM   22  C17 UNL     1      18.510   0.264  50.855  1.00  0.00     0.198 C 
HETATM   23  C18 UNL     1      19.282   0.886  51.980  1.00  0.00     0.298 C 
ENDBRANCH  17  18
ENDBRANCH  16  17
ENDBRANCH   8  16
BRANCH   7  24
HETATM   24  O1  UNL     1      23.793   5.594  52.681  1.00  0.00    -0.388 OA
HETATM   25  H9  UNL     1      23.105   6.147  52.280  1.00  0.00     0.210 HD
ENDBRANCH   7  24
BRANCH   1  26
HETATM   26  N1  UNL     1      25.278   1.758  51.906  1.00  0.00    -0.310 N 
HETATM   27  C2  UNL     1      26.319   1.341  52.814  1.00  0.00     0.014 C 
HETATM   28  C1  UNL     1      27.605   2.108  52.886  1.00  0.00     0.068 C 
HETATM   29  C3  UNL     1      26.120   0.272  53.590  1.00  0.00     0.026 C 
HETATM   30  C4  UNL     1      24.878  -0.480  53.531  1.00  0.00     0.015 C 
HETATM   31  C5  UNL     1      23.897   0.020  52.850  1.00  0.00    -0.009 C 
HETATM   32  C6  UNL     1      24.114   0.934  51.957  1.00  0.00     0.111 C 
ENDBRANCH   1  26
TORSDOF 5
ENDMDL
