MODEL 1
REMARK VINA RESULT:      -8.0      0.000      0.000
REMARK  9 active torsions:
REMARK  status: ('A' for Active; 'I' for Inactive)
REMARK    1  A    between atoms: O1_2  and  C2_3 
REMARK    2  A    between atoms: C5_6  and  N1_7 
REMARK       I    between atoms: N1_7  and  C6_8 
REMARK       I    between atoms: C6_8  and  N2_10 
REMARK    3  A    between atoms: N2_10  and  C7_11 
REMARK    4  A    between atoms: C11_15  and  N3_16 
REMARK    5  A    between atoms: N3_16  and  C12_17 
REMARK    6  A    between atoms: C15_22  and  C16_23 
REMARK    7  A    between atoms: C16_23  and  C17_24 
REMARK    8  A    between atoms: C16_23  and  O4_26 
REMARK    9  A    between atoms: C17_24  and  O3_25 
ROOT
HETATM    1  C7  UNL     1      20.318   0.042  52.622  1.00  0.00     0.036 C 
HETATM    2  C8  UNL     1      19.960  -0.807  53.594  1.00  0.00     0.029 C 
HETATM    3  C9  UNL     1      18.776  -1.681  53.652  1.00  0.00     0.001 C 
HETATM    4  C10 UNL     1      17.645  -1.408  52.989  1.00  0.00     0.002 C 
HETATM    5  C11 UNL     1      17.242  -0.293  52.092  1.00  0.00     0.129 C 
HETATM    6  C20 UNL     1      18.304   0.151  51.179  1.00  0.00     0.004 C 
HETATM    7  C21 UNL     1      19.602   0.299  51.376  1.00  0.00     0.028 C 
ENDROOT
BRANCH   5   8
HETATM    8  N3  UNL     1      16.078  -0.769  51.336  1.00  0.00    -0.367 N 
HETATM    9  H12 UNL     1      16.100  -1.649  50.750  1.00  0.00     0.161 HD
BRANCH   8  10
HETATM   10  C12 UNL     1      14.888   0.033  51.430  1.00  0.00     0.107 A 
HETATM   11  N4  UNL     1      14.124   0.109  50.413  1.00  0.00    -0.229 NA
HETATM   12  C13 UNL     1      12.925   0.890  50.438  1.00  0.00     0.235 A 
HETATM   13  N5  UNL     1      12.626   1.520  51.515  1.00  0.00    -0.246 NA
HETATM   14  C14 UNL     1      13.400   1.501  52.686  1.00  0.00     0.041 A 
HETATM   15  C15 UNL     1      13.027   2.177  53.757  1.00  0.00     0.034 C 
HETATM   16  C19 UNL     1      14.641   0.726  52.739  1.00  0.00     0.137 A 
BRANCH  15  17
HETATM   17  C16 UNL     1      11.797   3.005  53.849  1.00  0.00     0.169 C 
BRANCH  17  18
HETATM   18  C17 UNL     1      12.169   4.367  54.418  1.00  0.00     0.200 C 
BRANCH  18  19
HETATM   19  O3  UNL     1      13.558   4.489  54.490  1.00  0.00    -0.398 OA
HETATM   20  H18 UNL     1      13.886   4.391  55.407  1.00  0.00     0.209 HD
ENDBRANCH  18  19
ENDBRANCH  17  18
BRANCH  17  21
HETATM   21  O4  UNL     1      10.903   2.361  54.686  1.00  0.00    -0.385 OA
HETATM   22  C18 UNL     1      11.557   1.875  55.803  1.00  0.00     0.202 C 
ENDBRANCH  17  21
ENDBRANCH  15  17
ENDBRANCH   8  10
ENDBRANCH   5   8
BRANCH   1  23
HETATM   23  N2  UNL     1      21.529   0.748  52.868  1.00  0.00    -0.309 N 
HETATM   24  C6  UNL     1      22.817   0.168  52.994  1.00  0.00     0.325 C 
HETATM   25  N1  UNL     1      23.801   1.144  53.235  1.00  0.00    -0.309 N 
HETATM   26  O2  UNL     1      23.037  -1.050  52.900  1.00  0.00    -0.247 OA
HETATM   27  H6  UNL     1      23.672   2.175  53.323  1.00  0.00     0.170 HD
HETATM   28  H7  UNL     1      21.276   1.758  52.936  1.00  0.00     0.170 HD
BRANCH  25  29
HETATM   29  C5  UNL     1      25.191   0.879  53.408  1.00  0.00     0.036 A 
HETATM   30  C4  UNL     1      25.967   1.161  52.290  1.00  0.00     0.032 A 
HETATM   31  C3  UNL     1      27.328   0.973  52.259  1.00  0.00     0.039 A 
HETATM   32  C2  UNL     1      27.928   0.477  53.417  1.00  0.00     0.068 A 
HETATM   33  C23 UNL     1      27.170   0.192  54.534  1.00  0.00     0.039 A 
HETATM   34  C22 UNL     1      25.805   0.396  54.522  1.00  0.00     0.032 A 
BRANCH  32  35
HETATM   35  O1  UNL     1      29.289   0.266  53.451  1.00  0.00    -0.356 OA
HETATM   36  C1  UNL     1      29.871  -0.974  53.746  1.00  0.00     0.210 C 
ENDBRANCH  32  35
ENDBRANCH  25  29
ENDBRANCH   1  23
TORSDOF 9
ENDMDL
MODEL 2
REMARK VINA RESULT:      -7.9      8.925     13.743
REMARK  9 active torsions:
REMARK  status: ('A' for Active; 'I' for Inactive)
REMARK    1  A    between atoms: O1_2  and  C2_3 
REMARK    2  A    between atoms: C5_6  and  N1_7 
REMARK       I    between atoms: N1_7  and  C6_8 
REMARK       I    between atoms: C6_8  and  N2_10 
REMARK    3  A    between atoms: N2_10  and  C7_11 
REMARK    4  A    between atoms: C11_15  and  N3_16 
REMARK    5  A    between atoms: N3_16  and  C12_17 
REMARK    6  A    between atoms: C15_22  and  C16_23 
REMARK    7  A    between atoms: C16_23  and  C17_24 
REMARK    8  A    between atoms: C16_23  and  O4_26 
REMARK    9  A    between atoms: C17_24  and  O3_25 
ROOT
HETATM    1  C7  UNL     1      27.368   7.749  48.977  1.00  0.00     0.036 C 
HETATM    2  C8  UNL     1      28.377   6.972  48.561  1.00  0.00     0.029 C 
HETATM    3  C9  UNL     1      28.344   5.543  48.211  1.00  0.00     0.001 C 
HETATM    4  C10 UNL     1      27.434   4.698  48.711  1.00  0.00     0.002 C 
HETATM    5  C11 UNL     1      26.302   4.876  49.658  1.00  0.00     0.129 C 
HETATM    6  C20 UNL     1      25.556   6.128  49.468  1.00  0.00     0.004 C 
HETATM    7  C21 UNL     1      25.980   7.347  49.180  1.00  0.00     0.028 C 
ENDROOT
BRANCH   5   8
HETATM    8  N3  UNL     1      25.419   3.719  49.472  1.00  0.00    -0.367 N 
HETATM    9  H12 UNL     1      24.840   3.578  48.600  1.00  0.00     0.161 HD
BRANCH   8  10
HETATM   10  C12 UNL     1      25.379   2.770  50.553  1.00  0.00     0.107 A 
HETATM   11  N4  UNL     1      24.243   2.369  50.969  1.00  0.00    -0.229 NA
HETATM   12  C13 UNL     1      24.131   1.428  52.041  1.00  0.00     0.235 A 
HETATM   13  N5  UNL     1      25.206   0.987  52.584  1.00  0.00    -0.246 NA
HETATM   14  C14 UNL     1      26.502   1.366  52.201  1.00  0.00     0.041 A 
HETATM   15  C15 UNL     1      27.563   0.869  52.810  1.00  0.00     0.034 C 
HETATM   16  C19 UNL     1      26.700   2.326  51.112  1.00  0.00     0.137 A 
BRANCH  15  17
HETATM   17  C16 UNL     1      27.516  -0.110  53.926  1.00  0.00     0.169 C 
BRANCH  17  18
HETATM   18  C17 UNL     1      28.605   0.245  54.929  1.00  0.00     0.200 C 
BRANCH  18  19
HETATM   19  O3  UNL     1      28.894   1.608  54.854  1.00  0.00    -0.398 OA
HETATM   20  H18 UNL     1      28.139   2.159  55.145  1.00  0.00     0.209 HD
ENDBRANCH  18  19
ENDBRANCH  17  18
BRANCH  17  21
HETATM   21  O4  UNL     1      27.735  -1.373  53.405  1.00  0.00    -0.385 OA
HETATM   22  C18 UNL     1      29.091  -1.622  53.306  1.00  0.00     0.202 C 
ENDBRANCH  17  21
ENDBRANCH  15  17
ENDBRANCH   8  10
ENDBRANCH   5   8
BRANCH   1  23
HETATM   23  N2  UNL     1      27.729   9.101  49.236  1.00  0.00    -0.309 N 
HETATM   24  C6  UNL     1      27.522  10.198  48.363  1.00  0.00     0.325 C 
HETATM   25  N1  UNL     1      27.994  11.399  48.921  1.00  0.00    -0.309 N 
HETATM   26  O2  UNL     1      26.989  10.098  47.246  1.00  0.00    -0.247 OA
HETATM   27  H6  UNL     1      28.447  11.539  49.850  1.00  0.00     0.170 HD
HETATM   28  H7  UNL     1      28.169   9.115  50.183  1.00  0.00     0.170 HD
BRANCH  25  29
HETATM   29  C5  UNL     1      27.931  12.676  48.290  1.00  0.00     0.036 A 
HETATM   30  C4  UNL     1      29.139  13.105  47.753  1.00  0.00     0.032 A 
HETATM   31  C3  UNL     1      29.283  14.309  47.106  1.00  0.00     0.039 A 
HETATM   32  C2  UNL     1      28.147  15.112  46.997  1.00  0.00     0.068 A 
HETATM   33  C23 UNL     1      26.941  14.699  47.525  1.00  0.00     0.039 A 
HETATM   34  C22 UNL     1      26.841  13.482  48.168  1.00  0.00     0.032 A 
BRANCH  32  35
HETATM   35  O1  UNL     1      28.225  16.331  46.359  1.00  0.00    -0.356 OA
HETATM   36  C1  UNL     1      27.140  17.210  46.240  1.00  0.00     0.210 C 
ENDBRANCH  32  35
ENDBRANCH  25  29
ENDBRANCH   1  23
TORSDOF 9
ENDMDL
MODEL 3
REMARK VINA RESULT:      -7.9      6.675     10.813
REMARK  9 active torsions:
REMARK  status: ('A' for Active; 'I' for Inactive)
REMARK    1  A    between atoms: O1_2  and  C2_3 
REMARK    2  A    between atoms: C5_6  and  N1_7 
REMARK       I    between atoms: N1_7  and  C6_8 
REMARK       I    between atoms: C6_8  and  N2_10 
REMARK    3  A    between atoms: N2_10  and  C7_11 
REMARK    4  A    between atoms: C11_15  and  N3_16 
REMARK    5  A    between atoms: N3_16  and  C12_17 
REMARK    6  A    between atoms: C15_22  and  C16_23 
REMARK    7  A    between atoms: C16_23  and  C17_24 
REMARK    8  A    between atoms: C16_23  and  O4_26 
REMARK    9  A    between atoms: C17_24  and  O3_25 
ROOT
HETATM    1  C7  UNL     1      21.992   3.809  50.007  1.00  0.00     0.036 C 
HETATM    2  C8  UNL     1      21.638   2.864  49.127  1.00  0.00     0.029 C 
HETATM    3  C9  UNL     1      21.287   1.459  49.388  1.00  0.00     0.001 C 
HETATM    4  C10 UNL     1      21.732   0.791  50.460  1.00  0.00     0.002 C 
HETATM    5  C11 UNL     1      22.610   1.174  51.597  1.00  0.00     0.129 C 
HETATM    6  C20 UNL     1      22.374   2.534  52.100  1.00  0.00     0.004 C 
HETATM    7  C21 UNL     1      22.112   3.657  51.454  1.00  0.00     0.028 C 
ENDROOT
BRANCH   5   8
HETATM    8  N3  UNL     1      22.372   0.185  52.655  1.00  0.00    -0.367 N 
HETATM    9  H12 UNL     1      21.431  -0.272  52.808  1.00  0.00     0.161 HD
BRANCH   8  10
HETATM   10  C12 UNL     1      23.499  -0.136  53.489  1.00  0.00     0.107 A 
HETATM   11  N4  UNL     1      23.316  -0.904  54.490  1.00  0.00    -0.229 NA
HETATM   12  C13 UNL     1      24.393  -1.263  55.361  1.00  0.00     0.235 A 
HETATM   13  N5  UNL     1      25.561  -0.794  55.116  1.00  0.00    -0.246 NA
HETATM   14  C14 UNL     1      25.866   0.058  54.043  1.00  0.00     0.041 A 
HETATM   15  C15 UNL     1      27.096   0.501  53.856  1.00  0.00     0.034 C 
HETATM   16  C19 UNL     1      24.818   0.471  53.107  1.00  0.00     0.137 A 
BRANCH  15  17
HETATM   17  C16 UNL     1      28.256   0.167  54.721  1.00  0.00     0.169 C 
BRANCH  17  18
HETATM   18  C17 UNL     1      29.270   1.299  54.631  1.00  0.00     0.200 C 
BRANCH  18  19
HETATM   19  O3  UNL     1      28.625   2.491  54.297  1.00  0.00    -0.398 OA
HETATM   20  H18 UNL     1      28.585   3.110  55.054  1.00  0.00     0.209 HD
ENDBRANCH  18  19
ENDBRANCH  17  18
BRANCH  17  21
HETATM   21  O4  UNL     1      28.812  -1.015  54.264  1.00  0.00    -0.385 OA
HETATM   22  C18 UNL     1      29.950  -0.754  53.525  1.00  0.00     0.202 C 
ENDBRANCH  17  21
ENDBRANCH  15  17
ENDBRANCH   8  10
ENDBRANCH   5   8
BRANCH   1  23
HETATM   23  N2  UNL     1      22.272   5.080  49.432  1.00  0.00    -0.309 N 
HETATM   24  C6  UNL     1      23.534   5.724  49.417  1.00  0.00     0.325 C 
HETATM   25  N1  UNL     1      23.471   6.971  48.769  1.00  0.00    -0.309 N 
HETATM   26  O2  UNL     1      24.562   5.238  49.916  1.00  0.00    -0.247 OA
HETATM   27  H6  UNL     1      22.639   7.425  48.334  1.00  0.00     0.170 HD
HETATM   28  H7  UNL     1      21.373   5.432  49.033  1.00  0.00     0.170 HD
BRANCH  25  29
HETATM   29  C5  UNL     1      24.572   7.859  48.590  1.00  0.00     0.036 A 
HETATM   30  C4  UNL     1      25.246   7.694  47.386  1.00  0.00     0.032 A 
HETATM   31  C3  UNL     1      26.334   8.453  47.030  1.00  0.00     0.039 A 
HETATM   32  C2  UNL     1      26.756   9.426  47.937  1.00  0.00     0.068 A 
HETATM   33  C23 UNL     1      26.097   9.601  49.136  1.00  0.00     0.039 A 
HETATM   34  C22 UNL     1      25.007   8.815  49.455  1.00  0.00     0.032 A 
BRANCH  32  35
HETATM   35  O1  UNL     1      27.841  10.221  47.639  1.00  0.00    -0.356 OA
HETATM   36  C1  UNL     1      29.091  10.083  48.256  1.00  0.00     0.210 C 
ENDBRANCH  32  35
ENDBRANCH  25  29
ENDBRANCH   1  23
TORSDOF 9
ENDMDL
MODEL 4
REMARK VINA RESULT:      -7.8      7.522     15.250
REMARK  9 active torsions:
REMARK  status: ('A' for Active; 'I' for Inactive)
REMARK    1  A    between atoms: O1_2  and  C2_3 
REMARK    2  A    between atoms: C5_6  and  N1_7 
REMARK       I    between atoms: N1_7  and  C6_8 
REMARK       I    between atoms: C6_8  and  N2_10 
REMARK    3  A    between atoms: N2_10  and  C7_11 
REMARK    4  A    between atoms: C11_15  and  N3_16 
REMARK    5  A    between atoms: N3_16  and  C12_17 
REMARK    6  A    between atoms: C15_22  and  C16_23 
REMARK    7  A    between atoms: C16_23  and  C17_24 
REMARK    8  A    between atoms: C16_23  and  O4_26 
REMARK    9  A    between atoms: C17_24  and  O3_25 
ROOT
HETATM    1  C7  UNL     1      26.205   5.874  49.267  1.00  0.00     0.036 C 
HETATM    2  C8  UNL     1      25.423   6.832  48.753  1.00  0.00     0.029 C 
HETATM    3  C9  UNL     1      25.662   7.665  47.563  1.00  0.00     0.001 C 
HETATM    4  C10 UNL     1      26.892   7.931  47.104  1.00  0.00     0.002 C 
HETATM    5  C11 UNL     1      28.250   7.539  47.564  1.00  0.00     0.129 C 
HETATM    6  C20 UNL     1      28.342   6.151  48.039  1.00  0.00     0.004 C 
HETATM    7  C21 UNL     1      27.497   5.429  48.754  1.00  0.00     0.028 C 
ENDROOT
BRANCH   5   8
HETATM    8  N3  UNL     1      29.151   7.755  46.427  1.00  0.00    -0.367 N 
HETATM    9  H12 UNL     1      28.803   8.027  45.467  1.00  0.00     0.161 HD
BRANCH   8  10
HETATM   10  C12 UNL     1      30.555   7.573  46.686  1.00  0.00     0.107 A 
HETATM   11  N4  UNL     1      31.264   8.601  46.944  1.00  0.00    -0.229 NA
HETATM   12  C13 UNL     1      32.666   8.492  47.209  1.00  0.00     0.235 A 
HETATM   13  N5  UNL     1      33.206   7.329  47.184  1.00  0.00    -0.246 NA
HETATM   14  C14 UNL     1      32.514   6.138  46.909  1.00  0.00     0.041 A 
HETATM   15  C15 UNL     1      33.140   4.976  46.900  1.00  0.00     0.034 C 
HETATM   16  C19 UNL     1      31.077   6.167  46.627  1.00  0.00     0.137 A 
BRANCH  15  17
HETATM   17  C16 UNL     1      34.590   4.794  47.167  1.00  0.00     0.169 C 
BRANCH  17  18
HETATM   18  C17 UNL     1      35.087   3.602  46.360  1.00  0.00     0.200 C 
BRANCH  18  19
HETATM   19  O3  UNL     1      35.801   4.046  45.247  1.00  0.00    -0.398 OA
HETATM   20  H18 UNL     1      36.704   3.670  45.218  1.00  0.00     0.209 HD
ENDBRANCH  18  19
ENDBRANCH  17  18
BRANCH  17  21
HETATM   21  O4  UNL     1      34.756   4.562  48.521  1.00  0.00    -0.385 OA
HETATM   22  C18 UNL     1      35.495   5.580  49.094  1.00  0.00     0.202 C 
ENDBRANCH  17  21
ENDBRANCH  15  17
ENDBRANCH   8  10
ENDBRANCH   5   8
BRANCH   1  23
HETATM   23  N2  UNL     1      25.686   5.249  50.436  1.00  0.00    -0.309 N 
HETATM   24  C6  UNL     1      25.029   3.994  50.484  1.00  0.00     0.325 C 
HETATM   25  N1  UNL     1      24.639   3.664  51.795  1.00  0.00    -0.309 N 
HETATM   26  O2  UNL     1      24.829   3.282  49.487  1.00  0.00    -0.247 OA
HETATM   27  H6  UNL     1      24.782   4.222  52.664  1.00  0.00     0.170 HD
HETATM   28  H7  UNL     1      25.885   5.894  51.232  1.00  0.00     0.170 HD
BRANCH  25  29
HETATM   29  C5  UNL     1      23.959   2.470  52.171  1.00  0.00     0.036 A 
HETATM   30  C4  UNL     1      24.795   1.458  52.628  1.00  0.00     0.032 A 
HETATM   31  C3  UNL     1      24.329   0.232  53.037  1.00  0.00     0.039 A 
HETATM   32  C2  UNL     1      22.951   0.024  52.980  1.00  0.00     0.068 A 
HETATM   33  C23 UNL     1      22.108   1.019  52.528  1.00  0.00     0.039 A 
HETATM   34  C22 UNL     1      22.619   2.237  52.127  1.00  0.00     0.032 A 
BRANCH  32  35
HETATM   35  O1  UNL     1      22.420  -1.184  53.376  1.00  0.00    -0.356 OA
HETATM   36  C1  UNL     1      21.589  -1.333  54.494  1.00  0.00     0.210 C 
ENDBRANCH  32  35
ENDBRANCH  25  29
ENDBRANCH   1  23
TORSDOF 9
ENDMDL
MODEL 5
REMARK VINA RESULT:      -7.8      6.493     14.603
REMARK  9 active torsions:
REMARK  status: ('A' for Active; 'I' for Inactive)
REMARK    1  A    between atoms: O1_2  and  C2_3 
REMARK    2  A    between atoms: C5_6  and  N1_7 
REMARK       I    between atoms: N1_7  and  C6_8 
REMARK       I    between atoms: C6_8  and  N2_10 
REMARK    3  A    between atoms: N2_10  and  C7_11 
REMARK    4  A    between atoms: C11_15  and  N3_16 
REMARK    5  A    between atoms: N3_16  and  C12_17 
REMARK    6  A    between atoms: C15_22  and  C16_23 
REMARK    7  A    between atoms: C16_23  and  C17_24 
REMARK    8  A    between atoms: C16_23  and  O4_26 
REMARK    9  A    between atoms: C17_24  and  O3_25 
ROOT
HETATM    1  C7  UNL     1      25.131   4.451  50.264  1.00  0.00     0.036 C 
HETATM    2  C8  UNL     1      24.427   5.469  49.753  1.00  0.00     0.029 C 
HETATM    3  C9  UNL     1      24.780   6.346  48.624  1.00  0.00     0.001 C 
HETATM    4  C10 UNL     1      26.047   6.575  48.256  1.00  0.00     0.002 C 
HETATM    5  C11 UNL     1      27.354   6.096  48.779  1.00  0.00     0.129 C 
HETATM    6  C20 UNL     1      27.352   4.684  49.185  1.00  0.00     0.004 C 
HETATM    7  C21 UNL     1      26.432   3.969  49.809  1.00  0.00     0.028 C 
ENDROOT
BRANCH   5   8
HETATM    8  N3  UNL     1      28.335   6.323  47.712  1.00  0.00    -0.367 N 
HETATM    9  H12 UNL     1      28.083   6.277  46.686  1.00  0.00     0.161 HD
BRANCH   8  10
HETATM   10  C12 UNL     1      29.678   6.613  48.135  1.00  0.00     0.107 A 
HETATM   11  N4  UNL     1      29.909   7.732  48.701  1.00  0.00    -0.229 NA
HETATM   12  C13 UNL     1      31.223   8.085  49.146  1.00  0.00     0.235 A 
HETATM   13  N5  UNL     1      32.177   7.248  48.965  1.00  0.00    -0.246 NA
HETATM   14  C14 UNL     1      32.027   5.993  48.353  1.00  0.00     0.041 A 
HETATM   15  C15 UNL     1      33.059   5.184  48.200  1.00  0.00     0.034 C 
HETATM   16  C19 UNL     1      30.714   5.559  47.870  1.00  0.00     0.137 A 
BRANCH  15  17
HETATM   17  C16 UNL     1      34.445   5.489  48.639  1.00  0.00     0.169 C 
BRANCH  17  18
HETATM   18  C17 UNL     1      34.944   6.703  47.866  1.00  0.00     0.200 C 
BRANCH  18  19
HETATM   19  O3  UNL     1      35.246   7.739  48.750  1.00  0.00    -0.398 OA
HETATM   20  H18 UNL     1      36.152   7.659  49.110  1.00  0.00     0.209 HD
ENDBRANCH  18  19
ENDBRANCH  17  18
BRANCH  17  21
HETATM   21  O4  UNL     1      35.238   4.388  48.371  1.00  0.00    -0.385 OA
HETATM   22  C18 UNL     1      34.471   3.361  47.852  1.00  0.00     0.202 C 
ENDBRANCH  17  21
ENDBRANCH  15  17
ENDBRANCH   8  10
ENDBRANCH   5   8
BRANCH   1  23
HETATM   23  N2  UNL     1      24.511   3.796  51.365  1.00  0.00    -0.309 N 
HETATM   24  C6  UNL     1      23.463   2.845  51.282  1.00  0.00     0.325 C 
HETATM   25  N1  UNL     1      23.076   2.389  52.555  1.00  0.00    -0.309 N 
HETATM   26  O2  UNL     1      22.957   2.468  50.212  1.00  0.00    -0.247 OA
HETATM   27  H6  UNL     1      23.465   2.670  53.481  1.00  0.00     0.170 HD
HETATM   28  H7  UNL     1      24.978   4.154  52.227  1.00  0.00     0.170 HD
BRANCH  25  29
HETATM   29  C5  UNL     1      22.050   1.431  52.806  1.00  0.00     0.036 A 
HETATM   30  C4  UNL     1      22.493   0.276  53.440  1.00  0.00     0.032 A 
HETATM   31  C3  UNL     1      21.655  -0.763  53.766  1.00  0.00     0.039 A 
HETATM   32  C2  UNL     1      20.308  -0.623  53.435  1.00  0.00     0.068 A 
HETATM   33  C23 UNL     1      19.854   0.517  52.804  1.00  0.00     0.039 A 
HETATM   34  C22 UNL     1      20.730   1.539  52.494  1.00  0.00     0.032 A 
BRANCH  32  35
HETATM   35  O1  UNL     1      19.416  -1.630  53.735  1.00  0.00    -0.356 OA
HETATM   36  C1  UNL     1      18.064  -1.599  53.368  1.00  0.00     0.210 C 
ENDBRANCH  32  35
ENDBRANCH  25  29
ENDBRANCH   1  23
TORSDOF 9
ENDMDL
MODEL 6
REMARK VINA RESULT:      -7.7      7.813     11.435
REMARK  9 active torsions:
REMARK  status: ('A' for Active; 'I' for Inactive)
REMARK    1  A    between atoms: O1_2  and  C2_3 
REMARK    2  A    between atoms: C5_6  and  N1_7 
REMARK       I    between atoms: N1_7  and  C6_8 
REMARK       I    between atoms: C6_8  and  N2_10 
REMARK    3  A    between atoms: N2_10  and  C7_11 
REMARK    4  A    between atoms: C11_15  and  N3_16 
REMARK    5  A    between atoms: N3_16  and  C12_17 
REMARK    6  A    between atoms: C15_22  and  C16_23 
REMARK    7  A    between atoms: C16_23  and  C17_24 
REMARK    8  A    between atoms: C16_23  and  O4_26 
REMARK    9  A    between atoms: C17_24  and  O3_25 
ROOT
HETATM    1  C7  UNL     1      24.564   6.313  49.399  1.00  0.00     0.036 C 
HETATM    2  C8  UNL     1      24.005   5.739  48.326  1.00  0.00     0.029 C 
HETATM    3  C9  UNL     1      23.072   4.601  48.282  1.00  0.00     0.001 C 
HETATM    4  C10 UNL     1      23.020   3.672  49.245  1.00  0.00     0.002 C 
HETATM    5  C11 UNL     1      23.776   3.485  50.511  1.00  0.00     0.129 C 
HETATM    6  C20 UNL     1      24.038   4.735  51.239  1.00  0.00     0.004 C 
HETATM    7  C21 UNL     1      24.370   5.935  50.796  1.00  0.00     0.028 C 
ENDROOT
BRANCH   5   8
HETATM    8  N3  UNL     1      22.983   2.567  51.336  1.00  0.00    -0.367 N 
HETATM    9  H12 UNL     1      21.931   2.638  51.418  1.00  0.00     0.161 HD
BRANCH   8  10
HETATM   10  C12 UNL     1      23.717   1.550  52.040  1.00  0.00     0.107 A 
HETATM   11  N4  UNL     1      23.100   0.840  52.901  1.00  0.00    -0.229 NA
HETATM   12  C13 UNL     1      23.770  -0.188  53.637  1.00  0.00     0.235 A 
HETATM   13  N5  UNL     1      25.018  -0.387  53.416  1.00  0.00    -0.246 NA
HETATM   14  C14 UNL     1      25.786   0.340  52.492  1.00  0.00     0.041 A 
HETATM   15  C15 UNL     1      27.068   0.078  52.320  1.00  0.00     0.034 C 
HETATM   16  C19 UNL     1      25.173   1.408  51.700  1.00  0.00     0.137 A 
BRANCH  15  17
HETATM   17  C16 UNL     1      27.822  -0.974  53.050  1.00  0.00     0.169 C 
BRANCH  17  18
HETATM   18  C17 UNL     1      27.282  -2.335  52.635  1.00  0.00     0.200 C 
BRANCH  18  19
HETATM   19  O3  UNL     1      28.243  -3.320  52.868  1.00  0.00    -0.398 OA
HETATM   20  H18 UNL     1      28.469  -3.393  53.818  1.00  0.00     0.209 HD
ENDBRANCH  18  19
ENDBRANCH  17  18
BRANCH  17  21
HETATM   21  O4  UNL     1      27.639  -0.776  54.406  1.00  0.00    -0.385 OA
HETATM   22  C18 UNL     1      28.573   0.123  54.889  1.00  0.00     0.202 C 
ENDBRANCH  17  21
ENDBRANCH  15  17
ENDBRANCH   8  10
ENDBRANCH   5   8
BRANCH   1  23
HETATM   23  N2  UNL     1      25.431   7.403  49.104  1.00  0.00    -0.309 N 
HETATM   24  C6  UNL     1      26.809   7.304  48.786  1.00  0.00     0.325 C 
HETATM   25  N1  UNL     1      27.376   8.569  48.547  1.00  0.00    -0.309 N 
HETATM   26  O2  UNL     1      27.428   6.229  48.727  1.00  0.00    -0.247 OA
HETATM   27  H6  UNL     1      26.905   9.498  48.582  1.00  0.00     0.170 HD
HETATM   28  H7  UNL     1      24.854   8.269  49.170  1.00  0.00     0.170 HD
BRANCH  25  29
HETATM   29  C5  UNL     1      28.740   8.803  48.205  1.00  0.00     0.036 A 
HETATM   30  C4  UNL     1      29.541   9.171  49.280  1.00  0.00     0.032 A 
HETATM   31  C3  UNL     1      30.882   9.441  49.153  1.00  0.00     0.039 A 
HETATM   32  C2  UNL     1      31.435   9.330  47.877  1.00  0.00     0.068 A 
HETATM   33  C23 UNL     1      30.653   8.967  46.801  1.00  0.00     0.039 A 
HETATM   34  C22 UNL     1      29.308   8.705  46.972  1.00  0.00     0.032 A 
BRANCH  32  35
HETATM   35  O1  UNL     1      32.775   9.587  47.683  1.00  0.00    -0.356 OA
HETATM   36  C1  UNL     1      33.741   8.583  47.542  1.00  0.00     0.210 C 
ENDBRANCH  32  35
ENDBRANCH  25  29
ENDBRANCH   1  23
TORSDOF 9
ENDMDL
MODEL 7
REMARK VINA RESULT:      -7.6      7.440     11.064
REMARK  9 active torsions:
REMARK  status: ('A' for Active; 'I' for Inactive)
REMARK    1  A    between atoms: O1_2  and  C2_3 
REMARK    2  A    between atoms: C5_6  and  N1_7 
REMARK       I    between atoms: N1_7  and  C6_8 
REMARK       I    between atoms: C6_8  and  N2_10 
REMARK    3  A    between atoms: N2_10  and  C7_11 
REMARK    4  A    between atoms: C11_15  and  N3_16 
REMARK    5  A    between atoms: N3_16  and  C12_17 
REMARK    6  A    between atoms: C15_22  and  C16_23 
REMARK    7  A    between atoms: C16_23  and  C17_24 
REMARK    8  A    between atoms: C16_23  and  O4_26 
REMARK    9  A    between atoms: C17_24  and  O3_25 
ROOT
HETATM    1  C7  UNL     1      23.536   5.072  49.172  1.00  0.00     0.036 C 
HETATM    2  C8  UNL     1      22.992   4.357  48.178  1.00  0.00     0.029 C 
HETATM    3  C9  UNL     1      22.220   3.107  48.271  1.00  0.00     0.001 C 
HETATM    4  C10 UNL     1      22.356   2.247  49.288  1.00  0.00     0.002 C 
HETATM    5  C11 UNL     1      23.211   2.249  50.505  1.00  0.00     0.129 C 
HETATM    6  C20 UNL     1      23.348   3.569  51.136  1.00  0.00     0.004 C 
HETATM    7  C21 UNL     1      23.485   4.769  50.599  1.00  0.00     0.028 C 
ENDROOT
BRANCH   5   8
HETATM    8  N3  UNL     1      22.604   1.293  51.439  1.00  0.00    -0.367 N 
HETATM    9  H12 UNL     1      21.574   1.054  51.421  1.00  0.00     0.161 HD
BRANCH   8  10
HETATM   10  C12 UNL     1      23.491   0.689  52.396  1.00  0.00     0.107 A 
HETATM   11  N4  UNL     1      22.996  -0.081  53.284  1.00  0.00    -0.229 NA
HETATM   12  C13 UNL     1      23.821  -0.713  54.267  1.00  0.00     0.235 A 
HETATM   13  N5  UNL     1      25.084  -0.491  54.241  1.00  0.00    -0.246 NA
HETATM   14  C14 UNL     1      25.726   0.340  53.308  1.00  0.00     0.041 A 
HETATM   15  C15 UNL     1      27.033   0.521  53.346  1.00  0.00     0.034 C 
HETATM   16  C19 UNL     1      24.950   1.023  52.271  1.00  0.00     0.137 A 
BRANCH  15  17
HETATM   17  C16 UNL     1      27.945  -0.105  54.338  1.00  0.00     0.169 C 
BRANCH  17  18
HETATM   18  C17 UNL     1      29.102   0.849  54.603  1.00  0.00     0.200 C 
BRANCH  18  19
HETATM   19  O3  UNL     1      28.689   2.167  54.396  1.00  0.00    -0.398 OA
HETATM   20  H18 UNL     1      29.439   2.753  54.168  1.00  0.00     0.209 HD
ENDBRANCH  18  19
ENDBRANCH  17  18
BRANCH  17  21
HETATM   21  O4  UNL     1      28.413  -1.293  53.807  1.00  0.00    -0.385 OA
HETATM   22  C18 UNL     1      29.777  -1.217  53.592  1.00  0.00     0.202 C 
ENDBRANCH  17  21
ENDBRANCH  15  17
ENDBRANCH   8  10
ENDBRANCH   5   8
BRANCH   1  23
HETATM   23  N2  UNL     1      24.227   6.242  48.750  1.00  0.00    -0.309 N 
HETATM   24  C6  UNL     1      25.634   6.409  48.716  1.00  0.00     0.325 C 
HETATM   25  N1  UNL     1      25.993   7.685  48.248  1.00  0.00    -0.309 N 
HETATM   26  O2  UNL     1      26.440   5.529  49.060  1.00  0.00    -0.247 OA
HETATM   27  H6  UNL     1      25.360   8.458  47.947  1.00  0.00     0.170 HD
HETATM   28  H7  UNL     1      23.497   6.937  48.477  1.00  0.00     0.170 HD
BRANCH  25  29
HETATM   29  C5  UNL     1      27.329   8.157  48.099  1.00  0.00     0.036 A 
HETATM   30  C4  UNL     1      27.836   8.794  49.226  1.00  0.00     0.032 A 
HETATM   31  C3  UNL     1      29.105   9.319  49.279  1.00  0.00     0.039 A 
HETATM   32  C2  UNL     1      29.896   9.190  48.137  1.00  0.00     0.068 A 
HETATM   33  C23 UNL     1      29.406   8.561  47.011  1.00  0.00     0.039 A 
HETATM   34  C22 UNL     1      28.124   8.048  47.000  1.00  0.00     0.032 A 
BRANCH  32  35
HETATM   35  O1  UNL     1      31.178   9.694  48.126  1.00  0.00    -0.356 OA
HETATM   36  C1  UNL     1      32.187   9.219  47.279  1.00  0.00     0.210 C 
ENDBRANCH  32  35
ENDBRANCH  25  29
ENDBRANCH   1  23
TORSDOF 9
ENDMDL
MODEL 8
REMARK VINA RESULT:      -7.6      5.458      8.275
REMARK  9 active torsions:
REMARK  status: ('A' for Active; 'I' for Inactive)
REMARK    1  A    between atoms: O1_2  and  C2_3 
REMARK    2  A    between atoms: C5_6  and  N1_7 
REMARK       I    between atoms: N1_7  and  C6_8 
REMARK       I    between atoms: C6_8  and  N2_10 
REMARK    3  A    between atoms: N2_10  and  C7_11 
REMARK    4  A    between atoms: C11_15  and  N3_16 
REMARK    5  A    between atoms: N3_16  and  C12_17 
REMARK    6  A    between atoms: C15_22  and  C16_23 
REMARK    7  A    between atoms: C16_23  and  C17_24 
REMARK    8  A    between atoms: C16_23  and  O4_26 
REMARK    9  A    between atoms: C17_24  and  O3_25 
ROOT
HETATM    1  C7  UNL     1      25.923   3.209  50.834  1.00  0.00     0.036 C 
HETATM    2  C8  UNL     1      26.953   2.564  51.396  1.00  0.00     0.029 C 
HETATM    3  C9  UNL     1      26.985   1.198  51.946  1.00  0.00     0.001 C 
HETATM    4  C10 UNL     1      25.890   0.580  52.407  1.00  0.00     0.002 C 
HETATM    5  C11 UNL     1      24.466   0.992  52.513  1.00  0.00     0.129 C 
HETATM    6  C20 UNL     1      23.979   1.759  51.358  1.00  0.00     0.004 C 
HETATM    7  C21 UNL     1      24.571   2.694  50.635  1.00  0.00     0.028 C 
ENDROOT
BRANCH   5   8
HETATM    8  N3  UNL     1      23.688  -0.242  52.675  1.00  0.00    -0.367 N 
HETATM    9  H12 UNL     1      24.106  -1.202  52.530  1.00  0.00     0.161 HD
BRANCH   8  10
HETATM   10  C12 UNL     1      22.308  -0.079  53.044  1.00  0.00     0.107 A 
HETATM   11  N4  UNL     1      22.024   0.092  54.276  1.00  0.00    -0.229 NA
HETATM   12  C13 UNL     1      20.671   0.259  54.712  1.00  0.00     0.235 A 
HETATM   13  N5  UNL     1      19.736   0.235  53.834  1.00  0.00    -0.246 NA
HETATM   14  C14 UNL     1      19.944   0.051  52.458  1.00  0.00     0.041 A 
HETATM   15  C15 UNL     1      18.929   0.036  51.614  1.00  0.00     0.034 C 
HETATM   16  C19 UNL     1      21.300  -0.127  51.933  1.00  0.00     0.137 A 
BRANCH  15  17
HETATM   17  C16 UNL     1      17.505   0.205  52.000  1.00  0.00     0.169 C 
BRANCH  17  18
HETATM   18  C17 UNL     1      16.970  -1.138  52.479  1.00  0.00     0.200 C 
BRANCH  18  19
HETATM   19  O3  UNL     1      17.195  -1.279  53.849  1.00  0.00    -0.398 OA
HETATM   20  H18 UNL     1      17.696  -2.094  54.055  1.00  0.00     0.209 HD
ENDBRANCH  18  19
ENDBRANCH  17  18
BRANCH  17  21
HETATM   21  O4  UNL     1      16.802   0.636  50.890  1.00  0.00    -0.385 OA
HETATM   22  C18 UNL     1      16.792  -0.347  49.918  1.00  0.00     0.202 C 
ENDBRANCH  17  21
ENDBRANCH  15  17
ENDBRANCH   8  10
ENDBRANCH   5   8
BRANCH   1  23
HETATM   23  N2  UNL     1      26.218   4.531  50.399  1.00  0.00    -0.309 N 
HETATM   24  C6  UNL     1      27.051   4.879  49.306  1.00  0.00     0.325 C 
HETATM   25  N1  UNL     1      27.134   6.273  49.142  1.00  0.00    -0.309 N 
HETATM   26  O2  UNL     1      27.630   4.047  48.588  1.00  0.00    -0.247 OA
HETATM   27  H6  UNL     1      26.671   7.013  49.713  1.00  0.00     0.170 HD
HETATM   28  H7  UNL     1      25.705   5.177  51.039  1.00  0.00     0.170 HD
BRANCH  25  29
HETATM   29  C5  UNL     1      27.892   6.936  48.134  1.00  0.00     0.036 A 
HETATM   30  C4  UNL     1      29.258   6.685  48.192  1.00  0.00     0.032 A 
HETATM   31  C3  UNL     1      30.155   7.233  47.307  1.00  0.00     0.039 A 
HETATM   32  C2  UNL     1      29.643   8.072  46.318  1.00  0.00     0.068 A 
HETATM   33  C23 UNL     1      28.289   8.331  46.248  1.00  0.00     0.039 A 
HETATM   34  C22 UNL     1      27.422   7.760  47.158  1.00  0.00     0.032 A 
BRANCH  32  35
HETATM   35  O1  UNL     1      30.490   8.652  45.399  1.00  0.00    -0.356 OA
HETATM   36  C1  UNL     1      31.341   7.918  44.562  1.00  0.00     0.210 C 
ENDBRANCH  32  35
ENDBRANCH  25  29
ENDBRANCH   1  23
TORSDOF 9
ENDMDL
MODEL 9
REMARK VINA RESULT:      -7.5      8.346     15.218
REMARK  9 active torsions:
REMARK  status: ('A' for Active; 'I' for Inactive)
REMARK    1  A    between atoms: O1_2  and  C2_3 
REMARK    2  A    between atoms: C5_6  and  N1_7 
REMARK       I    between atoms: N1_7  and  C6_8 
REMARK       I    between atoms: C6_8  and  N2_10 
REMARK    3  A    between atoms: N2_10  and  C7_11 
REMARK    4  A    between atoms: C11_15  and  N3_16 
REMARK    5  A    between atoms: N3_16  and  C12_17 
REMARK    6  A    between atoms: C15_22  and  C16_23 
REMARK    7  A    between atoms: C16_23  and  C17_24 
REMARK    8  A    between atoms: C16_23  and  O4_26 
REMARK    9  A    between atoms: C17_24  and  O3_25 
ROOT
HETATM    1  C7  UNL     1      25.591   5.945  49.302  1.00  0.00     0.036 C 
HETATM    2  C8  UNL     1      24.574   6.589  48.716  1.00  0.00     0.029 C 
HETATM    3  C9  UNL     1      24.587   7.373  47.469  1.00  0.00     0.001 C 
HETATM    4  C10 UNL     1      25.694   7.961  46.998  1.00  0.00     0.002 C 
HETATM    5  C11 UNL     1      27.095   8.024  47.494  1.00  0.00     0.129 C 
HETATM    6  C20 UNL     1      27.581   6.762  48.068  1.00  0.00     0.004 C 
HETATM    7  C21 UNL     1      26.970   5.871  48.830  1.00  0.00     0.028 C 
ENDROOT
BRANCH   5   8
HETATM    8  N3  UNL     1      27.922   8.421  46.349  1.00  0.00    -0.367 N 
HETATM    9  H12 UNL     1      27.580   8.360  45.350  1.00  0.00     0.161 HD
BRANCH   8  10
HETATM   10  C12 UNL     1      29.242   8.902  46.656  1.00  0.00     0.107 A 
HETATM   11  N4  UNL     1      29.360   9.893  47.450  1.00  0.00    -0.229 NA
HETATM   12  C13 UNL     1      30.643  10.422  47.797  1.00  0.00     0.235 A 
HETATM   13  N5  UNL     1      31.688   9.877  47.290  1.00  0.00    -0.246 NA
HETATM   14  C14 UNL     1      31.666   8.786  46.407  1.00  0.00     0.041 A 
HETATM   15  C15 UNL     1      32.786   8.279  45.925  1.00  0.00     0.034 C 
HETATM   16  C19 UNL     1      30.391   8.188  46.004  1.00  0.00     0.137 A 
BRANCH  15  17
HETATM   17  C16 UNL     1      34.147   8.780  46.245  1.00  0.00     0.169 C 
BRANCH  17  18
HETATM   18  C17 UNL     1      34.897   9.014  44.941  1.00  0.00     0.200 C 
BRANCH  18  19
HETATM   19  O3  UNL     1      36.201   9.433  45.210  1.00  0.00    -0.398 OA
HETATM   20  H18 UNL     1      36.744   9.480  44.397  1.00  0.00     0.209 HD
ENDBRANCH  18  19
ENDBRANCH  17  18
BRANCH  17  21
HETATM   21  O4  UNL     1      34.793   7.824  47.008  1.00  0.00    -0.385 OA
HETATM   22  C18 UNL     1      35.010   8.300  48.288  1.00  0.00     0.202 C 
ENDBRANCH  17  21
ENDBRANCH  15  17
ENDBRANCH   8  10
ENDBRANCH   5   8
BRANCH   1  23
HETATM   23  N2  UNL     1      25.249   5.275  50.510  1.00  0.00    -0.309 N 
HETATM   24  C6  UNL     1      24.844   3.921  50.622  1.00  0.00     0.325 C 
HETATM   25  N1  UNL     1      24.579   3.569  51.958  1.00  0.00    -0.309 N 
HETATM   26  O2  UNL     1      24.739   3.150  49.655  1.00  0.00    -0.247 OA
HETATM   27  H6  UNL     1      24.651   4.174  52.805  1.00  0.00     0.170 HD
HETATM   28  H7  UNL     1      25.357   5.972  51.279  1.00  0.00     0.170 HD
BRANCH  25  29
HETATM   29  C5  UNL     1      24.153   2.282  52.398  1.00  0.00     0.036 A 
HETATM   30  C4  UNL     1      22.773   2.119  52.423  1.00  0.00     0.032 A 
HETATM   31  C3  UNL     1      22.167   0.950  52.819  1.00  0.00     0.039 A 
HETATM   32  C2  UNL     1      23.001  -0.100  53.203  1.00  0.00     0.068 A 
HETATM   33  C23 UNL     1      24.372   0.048  53.184  1.00  0.00     0.039 A 
HETATM   34  C22 UNL     1      24.940   1.240  52.780  1.00  0.00     0.032 A 
BRANCH  32  35
HETATM   35  O1  UNL     1      22.456  -1.299  53.610  1.00  0.00    -0.356 OA
HETATM   36  C1  UNL     1      21.331  -1.394  54.439  1.00  0.00     0.210 C 
ENDBRANCH  32  35
ENDBRANCH  25  29
ENDBRANCH   1  23
TORSDOF 9
ENDMDL
