MODEL 1
REMARK VINA RESULT:      -7.3      0.000      0.000
REMARK  6 active torsions:
REMARK  status: ('A' for Active; 'I' for Inactive)
REMARK    1  A    between atoms: C2_2  and  O1_3 
REMARK    2  A    between atoms: O1_3  and  C3_4 
REMARK       I    between atoms: C3_4  and  N1_6 
REMARK    3  A    between atoms: N1_6  and  C4_7 
REMARK    4  A    between atoms: C10_13  and  O3_14 
REMARK    5  A    between atoms: C13_17  and  N2_18 
REMARK    6  A    between atoms: C14_19  and  N3_20 
ROOT
HETATM    1  C4  UNL     1      24.157  -0.121  53.732  1.00  0.00     0.045 A 
HETATM    2  C5  UNL     1      23.207  -0.966  54.202  1.00  0.00     0.033 A 
HETATM    3  C6  UNL     1      21.843  -0.798  54.098  1.00  0.00     0.039 A 
HETATM    4  C7  UNL     1      21.231   0.261  53.500  1.00  0.00     0.069 A 
HETATM    5  C8  UNL     1      22.274   1.026  53.087  1.00  0.00     0.048 A 
HETATM    6  C9  UNL     1      23.649   0.988  53.108  1.00  0.00     0.001 A 
HETATM    7  C10 UNL     1      24.017   2.186  52.282  1.00  0.00     0.163 C 
HETATM    8  C12 UNL     1      23.346   1.955  50.903  1.00  0.00     0.122 C 
HETATM    9  C13 UNL     1      21.955   1.825  50.649  1.00  0.00     0.048 C 
HETATM   10  C15 UNL     1      20.454   1.749  50.836  1.00  0.00     0.055 C 
HETATM   11  C16 UNL     1      19.911   1.917  52.219  1.00  0.00     0.178 C 
HETATM   12  O4  UNL     1      20.077   0.869  53.130  1.00  0.00    -0.351 OA
ENDROOT
BRANCH   1  13
HETATM   13  N1  UNL     1      25.534  -0.082  53.703  1.00  0.00    -0.302 N 
HETATM   14  C3  UNL     1      26.363  -0.335  54.805  1.00  0.00     0.365 C 
HETATM   15  O2  UNL     1      25.884  -0.612  55.925  1.00  0.00    -0.238 OA
HETATM   16  H6  UNL     1      26.135   0.127  52.880  1.00  0.00     0.171 HD
BRANCH  14  17
HETATM   17  O1  UNL     1      27.730  -0.314  54.809  1.00  0.00    -0.304 OA
BRANCH  17  18
HETATM   18  C2  UNL     1      28.454  -0.207  53.600  1.00  0.00     0.176 C 
HETATM   19  C1  UNL     1      29.681  -1.110  53.610  1.00  0.00     0.034 C 
ENDBRANCH  17  18
ENDBRANCH  14  17
ENDBRANCH   1  13
BRANCH   7  20
HETATM   20  O3  UNL     1      23.460   3.353  52.846  1.00  0.00    -0.385 OA
HETATM   21  C11 UNL     1      23.690   4.492  52.130  1.00  0.00     0.202 C 
ENDBRANCH   7  20
BRANCH   9  22
HETATM   22  N2  UNL     1      22.166   1.648  49.217  1.00  0.00    -0.279 NA
HETATM   23  C14 UNL     1      22.595   2.529  48.420  1.00  0.00     0.194 C 
BRANCH  23  24
HETATM   24  N3  UNL     1      22.634   1.894  47.140  1.00  0.00    -0.394 N 
HETATM   25  H16 UNL     1      21.935   1.399  46.519  1.00  0.00     0.156 HD
HETATM   26  H17 UNL     1      23.040   1.535  46.223  1.00  0.00     0.156 HD
ENDBRANCH  23  24
ENDBRANCH   9  22
TORSDOF 6
ENDMDL
MODEL 2
REMARK VINA RESULT:      -7.0      2.828      6.041
REMARK  6 active torsions:
REMARK  status: ('A' for Active; 'I' for Inactive)
REMARK    1  A    between atoms: C2_2  and  O1_3 
REMARK    2  A    between atoms: O1_3  and  C3_4 
REMARK       I    between atoms: C3_4  and  N1_6 
REMARK    3  A    between atoms: N1_6  and  C4_7 
REMARK    4  A    between atoms: C10_13  and  O3_14 
REMARK    5  A    between atoms: C13_17  and  N2_18 
REMARK    6  A    between atoms: C14_19  and  N3_20 
ROOT
HETATM    1  C4  UNL     1      20.813  -0.398  53.965  1.00  0.00     0.045 A 
HETATM    2  C5  UNL     1      21.573  -1.077  54.859  1.00  0.00     0.033 A 
HETATM    3  C6  UNL     1      22.944  -1.211  54.831  1.00  0.00     0.039 A 
HETATM    4  C7  UNL     1      23.759  -0.674  53.882  1.00  0.00     0.069 A 
HETATM    5  C8  UNL     1      22.891  -0.040  53.052  1.00  0.00     0.048 A 
HETATM    6  C9  UNL     1      21.538   0.184  52.957  1.00  0.00     0.001 A 
HETATM    7  C10 UNL     1      21.448   1.127  51.793  1.00  0.00     0.163 C 
HETATM    8  C12 UNL     1      22.319   2.348  52.186  1.00  0.00     0.122 C 
HETATM    9  C13 UNL     1      23.711   2.341  52.467  1.00  0.00     0.048 C 
HETATM   10  C15 UNL     1      25.140   1.885  52.672  1.00  0.00     0.055 C 
HETATM   11  C16 UNL     1      25.450   0.438  52.457  1.00  0.00     0.178 C 
HETATM   12  O4  UNL     1      25.018  -0.485  53.415  1.00  0.00    -0.351 OA
ENDROOT
BRANCH   1  13
HETATM   13  N1  UNL     1      19.475  -0.122  53.796  1.00  0.00    -0.302 N 
HETATM   14  C3  UNL     1      18.482  -1.085  53.569  1.00  0.00     0.365 C 
HETATM   15  O2  UNL     1      18.765  -2.299  53.492  1.00  0.00    -0.238 OA
HETATM   16  H6  UNL     1      19.023   0.816  53.823  1.00  0.00     0.171 HD
BRANCH  14  17
HETATM   17  O1  UNL     1      17.146  -0.846  53.407  1.00  0.00    -0.304 OA
BRANCH  17  18
HETATM   18  C2  UNL     1      16.508  -1.114  52.175  1.00  0.00     0.176 C 
HETATM   19  C1  UNL     1      17.150  -0.330  51.039  1.00  0.00     0.034 C 
ENDBRANCH  17  18
ENDBRANCH  14  17
ENDBRANCH   1  13
BRANCH   7  20
HETATM   20  O3  UNL     1      22.021   0.537  50.647  1.00  0.00    -0.385 OA
HETATM   21  C11 UNL     1      21.567   1.044  49.464  1.00  0.00     0.202 C 
ENDBRANCH   7  20
BRANCH   9  22
HETATM   22  N2  UNL     1      23.732   3.776  52.727  1.00  0.00    -0.279 NA
HETATM   23  C14 UNL     1      23.777   4.684  51.850  1.00  0.00     0.194 C 
BRANCH  23  24
HETATM   24  N3  UNL     1      23.779   5.914  52.579  1.00  0.00    -0.394 N 
HETATM   25  H16 UNL     1      24.515   6.522  53.036  1.00  0.00     0.156 HD
HETATM   26  H17 UNL     1      23.393   6.788  53.049  1.00  0.00     0.156 HD
ENDBRANCH  23  24
ENDBRANCH   9  22
TORSDOF 6
ENDMDL
MODEL 3
REMARK VINA RESULT:      -6.9      2.899      5.521
REMARK  6 active torsions:
REMARK  status: ('A' for Active; 'I' for Inactive)
REMARK    1  A    between atoms: C2_2  and  O1_3 
REMARK    2  A    between atoms: O1_3  and  C3_4 
REMARK       I    between atoms: C3_4  and  N1_6 
REMARK    3  A    between atoms: N1_6  and  C4_7 
REMARK    4  A    between atoms: C10_13  and  O3_14 
REMARK    5  A    between atoms: C13_17  and  N2_18 
REMARK    6  A    between atoms: C14_19  and  N3_20 
ROOT
HETATM    1  C4  UNL     1      23.607   0.976  52.969  1.00  0.00     0.045 A 
HETATM    2  C5  UNL     1      24.871   0.701  53.374  1.00  0.00     0.033 A 
HETATM    3  C6  UNL     1      26.033   1.063  52.727  1.00  0.00     0.039 A 
HETATM    4  C7  UNL     1      26.088   1.763  51.560  1.00  0.00     0.069 A 
HETATM    5  C8  UNL     1      24.779   1.965  51.259  1.00  0.00     0.048 A 
HETATM    6  C9  UNL     1      23.546   1.680  51.795  1.00  0.00     0.001 A 
HETATM    7  C10 UNL     1      22.617   2.415  50.873  1.00  0.00     0.163 C 
HETATM    8  C12 UNL     1      23.066   3.898  50.934  1.00  0.00     0.122 C 
HETATM    9  C13 UNL     1      24.335   4.415  50.564  1.00  0.00     0.048 C 
HETATM   10  C15 UNL     1      25.764   4.520  50.073  1.00  0.00     0.055 C 
HETATM   11  C16 UNL     1      26.445   3.266  49.626  1.00  0.00     0.178 C 
HETATM   12  O4  UNL     1      26.847   2.345  50.599  1.00  0.00    -0.351 OA
ENDROOT
BRANCH   1  13
HETATM   13  N1  UNL     1      22.334   0.739  53.438  1.00  0.00    -0.302 N 
HETATM   14  C3  UNL     1      21.726  -0.523  53.498  1.00  0.00     0.365 C 
HETATM   15  O2  UNL     1      22.323  -1.547  53.106  1.00  0.00    -0.238 OA
HETATM   16  H6  UNL     1      21.665   1.445  53.811  1.00  0.00     0.171 HD
BRANCH  14  17
HETATM   17  O1  UNL     1      20.470  -0.794  53.966  1.00  0.00    -0.304 OA
BRANCH  17  18
HETATM   18  C2  UNL     1      19.331  -0.510  53.180  1.00  0.00     0.176 C 
HETATM   19  C1  UNL     1      18.241  -1.552  53.393  1.00  0.00     0.034 C 
ENDBRANCH  17  18
ENDBRANCH  14  17
ENDBRANCH   1  13
BRANCH   7  20
HETATM   20  O3  UNL     1      22.792   1.963  49.549  1.00  0.00    -0.385 OA
HETATM   21  C11 UNL     1      21.661   1.996  48.786  1.00  0.00     0.202 C 
ENDBRANCH   7  20
BRANCH   9  22
HETATM   22  N2  UNL     1      23.951   5.781  50.902  1.00  0.00    -0.279 NA
HETATM   23  C14 UNL     1      24.712   6.789  50.873  1.00  0.00     0.194 C 
BRANCH  23  24
HETATM   24  N3  UNL     1      23.894   7.889  51.279  1.00  0.00    -0.394 N 
HETATM   25  H16 UNL     1      23.723   8.874  50.932  1.00  0.00     0.156 HD
HETATM   26  H17 UNL     1      23.191   8.442  51.858  1.00  0.00     0.156 HD
ENDBRANCH  23  24
ENDBRANCH   9  22
TORSDOF 6
ENDMDL
MODEL 4
REMARK VINA RESULT:      -6.3      2.668      4.166
REMARK  6 active torsions:
REMARK  status: ('A' for Active; 'I' for Inactive)
REMARK    1  A    between atoms: C2_2  and  O1_3 
REMARK    2  A    between atoms: O1_3  and  C3_4 
REMARK       I    between atoms: C3_4  and  N1_6 
REMARK    3  A    between atoms: N1_6  and  C4_7 
REMARK    4  A    between atoms: C10_13  and  O3_14 
REMARK    5  A    between atoms: C13_17  and  N2_18 
REMARK    6  A    between atoms: C14_19  and  N3_20 
ROOT
HETATM    1  C4  UNL     1      23.650   2.885  51.426  1.00  0.00     0.045 A 
HETATM    2  C5  UNL     1      23.392   4.038  52.091  1.00  0.00     0.033 A 
HETATM    3  C6  UNL     1      22.165   4.653  52.212  1.00  0.00     0.039 A 
HETATM    4  C7  UNL     1      21.004   4.191  51.670  1.00  0.00     0.069 A 
HETATM    5  C8  UNL     1      21.393   3.056  51.032  1.00  0.00     0.048 A 
HETATM    6  C9  UNL     1      22.544   2.331  50.836  1.00  0.00     0.001 A 
HETATM    7  C10 UNL     1      22.039   1.110  50.123  1.00  0.00     0.163 C 
HETATM    8  C12 UNL     1      20.988   0.485  51.077  1.00  0.00     0.122 C 
HETATM    9  C13 UNL     1      19.788   1.093  51.532  1.00  0.00     0.048 C 
HETATM   10  C15 UNL     1      18.664   2.085  51.750  1.00  0.00     0.055 C 
HETATM   11  C16 UNL     1      18.745   3.400  51.042  1.00  0.00     0.178 C 
HETATM   12  O4  UNL     1      19.668   4.345  51.499  1.00  0.00    -0.351 OA
ENDROOT
BRANCH   1  13
HETATM   13  N1  UNL     1      24.753   2.096  51.185  1.00  0.00    -0.302 N 
HETATM   14  C3  UNL     1      25.236   1.111  52.058  1.00  0.00     0.365 C 
HETATM   15  O2  UNL     1      24.679   0.888  53.154  1.00  0.00    -0.238 OA
HETATM   16  H6  UNL     1      25.359   2.113  50.340  1.00  0.00     0.171 HD
BRANCH  14  17
HETATM   17  O1  UNL     1      26.319   0.304  51.846  1.00  0.00    -0.304 OA
BRANCH  17  18
HETATM   18  C2  UNL     1      26.897  -0.424  52.910  1.00  0.00     0.176 C 
HETATM   19  C1  UNL     1      26.941  -1.915  52.599  1.00  0.00     0.034 C 
ENDBRANCH  17  18
ENDBRANCH  14  17
ENDBRANCH   1  13
BRANCH   7  20
HETATM   20  O3  UNL     1      21.377   1.483  48.935  1.00  0.00    -0.385 OA
HETATM   21  C11 UNL     1      22.210   1.785  47.896  1.00  0.00     0.202 C 
ENDBRANCH   7  20
BRANCH   9  22
HETATM   22  N2  UNL     1      19.418  -0.075  52.323  1.00  0.00    -0.279 NA
HETATM   23  C14 UNL     1      19.862  -0.357  53.472  1.00  0.00     0.194 C 
BRANCH  23  24
HETATM   24  N3  UNL     1      19.215  -1.579  53.836  1.00  0.00    -0.394 N 
HETATM   25  H16 UNL     1      19.349  -2.311  54.589  1.00  0.00     0.156 HD
HETATM   26  H17 UNL     1      18.517  -2.383  53.794  1.00  0.00     0.156 HD
ENDBRANCH  23  24
ENDBRANCH   9  22
TORSDOF 6
ENDMDL
MODEL 5
REMARK VINA RESULT:      -6.0      2.975      6.617
REMARK  6 active torsions:
REMARK  status: ('A' for Active; 'I' for Inactive)
REMARK    1  A    between atoms: C2_2  and  O1_3 
REMARK    2  A    between atoms: O1_3  and  C3_4 
REMARK       I    between atoms: C3_4  and  N1_6 
REMARK    3  A    between atoms: N1_6  and  C4_7 
REMARK    4  A    between atoms: C10_13  and  O3_14 
REMARK    5  A    between atoms: C13_17  and  N2_18 
REMARK    6  A    between atoms: C14_19  and  N3_20 
ROOT
HETATM    1  C4  UNL     1      19.818   1.233  51.475  1.00  0.00     0.045 A 
HETATM    2  C5  UNL     1      19.903   0.386  52.530  1.00  0.00     0.033 A 
HETATM    3  C6  UNL     1      21.062  -0.102  53.094  1.00  0.00     0.039 A 
HETATM    4  C7  UNL     1      22.321   0.197  52.670  1.00  0.00     0.069 A 
HETATM    5  C8  UNL     1      22.103   1.031  51.620  1.00  0.00     0.048 A 
HETATM    6  C9  UNL     1      21.036   1.599  50.964  1.00  0.00     0.001 A 
HETATM    7  C10 UNL     1      21.711   2.525  49.994  1.00  0.00     0.163 C 
HETATM    8  C12 UNL     1      22.568   3.480  50.867  1.00  0.00     0.122 C 
HETATM    9  C13 UNL     1      23.633   3.111  51.730  1.00  0.00     0.048 C 
HETATM   10  C15 UNL     1      24.660   2.298  52.492  1.00  0.00     0.055 C 
HETATM   11  C16 UNL     1      24.683   0.819  52.273  1.00  0.00     0.178 C 
HETATM   12  O4  UNL     1      23.659   0.048  52.831  1.00  0.00    -0.351 OA
ENDROOT
BRANCH   1  13
HETATM   13  N1  UNL     1      18.811   1.849  50.766  1.00  0.00    -0.302 N 
HETATM   14  C3  UNL     1      18.195   3.053  51.135  1.00  0.00     0.365 C 
HETATM   15  O2  UNL     1      18.528   3.658  52.175  1.00  0.00    -0.238 OA
HETATM   16  H6  UNL     1      18.385   1.520  49.875  1.00  0.00     0.171 HD
BRANCH  14  17
HETATM   17  O1  UNL     1      17.201   3.695  50.450  1.00  0.00    -0.304 OA
BRANCH  17  18
HETATM   18  C2  UNL     1      17.313   3.923  49.060  1.00  0.00     0.176 C 
HETATM   19  C1  UNL     1      18.209   5.119  48.767  1.00  0.00     0.034 C 
ENDBRANCH  17  18
ENDBRANCH  14  17
ENDBRANCH   1  13
BRANCH   7  20
HETATM   20  O3  UNL     1      22.586   1.799  49.160  1.00  0.00    -0.385 OA
HETATM   21  C11 UNL     1      22.289   1.871  47.830  1.00  0.00     0.202 C 
ENDBRANCH   7  20
BRANCH   9  22
HETATM   22  N2  UNL     1      23.871   4.492  52.134  1.00  0.00    -0.279 NA
HETATM   23  C14 UNL     1      23.837   5.499  51.372  1.00  0.00     0.194 C 
BRANCH  23  24
HETATM   24  N3  UNL     1      24.129   6.618  52.213  1.00  0.00    -0.394 N 
HETATM   25  H16 UNL     1      24.884   6.863  52.912  1.00  0.00     0.156 HD
HETATM   26  H17 UNL     1      24.015   7.577  52.663  1.00  0.00     0.156 HD
ENDBRANCH  23  24
ENDBRANCH   9  22
TORSDOF 6
ENDMDL
MODEL 6
REMARK VINA RESULT:      -6.0      2.872      6.370
REMARK  6 active torsions:
REMARK  status: ('A' for Active; 'I' for Inactive)
REMARK    1  A    between atoms: C2_2  and  O1_3 
REMARK    2  A    between atoms: O1_3  and  C3_4 
REMARK       I    between atoms: C3_4  and  N1_6 
REMARK    3  A    between atoms: N1_6  and  C4_7 
REMARK    4  A    between atoms: C10_13  and  O3_14 
REMARK    5  A    between atoms: C13_17  and  N2_18 
REMARK    6  A    between atoms: C14_19  and  N3_20 
ROOT
HETATM    1  C4  UNL     1      21.470   1.125  49.954  1.00  0.00     0.045 A 
HETATM    2  C5  UNL     1      21.632   1.387  48.634  1.00  0.00     0.033 A 
HETATM    3  C6  UNL     1      22.540   2.263  48.082  1.00  0.00     0.039 A 
HETATM    4  C7  UNL     1      23.428   3.014  48.790  1.00  0.00     0.069 A 
HETATM    5  C8  UNL     1      23.162   2.674  50.078  1.00  0.00     0.048 A 
HETATM    6  C9  UNL     1      22.318   1.834  50.765  1.00  0.00     0.001 A 
HETATM    7  C10 UNL     1      22.804   1.974  52.178  1.00  0.00     0.163 C 
HETATM    8  C12 UNL     1      24.299   1.563  52.140  1.00  0.00     0.122 C 
HETATM    9  C13 UNL     1      25.332   2.193  51.397  1.00  0.00     0.048 C 
HETATM   10  C15 UNL     1      26.082   3.137  50.481  1.00  0.00     0.055 C 
HETATM   11  C16 UNL     1      25.310   4.240  49.829  1.00  0.00     0.178 C 
HETATM   12  O4  UNL     1      24.441   3.915  48.783  1.00  0.00    -0.351 OA
ENDROOT
BRANCH   1  13
HETATM   13  N1  UNL     1      20.667   0.309  50.720  1.00  0.00    -0.302 N 
HETATM   14  C3  UNL     1      19.349   0.607  51.093  1.00  0.00     0.365 C 
HETATM   15  O2  UNL     1      18.806   1.677  50.748  1.00  0.00    -0.238 OA
HETATM   16  H6  UNL     1      20.917  -0.623  51.111  1.00  0.00     0.171 HD
BRANCH  14  17
HETATM   17  O1  UNL     1      18.522  -0.183  51.843  1.00  0.00    -0.304 OA
BRANCH  17  18
HETATM   18  C2  UNL     1      18.953  -0.707  53.083  1.00  0.00     0.176 C 
HETATM   19  C1  UNL     1      18.114  -1.909  53.495  1.00  0.00     0.034 C 
ENDBRANCH  17  18
ENDBRANCH  14  17
ENDBRANCH   1  13
BRANCH   7  20
HETATM   20  O3  UNL     1      22.735   3.324  52.582  1.00  0.00    -0.385 OA
HETATM   21  C11 UNL     1      21.501   3.891  52.449  1.00  0.00     0.202 C 
ENDBRANCH   7  20
BRANCH   9  22
HETATM   22  N2  UNL     1      26.341   1.259  51.885  1.00  0.00    -0.279 NA
HETATM   23  C14 UNL     1      26.680   1.104  53.092  1.00  0.00     0.194 C 
BRANCH  23  24
HETATM   24  N3  UNL     1      27.690   0.092  53.073  1.00  0.00    -0.394 N 
HETATM   25  H16 UNL     1      27.940  -0.715  52.436  1.00  0.00     0.156 HD
HETATM   26  H17 UNL     1      28.538  -0.469  53.390  1.00  0.00     0.156 HD
ENDBRANCH  23  24
ENDBRANCH   9  22
TORSDOF 6
ENDMDL
MODEL 7
REMARK VINA RESULT:      -5.9      3.484      6.251
REMARK  6 active torsions:
REMARK  status: ('A' for Active; 'I' for Inactive)
REMARK    1  A    between atoms: C2_2  and  O1_3 
REMARK    2  A    between atoms: O1_3  and  C3_4 
REMARK       I    between atoms: C3_4  and  N1_6 
REMARK    3  A    between atoms: N1_6  and  C4_7 
REMARK    4  A    between atoms: C10_13  and  O3_14 
REMARK    5  A    between atoms: C13_17  and  N2_18 
REMARK    6  A    between atoms: C14_19  and  N3_20 
ROOT
HETATM    1  C4  UNL     1      22.812   2.578  49.218  1.00  0.00     0.045 A 
HETATM    2  C5  UNL     1      22.306   2.563  47.961  1.00  0.00     0.033 A 
HETATM    3  C6  UNL     1      22.171   3.647  47.122  1.00  0.00     0.039 A 
HETATM    4  C7  UNL     1      22.530   4.923  47.435  1.00  0.00     0.069 A 
HETATM    5  C8  UNL     1      23.005   4.808  48.702  1.00  0.00     0.048 A 
HETATM    6  C9  UNL     1      23.206   3.822  49.639  1.00  0.00     0.001 A 
HETATM    7  C10 UNL     1      23.925   4.557  50.732  1.00  0.00     0.163 C 
HETATM    8  C12 UNL     1      25.199   5.139  50.065  1.00  0.00     0.122 C 
HETATM    9  C13 UNL     1      25.244   6.067  48.992  1.00  0.00     0.048 C 
HETATM   10  C15 UNL     1      24.834   7.022  47.890  1.00  0.00     0.055 C 
HETATM   11  C16 UNL     1      23.372   7.240  47.661  1.00  0.00     0.178 C 
HETATM   12  O4  UNL     1      22.635   6.219  47.052  1.00  0.00    -0.351 OA
ENDROOT
BRANCH   1  13
HETATM   13  N1  UNL     1      23.052   1.653  50.211  1.00  0.00    -0.302 N 
HETATM   14  C3  UNL     1      22.093   1.195  51.125  1.00  0.00     0.365 C 
HETATM   15  O2  UNL     1      20.919   1.622  51.099  1.00  0.00    -0.238 OA
HETATM   16  H6  UNL     1      23.953   1.171  50.409  1.00  0.00     0.171 HD
BRANCH  14  17
HETATM   17  O1  UNL     1      22.294   0.272  52.113  1.00  0.00    -0.304 OA
BRANCH  17  18
HETATM   18  C2  UNL     1      22.189   0.638  53.475  1.00  0.00     0.176 C 
HETATM   19  C1  UNL     1      21.387  -0.390  54.261  1.00  0.00     0.034 C 
ENDBRANCH  17  18
ENDBRANCH  14  17
ENDBRANCH   1  13
BRANCH   7  20
HETATM   20  O3  UNL     1      23.141   5.637  51.186  1.00  0.00    -0.385 OA
HETATM   21  C11 UNL     1      22.188   5.298  52.103  1.00  0.00     0.202 C 
ENDBRANCH   7  20
BRANCH   9  22
HETATM   22  N2  UNL     1      26.703   6.082  48.981  1.00  0.00    -0.279 NA
HETATM   23  C14 UNL     1      27.447   5.127  48.623  1.00  0.00     0.194 C 
BRANCH  23  24
HETATM   24  N3  UNL     1      28.783   5.610  48.782  1.00  0.00    -0.394 N 
HETATM   25  H16 UNL     1      29.699   5.205  49.125  1.00  0.00     0.156 HD
HETATM   26  H17 UNL     1      29.600   6.293  48.758  1.00  0.00     0.156 HD
ENDBRANCH  23  24
ENDBRANCH   9  22
TORSDOF 6
ENDMDL
MODEL 8
REMARK VINA RESULT:      -5.9      7.719      9.352
REMARK  6 active torsions:
REMARK  status: ('A' for Active; 'I' for Inactive)
REMARK    1  A    between atoms: C2_2  and  O1_3 
REMARK    2  A    between atoms: O1_3  and  C3_4 
REMARK       I    between atoms: C3_4  and  N1_6 
REMARK    3  A    between atoms: N1_6  and  C4_7 
REMARK    4  A    between atoms: C10_13  and  O3_14 
REMARK    5  A    between atoms: C13_17  and  N2_18 
REMARK    6  A    between atoms: C14_19  and  N3_20 
ROOT
HETATM    1  C4  UNL     1      29.027   5.537  48.174  1.00  0.00     0.045 A 
HETATM    2  C5  UNL     1      27.987   4.766  48.578  1.00  0.00     0.033 A 
HETATM    3  C6  UNL     1      26.738   5.212  48.953  1.00  0.00     0.039 A 
HETATM    4  C7  UNL     1      26.352   6.517  48.979  1.00  0.00     0.069 A 
HETATM    5  C8  UNL     1      27.467   7.177  48.570  1.00  0.00     0.048 A 
HETATM    6  C9  UNL     1      28.747   6.878  48.164  1.00  0.00     0.001 A 
HETATM    7  C10 UNL     1      29.272   8.220  47.743  1.00  0.00     0.163 C 
HETATM    8  C12 UNL     1      28.300   8.713  46.640  1.00  0.00     0.122 C 
HETATM    9  C13 UNL     1      26.910   8.961  46.785  1.00  0.00     0.048 C 
HETATM   10  C15 UNL     1      25.520   9.095  47.373  1.00  0.00     0.055 C 
HETATM   11  C16 UNL     1      25.339   8.770  48.821  1.00  0.00     0.178 C 
HETATM   12  O4  UNL     1      25.374   7.427  49.210  1.00  0.00    -0.351 OA
ENDROOT
BRANCH   1  13
HETATM   13  N1  UNL     1      30.321   5.328  47.751  1.00  0.00    -0.302 N 
HETATM   14  C3  UNL     1      31.442   5.301  48.592  1.00  0.00     0.365 C 
HETATM   15  O2  UNL     1      31.331   5.483  49.823  1.00  0.00    -0.238 OA
HETATM   16  H6  UNL     1      30.638   5.155  46.775  1.00  0.00     0.171 HD
BRANCH  14  17
HETATM   17  O1  UNL     1      32.736   5.087  48.207  1.00  0.00    -0.304 OA
BRANCH  17  18
HETATM   18  C2  UNL     1      33.031   4.288  47.079  1.00  0.00     0.176 C 
HETATM   19  C1  UNL     1      33.123   2.815  47.454  1.00  0.00     0.034 C 
ENDBRANCH  17  18
ENDBRANCH  14  17
ENDBRANCH   1  13
BRANCH   7  20
HETATM   20  O3  UNL     1      29.201   9.127  48.820  1.00  0.00    -0.385 OA
HETATM   21  C11 UNL     1      29.860  10.305  48.612  1.00  0.00     0.202 C 
ENDBRANCH   7  20
BRANCH   9  22
HETATM   22  N2  UNL     1      26.768   9.360  45.389  1.00  0.00    -0.279 NA
HETATM   23  C14 UNL     1      27.307   8.786  44.400  1.00  0.00     0.194 C 
BRANCH  23  24
HETATM   24  N3  UNL     1      26.880   9.529  43.255  1.00  0.00    -0.394 N 
HETATM   25  H16 UNL     1      27.074   9.495  42.216  1.00  0.00     0.156 HD
HETATM   26  H17 UNL     1      26.363  10.268  42.689  1.00  0.00     0.156 HD
ENDBRANCH  23  24
ENDBRANCH   9  22
TORSDOF 6
ENDMDL
MODEL 9
REMARK VINA RESULT:      -5.9     18.257     21.759
REMARK  6 active torsions:
REMARK  status: ('A' for Active; 'I' for Inactive)
REMARK    1  A    between atoms: C2_2  and  O1_3 
REMARK    2  A    between atoms: O1_3  and  C3_4 
REMARK       I    between atoms: C3_4  and  N1_6 
REMARK    3  A    between atoms: N1_6  and  C4_7 
REMARK    4  A    between atoms: C10_13  and  O3_14 
REMARK    5  A    between atoms: C13_17  and  N2_18 
REMARK    6  A    between atoms: C14_19  and  N3_20 
ROOT
HETATM    1  C4  UNL     1      45.181   9.599  55.102  1.00  0.00     0.045 A 
HETATM    2  C5  UNL     1      45.318  10.798  54.484  1.00  0.00     0.033 A 
HETATM    3  C6  UNL     1      44.927  11.103  53.199  1.00  0.00     0.039 A 
HETATM    4  C7  UNL     1      44.333  10.232  52.337  1.00  0.00     0.069 A 
HETATM    5  C8  UNL     1      44.262   9.084  53.060  1.00  0.00     0.048 A 
HETATM    6  C9  UNL     1      44.592   8.640  54.319  1.00  0.00     0.001 A 
HETATM    7  C10 UNL     1      44.019   7.253  54.332  1.00  0.00     0.163 C 
HETATM    8  C12 UNL     1      42.506   7.432  54.043  1.00  0.00     0.122 C 
HETATM    9  C13 UNL     1      41.927   7.991  52.873  1.00  0.00     0.048 C 
HETATM   10  C15 UNL     1      41.756   8.623  51.507  1.00  0.00     0.055 C 
HETATM   11  C16 UNL     1      42.988   8.930  50.718  1.00  0.00     0.178 C 
HETATM   12  O4  UNL     1      43.784  10.008  51.118  1.00  0.00    -0.351 OA
ENDROOT
BRANCH   1  13
HETATM   13  N1  UNL     1      45.472   9.074  56.341  1.00  0.00    -0.302 N 
HETATM   14  C3  UNL     1      44.547   8.923  57.383  1.00  0.00     0.365 C 
HETATM   15  O2  UNL     1      43.357   9.280  57.248  1.00  0.00    -0.238 OA
HETATM   16  H6  UNL     1      46.395   8.716  56.666  1.00  0.00     0.171 HD
BRANCH  14  17
HETATM   17  O1  UNL     1      44.800   8.398  58.620  1.00  0.00    -0.304 OA
BRANCH  17  18
HETATM   18  C2  UNL     1      45.445   7.148  58.754  1.00  0.00     0.176 C 
HETATM   19  C1  UNL     1      44.733   6.069  57.949  1.00  0.00     0.034 C 
ENDBRANCH  17  18
ENDBRANCH  14  17
ENDBRANCH   1  13
BRANCH   7  20
HETATM   20  O3  UNL     1      44.574   6.490  53.284  1.00  0.00    -0.385 OA
HETATM   21  C11 UNL     1      45.621   5.697  53.655  1.00  0.00     0.202 C 
ENDBRANCH   7  20
BRANCH   9  22
HETATM   22  N2  UNL     1      40.570   7.800  53.373  1.00  0.00    -0.279 NA
HETATM   23  C14 UNL     1      39.543   7.609  52.664  1.00  0.00     0.194 C 
BRANCH  23  24
HETATM   24  N3  UNL     1      38.463   7.479  53.591  1.00  0.00    -0.394 N 
HETATM   25  H16 UNL     1      37.407   7.467  53.527  1.00  0.00     0.156 HD
HETATM   26  H17 UNL     1      37.969   7.360  54.527  1.00  0.00     0.156 HD
ENDBRANCH  23  24
ENDBRANCH   9  22
TORSDOF 6
ENDMDL
