MODEL 1
REMARK VINA RESULT:      -6.5      0.000      0.000
REMARK  8 active torsions:
REMARK  status: ('A' for Active; 'I' for Inactive)
REMARK    1  A    between atoms: C2_2  and  O1_3 
REMARK    2  A    between atoms: C2_2  and  C3_4 
REMARK    3  A    between atoms: C3_4  and  O2_19 
REMARK    4  A    between atoms: C4_5  and  C5_6 
REMARK    5  A    between atoms: C7_8  and  N1_9 
REMARK    6  A    between atoms: N1_9  and  C8_10 
REMARK    7  A    between atoms: C9_11  and  C10_12 
REMARK    8  A    between atoms: C11_13  and  C12_14 
ROOT
HETATM    1  C5  UNL     1      26.370   1.447  51.715  1.00  0.00     0.064 A 
HETATM    2  C6  UNL     1      25.006   1.408  51.854  1.00  0.00     0.082 A 
HETATM    3  C7  UNL     1      24.097   2.228  51.214  1.00  0.00     0.130 A 
HETATM    4  N2  UNL     1      24.651   3.156  50.373  1.00  0.00    -0.224 NA
HETATM    5  C13 UNL     1      26.011   3.201  50.233  1.00  0.00     0.235 A 
HETATM    6  N3  UNL     1      26.861   2.366  50.887  1.00  0.00    -0.242 NA
ENDROOT
BRANCH   1   7
HETATM    7  C4  UNL     1      27.001   0.397  52.509  1.00  0.00     0.071 C 
HETATM    8  C3  UNL     1      28.036   0.504  53.319  1.00  0.00     0.102 C 
BRANCH   8   9
HETATM    9  C2  UNL     1      28.811   1.686  53.635  1.00  0.00     0.089 C 
HETATM   10  C1  UNL     1      29.414   1.764  54.816  1.00  0.00     0.053 C 
BRANCH   9  11
HETATM   11  O1  UNL     1      29.119   2.881  52.968  1.00  0.00    -0.359 OA
HETATM   12  H3  UNL     1      29.518   2.873  52.029  1.00  0.00     0.217 HD
ENDBRANCH   9  11
ENDBRANCH   8   9
BRANCH   8  13
HETATM   13  O2  UNL     1      28.409  -0.685  53.933  1.00  0.00    -0.353 OA
HETATM   14  C14 UNL     1      29.286  -1.630  53.368  1.00  0.00     0.210 C 
ENDBRANCH   8  13
ENDBRANCH   1   7
BRANCH   3  15
HETATM   15  N1  UNL     1      22.686   2.157  51.366  1.00  0.00    -0.351 N 
HETATM   16  H6  UNL     1      22.203   2.909  51.899  1.00  0.00     0.166 HD
BRANCH  15  17
HETATM   17  C8  UNL     1      21.867   1.129  50.847  1.00  0.00     0.089 C 
HETATM   18  C9  UNL     1      21.258   0.114  51.423  1.00  0.00     0.017 C 
BRANCH  18  19
HETATM   19  C10 UNL     1      21.316  -0.170  52.845  1.00  0.00    -0.000 C 
HETATM   20  C11 UNL     1      22.306  -0.865  53.397  1.00  0.00     0.004 C 
BRANCH  20  21
HETATM   21  C12 UNL     1      22.457  -1.204  54.813  1.00  0.00     0.249 C 
HETATM   22  F1  UNL     1      23.803  -1.045  55.166  1.00  0.00    -0.251 F 
ENDBRANCH  20  21
ENDBRANCH  18  19
ENDBRANCH  15  17
ENDBRANCH   3  15
TORSDOF 8
ENDMDL
MODEL 2
REMARK VINA RESULT:      -6.4      2.899      4.437
REMARK  8 active torsions:
REMARK  status: ('A' for Active; 'I' for Inactive)
REMARK    1  A    between atoms: C2_2  and  O1_3 
REMARK    2  A    between atoms: C2_2  and  C3_4 
REMARK    3  A    between atoms: C3_4  and  O2_19 
REMARK    4  A    between atoms: C4_5  and  C5_6 
REMARK    5  A    between atoms: C7_8  and  N1_9 
REMARK    6  A    between atoms: N1_9  and  C8_10 
REMARK    7  A    between atoms: C9_11  and  C10_12 
REMARK    8  A    between atoms: C11_13  and  C12_14 
ROOT
HETATM    1  C5  UNL     1      24.167  -0.183  53.725  1.00  0.00     0.064 A 
HETATM    2  C6  UNL     1      22.848   0.167  53.590  1.00  0.00     0.082 A 
HETATM    3  C7  UNL     1      21.803  -0.271  54.380  1.00  0.00     0.130 A 
HETATM    4  N2  UNL     1      22.159  -1.138  55.379  1.00  0.00    -0.224 NA
HETATM    5  C13 UNL     1      23.473  -1.493  55.516  1.00  0.00     0.235 A 
HETATM    6  N3  UNL     1      24.464  -1.029  54.710  1.00  0.00    -0.242 NA
ENDROOT
BRANCH   1   7
HETATM    7  C4  UNL     1      24.992   0.514  52.743  1.00  0.00     0.071 C 
HETATM    8  C3  UNL     1      26.238   0.255  52.400  1.00  0.00     0.102 C 
BRANCH   8   9
HETATM    9  C2  UNL     1      27.110  -0.787  52.902  1.00  0.00     0.089 C 
HETATM   10  C1  UNL     1      28.321  -0.459  53.338  1.00  0.00     0.053 C 
BRANCH   9  11
HETATM   11  O1  UNL     1      27.009  -2.177  53.062  1.00  0.00    -0.359 OA
HETATM   12  H3  UNL     1      26.939  -2.797  52.254  1.00  0.00     0.217 HD
ENDBRANCH   9  11
ENDBRANCH   8   9
BRANCH   8  13
HETATM   13  O2  UNL     1      26.755   1.106  51.431  1.00  0.00    -0.353 OA
HETATM   14  C14 UNL     1      26.496   2.488  51.368  1.00  0.00     0.210 C 
ENDBRANCH   8  13
ENDBRANCH   1   7
BRANCH   3  15
HETATM   15  N1  UNL     1      20.445   0.118  54.225  1.00  0.00    -0.351 N 
HETATM   16  H6  UNL     1      20.061   0.852  54.855  1.00  0.00     0.166 HD
BRANCH  15  17
HETATM   17  C8  UNL     1      19.553  -0.421  53.270  1.00  0.00     0.089 C 
HETATM   18  C9  UNL     1      19.369  -0.160  51.993  1.00  0.00     0.017 C 
BRANCH  18  19
HETATM   19  C10 UNL     1      20.127   0.826  51.245  1.00  0.00    -0.000 C 
HETATM   20  C11 UNL     1      21.144   0.500  50.454  1.00  0.00     0.004 C 
BRANCH  20  21
HETATM   21  C12 UNL     1      21.968   1.414  49.661  1.00  0.00     0.249 C 
HETATM   22  F1  UNL     1      23.088   1.774  50.420  1.00  0.00    -0.251 F 
ENDBRANCH  20  21
ENDBRANCH  18  19
ENDBRANCH  15  17
ENDBRANCH   3  15
TORSDOF 8
ENDMDL
MODEL 3
REMARK VINA RESULT:      -6.3      2.532      4.310
REMARK  8 active torsions:
REMARK  status: ('A' for Active; 'I' for Inactive)
REMARK    1  A    between atoms: C2_2  and  O1_3 
REMARK    2  A    between atoms: C2_2  and  C3_4 
REMARK    3  A    between atoms: C3_4  and  O2_19 
REMARK    4  A    between atoms: C4_5  and  C5_6 
REMARK    5  A    between atoms: C7_8  and  N1_9 
REMARK    6  A    between atoms: N1_9  and  C8_10 
REMARK    7  A    between atoms: C9_11  and  C10_12 
REMARK    8  A    between atoms: C11_13  and  C12_14 
ROOT
HETATM    1  C5  UNL     1      25.626  -0.230  54.520  1.00  0.00     0.064 A 
HETATM    2  C6  UNL     1      24.689   0.066  53.563  1.00  0.00     0.082 A 
HETATM    3  C7  UNL     1      23.371  -0.346  53.557  1.00  0.00     0.130 A 
HETATM    4  N2  UNL     1      23.006  -1.125  54.623  1.00  0.00    -0.224 NA
HETATM    5  C13 UNL     1      23.937  -1.425  55.579  1.00  0.00     0.235 A 
HETATM    6  N3  UNL     1      25.224  -0.989  55.537  1.00  0.00    -0.242 NA
ENDROOT
BRANCH   1   7
HETATM    7  C4  UNL     1      26.898   0.419  54.218  1.00  0.00     0.071 C 
HETATM    8  C3  UNL     1      27.988  -0.126  53.717  1.00  0.00     0.102 C 
BRANCH   8   9
HETATM    9  C2  UNL     1      28.207  -1.506  53.332  1.00  0.00     0.089 C 
HETATM   10  C1  UNL     1      29.451  -1.968  53.271  1.00  0.00     0.053 C 
BRANCH   9  11
HETATM   11  O1  UNL     1      27.381  -2.581  52.971  1.00  0.00    -0.359 OA
HETATM   12  H3  UNL     1      26.566  -2.441  52.371  1.00  0.00     0.217 HD
ENDBRANCH   9  11
ENDBRANCH   8   9
BRANCH   8  13
HETATM   13  O2  UNL     1      29.047   0.758  53.547  1.00  0.00    -0.353 OA
HETATM   14  C14 UNL     1      28.992   2.131  53.851  1.00  0.00     0.210 C 
ENDBRANCH   8  13
ENDBRANCH   1   7
BRANCH   3  15
HETATM   15  N1  UNL     1      22.417  -0.015  52.558  1.00  0.00    -0.351 N 
HETATM   16  H6  UNL     1      22.035  -0.776  51.960  1.00  0.00     0.166 HD
BRANCH  15  17
HETATM   17  C8  UNL     1      21.936   1.289  52.300  1.00  0.00     0.089 C 
HETATM   18  C9  UNL     1      22.430   2.286  51.595  1.00  0.00     0.017 C 
BRANCH  18  19
HETATM   19  C10 UNL     1      23.688   2.229  50.874  1.00  0.00    -0.000 C 
HETATM   20  C11 UNL     1      24.796   2.813  51.320  1.00  0.00     0.004 C 
BRANCH  20  21
HETATM   21  C12 UNL     1      26.108   2.815  50.672  1.00  0.00     0.249 C 
HETATM   22  F1  UNL     1      26.815   1.684  51.098  1.00  0.00    -0.251 F 
ENDBRANCH  20  21
ENDBRANCH  18  19
ENDBRANCH  15  17
ENDBRANCH   3  15
TORSDOF 8
ENDMDL
MODEL 4
REMARK VINA RESULT:      -6.2      1.677      2.111
REMARK  8 active torsions:
REMARK  status: ('A' for Active; 'I' for Inactive)
REMARK    1  A    between atoms: C2_2  and  O1_3 
REMARK    2  A    between atoms: C2_2  and  C3_4 
REMARK    3  A    between atoms: C3_4  and  O2_19 
REMARK    4  A    between atoms: C4_5  and  C5_6 
REMARK    5  A    between atoms: C7_8  and  N1_9 
REMARK    6  A    between atoms: N1_9  and  C8_10 
REMARK    7  A    between atoms: C9_11  and  C10_12 
REMARK    8  A    between atoms: C11_13  and  C12_14 
ROOT
HETATM    1  C5  UNL     1      24.474   1.438  52.559  1.00  0.00     0.064 A 
HETATM    2  C6  UNL     1      23.309   0.798  52.220  1.00  0.00     0.082 A 
HETATM    3  C7  UNL     1      22.099   1.401  51.936  1.00  0.00     0.130 A 
HETATM    4  N2  UNL     1      22.105   2.768  52.015  1.00  0.00    -0.224 NA
HETATM    5  C13 UNL     1      23.263   3.411  52.355  1.00  0.00     0.235 A 
HETATM    6  N3  UNL     1      24.429   2.767  52.623  1.00  0.00    -0.242 NA
ENDROOT
BRANCH   1   7
HETATM    7  C4  UNL     1      25.559   0.478  52.739  1.00  0.00     0.071 C 
HETATM    8  C3  UNL     1      26.856   0.713  52.750  1.00  0.00     0.102 C 
BRANCH   8   9
HETATM    9  C2  UNL     1      27.540   1.980  52.590  1.00  0.00     0.089 C 
HETATM   10  C1  UNL     1      28.447   2.340  53.492  1.00  0.00     0.053 C 
BRANCH   9  11
HETATM   11  O1  UNL     1      27.495   3.024  51.655  1.00  0.00    -0.359 OA
HETATM   12  H3  UNL     1      26.807   3.027  50.900  1.00  0.00     0.217 HD
ENDBRANCH   9  11
ENDBRANCH   8   9
BRANCH   8  13
HETATM   13  O2  UNL     1      27.642  -0.416  52.939  1.00  0.00    -0.353 OA
HETATM   14  C14 UNL     1      27.196  -1.737  52.746  1.00  0.00     0.210 C 
ENDBRANCH   8  13
ENDBRANCH   1   7
BRANCH   3  15
HETATM   15  N1  UNL     1      20.910   0.713  51.576  1.00  0.00    -0.351 N 
HETATM   16  H6  UNL     1      20.799   0.387  50.594  1.00  0.00     0.166 HD
BRANCH  15  17
HETATM   17  C8  UNL     1      19.840   0.430  52.456  1.00  0.00     0.089 C 
HETATM   18  C9  UNL     1      19.739  -0.387  53.484  1.00  0.00     0.017 C 
BRANCH  18  19
HETATM   19  C10 UNL     1      20.816  -1.236  53.959  1.00  0.00    -0.000 C 
HETATM   20  C11 UNL     1      21.690  -0.837  54.878  1.00  0.00     0.004 C 
BRANCH  20  21
HETATM   21  C12 UNL     1      22.806  -1.612  55.422  1.00  0.00     0.249 C 
HETATM   22  F1  UNL     1      23.999  -0.939  55.128  1.00  0.00    -0.251 F 
ENDBRANCH  20  21
ENDBRANCH  18  19
ENDBRANCH  15  17
ENDBRANCH   3  15
TORSDOF 8
ENDMDL
MODEL 5
REMARK VINA RESULT:      -6.0      3.668      5.838
REMARK  8 active torsions:
REMARK  status: ('A' for Active; 'I' for Inactive)
REMARK    1  A    between atoms: C2_2  and  O1_3 
REMARK    2  A    between atoms: C2_2  and  C3_4 
REMARK    3  A    between atoms: C3_4  and  O2_19 
REMARK    4  A    between atoms: C4_5  and  C5_6 
REMARK    5  A    between atoms: C7_8  and  N1_9 
REMARK    6  A    between atoms: N1_9  and  C8_10 
REMARK    7  A    between atoms: C9_11  and  C10_12 
REMARK    8  A    between atoms: C11_13  and  C12_14 
ROOT
HETATM    1  C5  UNL     1      26.132   3.882  49.532  1.00  0.00     0.064 A 
HETATM    2  C6  UNL     1      26.471   3.154  50.644  1.00  0.00     0.082 A 
HETATM    3  C7  UNL     1      25.593   2.529  51.509  1.00  0.00     0.130 A 
HETATM    4  N2  UNL     1      24.269   2.677  51.192  1.00  0.00    -0.224 NA
HETATM    5  C13 UNL     1      23.926   3.404  50.085  1.00  0.00     0.235 A 
HETATM    6  N3  UNL     1      24.833   3.998  49.266  1.00  0.00    -0.242 NA
ENDROOT
BRANCH   1   7
HETATM    7  C4  UNL     1      27.326   4.351  48.836  1.00  0.00     0.071 C 
HETATM    8  C3  UNL     1      27.676   5.594  48.572  1.00  0.00     0.102 C 
BRANCH   8   9
HETATM    9  C2  UNL     1      26.973   6.815  48.907  1.00  0.00     0.089 C 
HETATM   10  C1  UNL     1      26.153   7.353  48.010  1.00  0.00     0.053 C 
BRANCH   9  11
HETATM   11  O1  UNL     1      26.924   7.661  50.025  1.00  0.00    -0.359 OA
HETATM   12  H3  UNL     1      27.615   8.401  50.157  1.00  0.00     0.217 HD
ENDBRANCH   9  11
ENDBRANCH   8   9
BRANCH   8  13
HETATM   13  O2  UNL     1      28.877   5.718  47.884  1.00  0.00    -0.353 OA
HETATM   14  C14 UNL     1      30.121   5.964  48.494  1.00  0.00     0.210 C 
ENDBRANCH   8  13
ENDBRANCH   1   7
BRANCH   3  15
HETATM   15  N1  UNL     1      25.972   1.771  52.648  1.00  0.00    -0.351 N 
HETATM   16  H6  UNL     1      26.706   2.151  53.280  1.00  0.00     0.166 HD
BRANCH  15  17
HETATM   17  C8  UNL     1      25.427   0.515  53.003  1.00  0.00     0.089 C 
HETATM   18  C9  UNL     1      25.956  -0.688  53.062  1.00  0.00     0.017 C 
BRANCH  18  19
HETATM   19  C10 UNL     1      27.341  -0.986  52.747  1.00  0.00    -0.000 C 
HETATM   20  C11 UNL     1      28.325  -0.830  53.627  1.00  0.00     0.004 C 
BRANCH  20  21
HETATM   21  C12 UNL     1      29.748  -1.101  53.411  1.00  0.00     0.249 C 
HETATM   22  F1  UNL     1      30.433   0.120  53.386  1.00  0.00    -0.251 F 
ENDBRANCH  20  21
ENDBRANCH  18  19
ENDBRANCH  15  17
ENDBRANCH   3  15
TORSDOF 8
ENDMDL
MODEL 6
REMARK VINA RESULT:      -6.0      2.469      3.228
REMARK  8 active torsions:
REMARK  status: ('A' for Active; 'I' for Inactive)
REMARK    1  A    between atoms: C2_2  and  O1_3 
REMARK    2  A    between atoms: C2_2  and  C3_4 
REMARK    3  A    between atoms: C3_4  and  O2_19 
REMARK    4  A    between atoms: C4_5  and  C5_6 
REMARK    5  A    between atoms: C7_8  and  N1_9 
REMARK    6  A    between atoms: N1_9  and  C8_10 
REMARK    7  A    between atoms: C9_11  and  C10_12 
REMARK    8  A    between atoms: C11_13  and  C12_14 
ROOT
HETATM    1  C5  UNL     1      25.531   0.881  53.519  1.00  0.00     0.064 A 
HETATM    2  C6  UNL     1      24.445   0.108  53.198  1.00  0.00     0.082 A 
HETATM    3  C7  UNL     1      23.208   0.568  52.790  1.00  0.00     0.130 A 
HETATM    4  N2  UNL     1      23.097   1.931  52.713  1.00  0.00    -0.224 NA
HETATM    5  C13 UNL     1      24.176   2.706  53.035  1.00  0.00     0.235 A 
HETATM    6  N3  UNL     1      25.374   2.200  53.430  1.00  0.00    -0.242 NA
ENDROOT
BRANCH   1   7
HETATM    7  C4  UNL     1      26.679   0.046  53.859  1.00  0.00     0.071 C 
HETATM    8  C3  UNL     1      27.948   0.398  53.921  1.00  0.00     0.102 C 
BRANCH   8   9
HETATM    9  C2  UNL     1      28.532   1.700  53.672  1.00  0.00     0.089 C 
HETATM   10  C1  UNL     1      29.520   2.123  54.454  1.00  0.00     0.053 C 
BRANCH   9  11
HETATM   11  O1  UNL     1      28.311   2.729  52.745  1.00  0.00    -0.359 OA
HETATM   12  H3  UNL     1      27.790   3.568  53.002  1.00  0.00     0.217 HD
ENDBRANCH   9  11
ENDBRANCH   8   9
BRANCH   8  13
HETATM   13  O2  UNL     1      28.813  -0.632  54.270  1.00  0.00    -0.353 OA
HETATM   14  C14 UNL     1      29.251  -1.636  53.387  1.00  0.00     0.210 C 
ENDBRANCH   8  13
ENDBRANCH   1   7
BRANCH   3  15
HETATM   15  N1  UNL     1      22.102  -0.257  52.451  1.00  0.00    -0.351 N 
HETATM   16  H6  UNL     1      22.248  -1.285  52.382  1.00  0.00     0.166 HD
BRANCH  15  17
HETATM   17  C8  UNL     1      20.793   0.210  52.193  1.00  0.00     0.089 C 
HETATM   18  C9  UNL     1      20.209   0.627  51.090  1.00  0.00     0.017 C 
BRANCH  18  19
HETATM   19  C10 UNL     1      20.863   0.689  49.796  1.00  0.00    -0.000 C 
HETATM   20  C11 UNL     1      21.576   1.741  49.404  1.00  0.00     0.004 C 
BRANCH  20  21
HETATM   21  C12 UNL     1      22.272   1.902  48.126  1.00  0.00     0.249 C 
HETATM   22  F1  UNL     1      23.429   2.660  48.344  1.00  0.00    -0.251 F 
ENDBRANCH  20  21
ENDBRANCH  18  19
ENDBRANCH  15  17
ENDBRANCH   3  15
TORSDOF 8
ENDMDL
MODEL 7
REMARK VINA RESULT:      -6.0      3.502      5.472
REMARK  8 active torsions:
REMARK  status: ('A' for Active; 'I' for Inactive)
REMARK    1  A    between atoms: C2_2  and  O1_3 
REMARK    2  A    between atoms: C2_2  and  C3_4 
REMARK    3  A    between atoms: C3_4  and  O2_19 
REMARK    4  A    between atoms: C4_5  and  C5_6 
REMARK    5  A    between atoms: C7_8  and  N1_9 
REMARK    6  A    between atoms: N1_9  and  C8_10 
REMARK    7  A    between atoms: C9_11  and  C10_12 
REMARK    8  A    between atoms: C11_13  and  C12_14 
ROOT
HETATM    1  C5  UNL     1      25.222   1.872  52.358  1.00  0.00     0.064 A 
HETATM    2  C6  UNL     1      25.157   2.326  51.065  1.00  0.00     0.082 A 
HETATM    3  C7  UNL     1      24.519   3.473  50.634  1.00  0.00     0.130 A 
HETATM    4  N2  UNL     1      23.903   4.195  51.621  1.00  0.00    -0.224 NA
HETATM    5  C13 UNL     1      23.962   3.746  52.911  1.00  0.00     0.235 A 
HETATM    6  N3  UNL     1      24.607   2.608  53.282  1.00  0.00    -0.242 NA
ENDROOT
BRANCH   1   7
HETATM    7  C4  UNL     1      26.021   0.654  52.440  1.00  0.00     0.071 C 
HETATM    8  C3  UNL     1      27.286   0.536  52.793  1.00  0.00     0.102 C 
BRANCH   8   9
HETATM    9  C2  UNL     1      28.207   1.579  53.194  1.00  0.00     0.089 C 
HETATM   10  C1  UNL     1      29.047   1.347  54.197  1.00  0.00     0.053 C 
BRANCH   9  11
HETATM   11  O1  UNL     1      28.471   2.890  52.770  1.00  0.00    -0.359 OA
HETATM   12  H3  UNL     1      28.937   3.560  53.384  1.00  0.00     0.217 HD
ENDBRANCH   9  11
ENDBRANCH   8   9
BRANCH   8  13
HETATM   13  O2  UNL     1      27.770  -0.766  52.767  1.00  0.00    -0.353 OA
HETATM   14  C14 UNL     1      26.964  -1.911  52.624  1.00  0.00     0.210 C 
ENDBRANCH   8  13
ENDBRANCH   1   7
BRANCH   3  15
HETATM   15  N1  UNL     1      24.478   3.926  49.288  1.00  0.00    -0.351 N 
HETATM   16  H6  UNL     1      24.402   3.222  48.526  1.00  0.00     0.166 HD
BRANCH  15  17
HETATM   17  C8  UNL     1      24.537   5.281  48.889  1.00  0.00     0.089 C 
HETATM   18  C9  UNL     1      25.551   6.096  48.690  1.00  0.00     0.017 C 
BRANCH  18  19
HETATM   19  C10 UNL     1      26.943   5.722  48.857  1.00  0.00    -0.000 C 
HETATM   20  C11 UNL     1      27.926   6.291  48.167  1.00  0.00     0.004 C 
BRANCH  20  21
HETATM   21  C12 UNL     1      29.355   5.987  48.260  1.00  0.00     0.249 C 
HETATM   22  F1  UNL     1      29.568   4.698  47.757  1.00  0.00    -0.251 F 
ENDBRANCH  20  21
ENDBRANCH  18  19
ENDBRANCH  15  17
ENDBRANCH   3  15
TORSDOF 8
ENDMDL
MODEL 8
REMARK VINA RESULT:      -5.9      3.147      5.981
REMARK  8 active torsions:
REMARK  status: ('A' for Active; 'I' for Inactive)
REMARK    1  A    between atoms: C2_2  and  O1_3 
REMARK    2  A    between atoms: C2_2  and  C3_4 
REMARK    3  A    between atoms: C3_4  and  O2_19 
REMARK    4  A    between atoms: C4_5  and  C5_6 
REMARK    5  A    between atoms: C7_8  and  N1_9 
REMARK    6  A    between atoms: N1_9  and  C8_10 
REMARK    7  A    between atoms: C9_11  and  C10_12 
REMARK    8  A    between atoms: C11_13  and  C12_14 
ROOT
HETATM    1  C5  UNL     1      23.441   1.801  52.285  1.00  0.00     0.064 A 
HETATM    2  C6  UNL     1      24.796   1.769  52.495  1.00  0.00     0.082 A 
HETATM    3  C7  UNL     1      25.738   2.562  51.867  1.00  0.00     0.130 A 
HETATM    4  N2  UNL     1      25.230   3.447  50.954  1.00  0.00    -0.224 NA
HETATM    5  C13 UNL     1      23.880   3.480  50.739  1.00  0.00     0.235 A 
HETATM    6  N3  UNL     1      22.995   2.678  51.387  1.00  0.00    -0.242 NA
ENDROOT
BRANCH   1   7
HETATM    7  C4  UNL     1      22.759   0.855  53.162  1.00  0.00     0.071 C 
HETATM    8  C3  UNL     1      21.464   0.739  53.379  1.00  0.00     0.102 C 
BRANCH   8   9
HETATM    9  C2  UNL     1      20.384   1.513  52.802  1.00  0.00     0.089 C 
HETATM   10  C1  UNL     1      19.436   0.885  52.115  1.00  0.00     0.053 C 
BRANCH   9  11
HETATM   11  O1  UNL     1      20.042   2.874  52.769  1.00  0.00    -0.359 OA
HETATM   12  H3  UNL     1      20.130   3.460  53.600  1.00  0.00     0.217 HD
ENDBRANCH   9  11
ENDBRANCH   8   9
BRANCH   8  13
HETATM   13  O2  UNL     1      21.120  -0.261  54.280  1.00  0.00    -0.353 OA
HETATM   14  C14 UNL     1      21.883  -1.420  54.510  1.00  0.00     0.210 C 
ENDBRANCH   8  13
ENDBRANCH   1   7
BRANCH   3  15
HETATM   15  N1  UNL     1      27.136   2.516  52.113  1.00  0.00    -0.351 N 
HETATM   16  H6  UNL     1      27.789   2.724  51.330  1.00  0.00     0.166 HD
BRANCH  15  17
HETATM   17  C8  UNL     1      27.729   2.204  53.358  1.00  0.00     0.089 C 
HETATM   18  C9  UNL     1      28.214   1.081  53.844  1.00  0.00     0.017 C 
BRANCH  18  19
HETATM   19  C10 UNL     1      28.239  -0.177  53.121  1.00  0.00    -0.000 C 
HETATM   20  C11 UNL     1      27.224  -1.036  53.144  1.00  0.00     0.004 C 
BRANCH  20  21
HETATM   21  C12 UNL     1      27.149  -2.324  52.452  1.00  0.00     0.249 C 
HETATM   22  F1  UNL     1      28.270  -3.085  52.810  1.00  0.00    -0.251 F 
ENDBRANCH  20  21
ENDBRANCH  18  19
ENDBRANCH  15  17
ENDBRANCH   3  15
TORSDOF 8
ENDMDL
MODEL 9
REMARK VINA RESULT:      -5.6      2.042      2.446
REMARK  8 active torsions:
REMARK  status: ('A' for Active; 'I' for Inactive)
REMARK    1  A    between atoms: C2_2  and  O1_3 
REMARK    2  A    between atoms: C2_2  and  C3_4 
REMARK    3  A    between atoms: C3_4  and  O2_19 
REMARK    4  A    between atoms: C4_5  and  C5_6 
REMARK    5  A    between atoms: C7_8  and  N1_9 
REMARK    6  A    between atoms: N1_9  and  C8_10 
REMARK    7  A    between atoms: C9_11  and  C10_12 
REMARK    8  A    between atoms: C11_13  and  C12_14 
ROOT
HETATM    1  C5  UNL     1      25.996   2.123  51.772  1.00  0.00     0.064 A 
HETATM    2  C6  UNL     1      24.720   2.604  51.617  1.00  0.00     0.082 A 
HETATM    3  C7  UNL     1      24.305   3.529  50.679  1.00  0.00     0.130 A 
HETATM    4  N2  UNL     1      25.292   3.987  49.847  1.00  0.00    -0.224 NA
HETATM    5  C13 UNL     1      26.566   3.514  49.999  1.00  0.00     0.235 A 
HETATM    6  N3  UNL     1      26.919   2.599  50.940  1.00  0.00    -0.242 NA
ENDROOT
BRANCH   1   7
HETATM    7  C4  UNL     1      26.047   1.122  52.833  1.00  0.00     0.071 C 
HETATM    8  C3  UNL     1      27.090   0.752  53.550  1.00  0.00     0.102 C 
BRANCH   8   9
HETATM    9  C2  UNL     1      28.451   1.242  53.474  1.00  0.00     0.089 C 
HETATM   10  C1  UNL     1      29.452   0.403  53.716  1.00  0.00     0.053 C 
BRANCH   9  11
HETATM   11  O1  UNL     1      29.048   2.480  53.192  1.00  0.00    -0.359 OA
HETATM   12  H3  UNL     1      29.749   2.571  52.456  1.00  0.00     0.217 HD
ENDBRANCH   9  11
ENDBRANCH   8   9
BRANCH   8  13
HETATM   13  O2  UNL     1      26.820  -0.237  54.488  1.00  0.00    -0.353 OA
HETATM   14  C14 UNL     1      25.527  -0.670  54.836  1.00  0.00     0.210 C 
ENDBRANCH   8  13
ENDBRANCH   1   7
BRANCH   3  15
HETATM   15  N1  UNL     1      22.974   4.000  50.533  1.00  0.00    -0.351 N 
HETATM   16  H6  UNL     1      22.578   4.091  49.575  1.00  0.00     0.166 HD
BRANCH  15  17
HETATM   17  C8  UNL     1      22.123   4.368  51.601  1.00  0.00     0.089 C 
HETATM   18  C9  UNL     1      21.207   3.697  52.266  1.00  0.00     0.017 C 
BRANCH  18  19
HETATM   19  C10 UNL     1      20.862   2.312  52.007  1.00  0.00    -0.000 C 
HETATM   20  C11 UNL     1      20.526   1.464  52.974  1.00  0.00     0.004 C 
BRANCH  20  21
HETATM   21  C12 UNL     1      20.162   0.054  52.818  1.00  0.00     0.249 C 
HETATM   22  F1  UNL     1      19.591  -0.120  51.551  1.00  0.00    -0.251 F 
ENDBRANCH  20  21
ENDBRANCH  18  19
ENDBRANCH  15  17
ENDBRANCH   3  15
TORSDOF 8
ENDMDL
