MODEL 1
REMARK VINA RESULT:      -7.7      0.000      0.000
REMARK  5 active torsions:
REMARK  status: ('A' for Active; 'I' for Inactive)
REMARK    1  A    between atoms: C2_2  and  N1_3 
REMARK    2  A    between atoms: N1_3  and  C3_4 
REMARK    3  A    between atoms: C3_4  and  C4_5 
REMARK    4  A    between atoms: C9_10  and  C10_11 
REMARK    5  A    between atoms: C13_14  and  O1_15 
ROOT
HETATM    1  C4  UNL     1      26.205   0.701  53.129  1.00  0.00     0.012 C 
HETATM    2  C5  UNL     1      25.951   1.981  52.885  1.00  0.00    -0.011 C 
HETATM    3  C6  UNL     1      24.657   2.283  53.425  1.00  0.00     0.055 C 
HETATM    4  C7  UNL     1      23.654   2.787  52.503  1.00  0.00    -0.022 C 
HETATM    5  C8  UNL     1      22.653   1.912  52.401  1.00  0.00     0.008 C 
HETATM    6  C9  UNL     1      22.412   0.616  52.978  1.00  0.00    -0.030 C 
HETATM    7  C17 UNL     1      22.933  -0.330  53.741  1.00  0.00    -0.007 C 
HETATM    8  C18 UNL     1      24.140  -0.687  54.509  1.00  0.00     0.111 C 
HETATM    9  C19 UNL     1      25.401  -0.293  53.794  1.00  0.00     0.160 C 
HETATM   10  O2  UNL     1      26.127  -1.366  53.748  1.00  0.00    -0.292 OA
ENDROOT
BRANCH   6  11
HETATM   11  C10 UNL     1      21.033   0.186  52.594  1.00  0.00    -0.026 A 
HETATM   12  C11 UNL     1      20.353   0.513  51.414  1.00  0.00     0.015 A 
HETATM   13  C12 UNL     1      19.056   0.201  51.144  1.00  0.00     0.037 A 
HETATM   14  C13 UNL     1      18.277  -0.506  52.076  1.00  0.00     0.068 A 
HETATM   15  C15 UNL     1      18.886  -0.849  53.237  1.00  0.00     0.037 A 
HETATM   16  C16 UNL     1      20.187  -0.506  53.448  1.00  0.00     0.015 A 
BRANCH  14  17
HETATM   17  O1  UNL     1      17.007  -0.707  51.594  1.00  0.00    -0.356 OA
HETATM   18  C14 UNL     1      16.028  -1.398  52.290  1.00  0.00     0.210 C 
ENDBRANCH  14  17
ENDBRANCH   6  11
BRANCH   1  19
HETATM   19  C3  UNL     1      27.553   0.310  52.589  1.00  0.00     0.311 C 
BRANCH  19  20
HETATM   20  N1  UNL     1      28.574   1.159  53.270  1.00  0.00     0.087 N 
HETATM   21  H6  UNL     1      27.963   1.795  53.859  1.00  0.00     0.316 HD
BRANCH  20  22
HETATM   22  C2  UNL     1      29.299   0.260  54.188  1.00  0.00     0.265 C 
HETATM   23  C1  UNL     1      29.633  -1.047  53.510  1.00  0.00     0.037 C 
ENDBRANCH  20  22
ENDBRANCH  19  20
ENDBRANCH   1  19
TORSDOF 5
ENDMDL
MODEL 2
REMARK VINA RESULT:      -7.5      2.917      8.183
REMARK  5 active torsions:
REMARK  status: ('A' for Active; 'I' for Inactive)
REMARK    1  A    between atoms: C2_2  and  N1_3 
REMARK    2  A    between atoms: N1_3  and  C3_4 
REMARK    3  A    between atoms: C3_4  and  C4_5 
REMARK    4  A    between atoms: C9_10  and  C10_11 
REMARK    5  A    between atoms: C13_14  and  O1_15 
ROOT
HETATM    1  C4  UNL     1      19.611   0.305  52.318  1.00  0.00     0.012 C 
HETATM    2  C5  UNL     1      19.571  -0.516  53.360  1.00  0.00    -0.011 C 
HETATM    3  C6  UNL     1      20.635  -0.151  54.249  1.00  0.00     0.055 C 
HETATM    4  C7  UNL     1      21.620  -1.173  54.561  1.00  0.00    -0.022 C 
HETATM    5  C8  UNL     1      22.812  -0.813  54.083  1.00  0.00     0.008 C 
HETATM    6  C9  UNL     1      23.271   0.322  53.327  1.00  0.00    -0.030 C 
HETATM    7  C17 UNL     1      22.883   1.431  52.719  1.00  0.00    -0.007 C 
HETATM    8  C18 UNL     1      21.694   2.241  52.400  1.00  0.00     0.111 C 
HETATM    9  C19 UNL     1      20.514   1.389  52.026  1.00  0.00     0.160 C 
HETATM   10  O2  UNL     1      20.102   1.843  50.885  1.00  0.00    -0.292 OA
ENDROOT
BRANCH   6  11
HETATM   11  C10 UNL     1      24.758   0.231  53.210  1.00  0.00    -0.026 A 
HETATM   12  C11 UNL     1      25.636  -0.351  54.134  1.00  0.00     0.015 A 
HETATM   13  C12 UNL     1      26.993  -0.317  54.054  1.00  0.00     0.037 A 
HETATM   14  C13 UNL     1      27.636   0.335  52.988  1.00  0.00     0.068 A 
HETATM   15  C15 UNL     1      26.834   0.917  52.063  1.00  0.00     0.037 A 
HETATM   16  C16 UNL     1      25.481   0.849  52.200  1.00  0.00     0.015 A 
BRANCH  14  17
HETATM   17  O1  UNL     1      29.000   0.244  53.114  1.00  0.00    -0.356 OA
HETATM   18  C14 UNL     1      29.636  -0.785  53.789  1.00  0.00     0.210 C 
ENDBRANCH  14  17
ENDBRANCH   6  11
BRANCH   1  19
HETATM   19  C3  UNL     1      18.516  -0.019  51.339  1.00  0.00     0.311 C 
BRANCH  19  20
HETATM   20  N1  UNL     1      17.414   0.964  51.553  1.00  0.00     0.087 N 
HETATM   21  H6  UNL     1      17.937   1.885  51.498  1.00  0.00     0.316 HD
BRANCH  20  22
HETATM   22  C2  UNL     1      16.551   0.868  50.361  1.00  0.00     0.265 C 
HETATM   23  C1  UNL     1      16.698  -0.478  49.695  1.00  0.00     0.037 C 
ENDBRANCH  20  22
ENDBRANCH  19  20
ENDBRANCH   1  19
TORSDOF 5
ENDMDL
MODEL 3
REMARK VINA RESULT:      -7.3      1.633      2.629
REMARK  5 active torsions:
REMARK  status: ('A' for Active; 'I' for Inactive)
REMARK    1  A    between atoms: C2_2  and  N1_3 
REMARK    2  A    between atoms: N1_3  and  C3_4 
REMARK    3  A    between atoms: C3_4  and  C4_5 
REMARK    4  A    between atoms: C9_10  and  C10_11 
REMARK    5  A    between atoms: C13_14  and  O1_15 
ROOT
HETATM    1  C4  UNL     1      23.914  -0.136  53.539  1.00  0.00     0.012 C 
HETATM    2  C5  UNL     1      24.039   0.788  52.594  1.00  0.00    -0.011 C 
HETATM    3  C6  UNL     1      22.815   1.534  52.543  1.00  0.00     0.055 C 
HETATM    4  C7  UNL     1      22.101   1.553  51.277  1.00  0.00    -0.022 C 
HETATM    5  C8  UNL     1      20.925   0.939  51.412  1.00  0.00     0.008 C 
HETATM    6  C9  UNL     1      20.281   0.267  52.510  1.00  0.00    -0.030 C 
HETATM    7  C17 UNL     1      20.437  -0.126  53.763  1.00  0.00    -0.007 C 
HETATM    8  C18 UNL     1      21.403  -0.147  54.876  1.00  0.00     0.111 C 
HETATM    9  C19 UNL     1      22.801  -0.431  54.406  1.00  0.00     0.160 C 
HETATM   10  O2  UNL     1      23.217  -1.425  55.124  1.00  0.00    -0.292 OA
ENDROOT
BRANCH   6  11
HETATM   11  C10 UNL     1      18.896  -0.096  52.085  1.00  0.00    -0.026 A 
HETATM   12  C11 UNL     1      17.995  -0.915  52.779  1.00  0.00     0.015 A 
HETATM   13  C12 UNL     1      16.783  -1.319  52.311  1.00  0.00     0.037 A 
HETATM   14  C13 UNL     1      16.332  -0.921  51.041  1.00  0.00     0.068 A 
HETATM   15  C15 UNL     1      17.165  -0.127  50.325  1.00  0.00     0.037 A 
HETATM   16  C16 UNL     1      18.367   0.242  50.848  1.00  0.00     0.015 A 
BRANCH  14  17
HETATM   17  O1  UNL     1      15.091  -1.446  50.779  1.00  0.00    -0.356 OA
HETATM   18  C14 UNL     1      14.604  -2.592  51.389  1.00  0.00     0.210 C 
ENDBRANCH  14  17
ENDBRANCH   6  11
BRANCH   1  19
HETATM   19  C3  UNL     1      25.167  -0.960  53.651  1.00  0.00     0.311 C 
BRANCH  19  20
HETATM   20  N1  UNL     1      25.995  -0.375  54.746  1.00  0.00     0.087 N 
HETATM   21  H6  UNL     1      26.070  -1.194  55.416  1.00  0.00     0.316 HD
BRANCH  20  22
HETATM   22  C2  UNL     1      27.331  -0.149  54.164  1.00  0.00     0.265 C 
HETATM   23  C1  UNL     1      27.433  -0.766  52.790  1.00  0.00     0.037 C 
ENDBRANCH  20  22
ENDBRANCH  19  20
ENDBRANCH   1  19
TORSDOF 5
ENDMDL
MODEL 4
REMARK VINA RESULT:      -7.2      4.273      7.887
REMARK  5 active torsions:
REMARK  status: ('A' for Active; 'I' for Inactive)
REMARK    1  A    between atoms: C2_2  and  N1_3 
REMARK    2  A    between atoms: N1_3  and  C3_4 
REMARK    3  A    between atoms: C3_4  and  C4_5 
REMARK    4  A    between atoms: C9_10  and  C10_11 
REMARK    5  A    between atoms: C13_14  and  O1_15 
ROOT
HETATM    1  C4  UNL     1      23.419   5.365  50.590  1.00  0.00     0.012 C 
HETATM    2  C5  UNL     1      24.062   5.252  49.434  1.00  0.00    -0.011 C 
HETATM    3  C6  UNL     1      24.459   3.882  49.284  1.00  0.00     0.055 C 
HETATM    4  C7  UNL     1      25.879   3.616  49.125  1.00  0.00    -0.022 C 
HETATM    5  C8  UNL     1      26.327   2.919  50.171  1.00  0.00     0.008 C 
HETATM    6  C9  UNL     1      25.707   2.438  51.377  1.00  0.00    -0.030 C 
HETATM    7  C17 UNL     1      24.583   2.436  52.075  1.00  0.00    -0.007 C 
HETATM    8  C18 UNL     1      23.202   2.951  52.079  1.00  0.00     0.111 C 
HETATM    9  C19 UNL     1      23.126   4.368  51.589  1.00  0.00     0.160 C 
HETATM   10  O2  UNL     1      22.488   5.023  52.507  1.00  0.00    -0.292 OA
ENDROOT
BRANCH   6  11
HETATM   11  C10 UNL     1      26.699   1.591  52.103  1.00  0.00    -0.026 A 
HETATM   12  C11 UNL     1      26.732   0.190  52.146  1.00  0.00     0.015 A 
HETATM   13  C12 UNL     1      27.581  -0.551  52.909  1.00  0.00     0.037 A 
HETATM   14  C13 UNL     1      28.526   0.068  53.743  1.00  0.00     0.068 A 
HETATM   15  C15 UNL     1      28.539   1.423  53.742  1.00  0.00     0.037 A 
HETATM   16  C16 UNL     1      27.663   2.109  52.956  1.00  0.00     0.015 A 
BRANCH  14  17
HETATM   17  O1  UNL     1      29.269  -0.870  54.417  1.00  0.00    -0.356 OA
HETATM   18  C14 UNL     1      29.972  -1.883  53.784  1.00  0.00     0.210 C 
ENDBRANCH  14  17
ENDBRANCH   6  11
BRANCH   1  19
HETATM   19  C3  UNL     1      22.969   6.782  50.816  1.00  0.00     0.311 C 
BRANCH  19  20
HETATM   20  N1  UNL     1      24.091   7.512  51.475  1.00  0.00     0.087 N 
HETATM   21  H6  UNL     1      24.769   6.721  51.677  1.00  0.00     0.316 HD
BRANCH  20  22
HETATM   22  C2  UNL     1      24.692   8.358  50.427  1.00  0.00     0.265 C 
HETATM   23  C1  UNL     1      26.149   8.019  50.228  1.00  0.00     0.037 C 
ENDBRANCH  20  22
ENDBRANCH  19  20
ENDBRANCH   1  19
TORSDOF 5
ENDMDL
MODEL 5
REMARK VINA RESULT:      -7.2      5.106      8.697
REMARK  5 active torsions:
REMARK  status: ('A' for Active; 'I' for Inactive)
REMARK    1  A    between atoms: C2_2  and  N1_3 
REMARK    2  A    between atoms: N1_3  and  C3_4 
REMARK    3  A    between atoms: C3_4  and  C4_5 
REMARK    4  A    between atoms: C9_10  and  C10_11 
REMARK    5  A    between atoms: C13_14  and  O1_15 
ROOT
HETATM    1  C4  UNL     1      23.752   1.791  51.774  1.00  0.00     0.012 C 
HETATM    2  C5  UNL     1      22.813   2.086  50.883  1.00  0.00    -0.011 C 
HETATM    3  C6  UNL     1      23.463   2.370  49.636  1.00  0.00     0.055 C 
HETATM    4  C7  UNL     1      23.233   3.679  49.050  1.00  0.00    -0.022 C 
HETATM    5  C8  UNL     1      24.375   4.367  49.019  1.00  0.00     0.008 C 
HETATM    6  C9  UNL     1      25.713   4.083  49.467  1.00  0.00    -0.030 C 
HETATM    7  C17 UNL     1      26.464   3.195  50.097  1.00  0.00    -0.007 C 
HETATM    8  C18 UNL     1      26.416   1.891  50.781  1.00  0.00     0.111 C 
HETATM    9  C19 UNL     1      25.185   1.743  51.629  1.00  0.00     0.160 C 
HETATM   10  O2  UNL     1      25.608   1.408  52.807  1.00  0.00    -0.292 OA
ENDROOT
BRANCH   6  11
HETATM   11  C10 UNL     1      26.599   5.200  49.023  1.00  0.00    -0.026 A 
HETATM   12  C11 UNL     1      27.905   5.087  48.529  1.00  0.00     0.015 A 
HETATM   13  C12 UNL     1      28.727   6.132  48.240  1.00  0.00     0.037 A 
HETATM   14  C13 UNL     1      28.299   7.458  48.425  1.00  0.00     0.068 A 
HETATM   15  C15 UNL     1      27.042   7.626  48.901  1.00  0.00     0.037 A 
HETATM   16  C16 UNL     1      26.268   6.539  49.172  1.00  0.00     0.015 A 
BRANCH  14  17
HETATM   17  O1  UNL     1      29.289   8.342  48.072  1.00  0.00    -0.356 OA
HETATM   18  C14 UNL     1      30.100   8.985  48.993  1.00  0.00     0.210 C 
ENDBRANCH  14  17
ENDBRANCH   6  11
BRANCH   1  19
HETATM   19  C3  UNL     1      23.141   1.480  53.112  1.00  0.00     0.311 C 
BRANCH  19  20
HETATM   20  N1  UNL     1      23.225   0.004  53.313  1.00  0.00     0.087 N 
HETATM   21  H6  UNL     1      23.627  -0.055  54.293  1.00  0.00     0.316 HD
BRANCH  20  22
HETATM   22  C2  UNL     1      21.830  -0.475  53.373  1.00  0.00     0.265 C 
HETATM   23  C1  UNL     1      21.173  -0.064  54.668  1.00  0.00     0.037 C 
ENDBRANCH  20  22
ENDBRANCH  19  20
ENDBRANCH   1  19
TORSDOF 5
ENDMDL
MODEL 6
REMARK VINA RESULT:      -7.1      3.780      5.595
REMARK  5 active torsions:
REMARK  status: ('A' for Active; 'I' for Inactive)
REMARK    1  A    between atoms: C2_2  and  N1_3 
REMARK    2  A    between atoms: N1_3  and  C3_4 
REMARK    3  A    between atoms: C3_4  and  C4_5 
REMARK    4  A    between atoms: C9_10  and  C10_11 
REMARK    5  A    between atoms: C13_14  and  O1_15 
ROOT
HETATM    1  C4  UNL     1      26.308   1.157  53.114  1.00  0.00     0.012 C 
HETATM    2  C5  UNL     1      25.151   0.567  53.390  1.00  0.00    -0.011 C 
HETATM    3  C6  UNL     1      24.210   0.949  52.377  1.00  0.00     0.055 C 
HETATM    4  C7  UNL     1      22.999   1.621  52.816  1.00  0.00    -0.022 C 
HETATM    5  C8  UNL     1      22.977   2.868  52.345  1.00  0.00     0.008 C 
HETATM    6  C9  UNL     1      23.898   3.641  51.553  1.00  0.00    -0.030 C 
HETATM    7  C17 UNL     1      25.090   3.628  50.981  1.00  0.00    -0.007 C 
HETATM    8  C18 UNL     1      26.291   2.795  50.789  1.00  0.00     0.111 C 
HETATM    9  C19 UNL     1      26.662   2.043  52.035  1.00  0.00     0.160 C 
HETATM   10  O2  UNL     1      27.909   2.322  52.254  1.00  0.00    -0.292 OA
ENDROOT
BRANCH   6  11
HETATM   11  C10 UNL     1      23.246   4.944  51.223  1.00  0.00    -0.026 A 
HETATM   12  C11 UNL     1      21.928   5.134  50.787  1.00  0.00     0.015 A 
HETATM   13  C12 UNL     1      21.398   6.321  50.386  1.00  0.00     0.037 A 
HETATM   14  C13 UNL     1      22.175   7.492  50.383  1.00  0.00     0.068 A 
HETATM   15  C15 UNL     1      23.460   7.366  50.795  1.00  0.00     0.037 A 
HETATM   16  C16 UNL     1      23.932   6.149  51.184  1.00  0.00     0.015 A 
BRANCH  14  17
HETATM   17  O1  UNL     1      21.438   8.563  49.940  1.00  0.00    -0.356 OA
HETATM   18  C14 UNL     1      20.057   8.547  49.838  1.00  0.00     0.210 C 
ENDBRANCH  14  17
ENDBRANCH   6  11
BRANCH   1  19
HETATM   19  C3  UNL     1      27.349   0.799  54.139  1.00  0.00     0.311 C 
BRANCH  19  20
HETATM   20  N1  UNL     1      27.435  -0.690  54.192  1.00  0.00     0.087 N 
HETATM   21  H6  UNL     1      26.512  -0.972  53.751  1.00  0.00     0.316 HD
BRANCH  20  22
HETATM   22  C2  UNL     1      28.511  -1.065  53.255  1.00  0.00     0.265 C 
HETATM   23  C1  UNL     1      29.808  -0.387  53.623  1.00  0.00     0.037 C 
ENDBRANCH  20  22
ENDBRANCH  19  20
ENDBRANCH   1  19
TORSDOF 5
ENDMDL
MODEL 7
REMARK VINA RESULT:      -7.1      1.793      3.057
REMARK  5 active torsions:
REMARK  status: ('A' for Active; 'I' for Inactive)
REMARK    1  A    between atoms: C2_2  and  N1_3 
REMARK    2  A    between atoms: N1_3  and  C3_4 
REMARK    3  A    between atoms: C3_4  and  C4_5 
REMARK    4  A    between atoms: C9_10  and  C10_11 
REMARK    5  A    between atoms: C13_14  and  O1_15 
ROOT
HETATM    1  C4  UNL     1      24.282   1.445  52.853  1.00  0.00     0.012 C 
HETATM    2  C5  UNL     1      24.405   0.376  53.632  1.00  0.00    -0.011 C 
HETATM    3  C6  UNL     1      23.510  -0.631  53.141  1.00  0.00     0.055 C 
HETATM    4  C7  UNL     1      22.503  -1.129  54.061  1.00  0.00    -0.022 C 
HETATM    5  C8  UNL     1      21.287  -0.803  53.620  1.00  0.00     0.008 C 
HETATM    6  C9  UNL     1      20.816  -0.059  52.481  1.00  0.00    -0.030 C 
HETATM    7  C17 UNL     1      21.200   0.653  51.436  1.00  0.00    -0.007 C 
HETATM    8  C18 UNL     1      22.392   1.176  50.744  1.00  0.00     0.111 C 
HETATM    9  C19 UNL     1      23.435   1.665  51.708  1.00  0.00     0.160 C 
HETATM   10  O2  UNL     1      23.715   2.874  51.338  1.00  0.00    -0.292 OA
ENDROOT
BRANCH   6  11
HETATM   11  C10 UNL     1      19.325  -0.155  52.449  1.00  0.00    -0.026 A 
HETATM   12  C11 UNL     1      18.523  -1.000  53.227  1.00  0.00     0.015 A 
HETATM   13  C12 UNL     1      17.177  -1.146  53.094  1.00  0.00     0.037 A 
HETATM   14  C13 UNL     1      16.468  -0.422  52.121  1.00  0.00     0.068 A 
HETATM   15  C15 UNL     1      17.194   0.412  51.338  1.00  0.00     0.037 A 
HETATM   16  C16 UNL     1      18.540   0.513  51.520  1.00  0.00     0.015 A 
BRANCH  14  17
HETATM   17  O1  UNL     1      15.130  -0.728  52.167  1.00  0.00    -0.356 OA
HETATM   18  C14 UNL     1      14.206   0.001  52.899  1.00  0.00     0.210 C 
ENDBRANCH  14  17
ENDBRANCH   6  11
BRANCH   1  19
HETATM   19  C3  UNL     1      25.197   2.548  53.309  1.00  0.00     0.311 C 
BRANCH  19  20
HETATM   20  N1  UNL     1      26.424   2.496  52.461  1.00  0.00     0.087 N 
HETATM   21  H6  UNL     1      26.507   3.505  52.146  1.00  0.00     0.316 HD
BRANCH  20  22
HETATM   22  C2  UNL     1      27.541   2.222  53.385  1.00  0.00     0.265 C 
HETATM   23  C1  UNL     1      28.072   0.822  53.190  1.00  0.00     0.037 C 
ENDBRANCH  20  22
ENDBRANCH  19  20
ENDBRANCH   1  19
TORSDOF 5
ENDMDL
MODEL 8
REMARK VINA RESULT:      -7.1      4.433      8.277
REMARK  5 active torsions:
REMARK  status: ('A' for Active; 'I' for Inactive)
REMARK    1  A    between atoms: C2_2  and  N1_3 
REMARK    2  A    between atoms: N1_3  and  C3_4 
REMARK    3  A    between atoms: C3_4  and  C4_5 
REMARK    4  A    between atoms: C9_10  and  C10_11 
REMARK    5  A    between atoms: C13_14  and  O1_15 
ROOT
HETATM    1  C4  UNL     1      20.827   0.944  51.563  1.00  0.00     0.012 C 
HETATM    2  C5  UNL     1      20.432   0.863  50.298  1.00  0.00    -0.011 C 
HETATM    3  C6  UNL     1      21.603   0.864  49.470  1.00  0.00     0.055 C 
HETATM    4  C7  UNL     1      21.714   1.920  48.479  1.00  0.00    -0.022 C 
HETATM    5  C8  UNL     1      22.752   2.706  48.769  1.00  0.00     0.008 C 
HETATM    6  C9  UNL     1      23.709   2.721  49.844  1.00  0.00    -0.030 C 
HETATM    7  C17 UNL     1      24.047   2.142  50.984  1.00  0.00    -0.007 C 
HETATM    8  C18 UNL     1      23.645   1.084  51.928  1.00  0.00     0.111 C 
HETATM    9  C19 UNL     1      22.156   1.030  52.115  1.00  0.00     0.160 C 
HETATM   10  O2  UNL     1      21.960   1.091  53.394  1.00  0.00    -0.292 OA
ENDROOT
BRANCH   6  11
HETATM   11  C10 UNL     1      24.730   3.769  49.542  1.00  0.00    -0.026 A 
HETATM   12  C11 UNL     1      24.482   5.079  49.111  1.00  0.00     0.015 A 
HETATM   13  C12 UNL     1      25.435   5.974  48.735  1.00  0.00     0.037 A 
HETATM   14  C13 UNL     1      26.797   5.628  48.758  1.00  0.00     0.068 A 
HETATM   15  C15 UNL     1      27.095   4.371  49.167  1.00  0.00     0.037 A 
HETATM   16  C16 UNL     1      26.094   3.521  49.529  1.00  0.00     0.015 A 
BRANCH  14  17
HETATM   17  O1  UNL     1      27.572   6.681  48.338  1.00  0.00    -0.356 OA
HETATM   18  C14 UNL     1      28.817   6.524  47.750  1.00  0.00     0.210 C 
ENDBRANCH  14  17
ENDBRANCH   6  11
BRANCH   1  19
HETATM   19  C3  UNL     1      19.646   0.946  52.494  1.00  0.00     0.311 C 
BRANCH  19  20
HETATM   20  N1  UNL     1      19.530  -0.421  53.079  1.00  0.00     0.087 N 
HETATM   21  H6  UNL     1      19.554  -0.211  54.118  1.00  0.00     0.316 HD
BRANCH  20  22
HETATM   22  C2  UNL     1      18.170  -0.887  52.748  1.00  0.00     0.265 C 
HETATM   23  C1  UNL     1      17.838  -2.156  53.496  1.00  0.00     0.037 C 
ENDBRANCH  20  22
ENDBRANCH  19  20
ENDBRANCH   1  19
TORSDOF 5
ENDMDL
MODEL 9
REMARK VINA RESULT:      -7.0      3.224      7.552
REMARK  5 active torsions:
REMARK  status: ('A' for Active; 'I' for Inactive)
REMARK    1  A    between atoms: C2_2  and  N1_3 
REMARK    2  A    between atoms: N1_3  and  C3_4 
REMARK    3  A    between atoms: C3_4  and  C4_5 
REMARK    4  A    between atoms: C9_10  and  C10_11 
REMARK    5  A    between atoms: C13_14  and  O1_15 
ROOT
HETATM    1  C4  UNL     1      21.153   2.611  50.896  1.00  0.00     0.012 C 
HETATM    2  C5  UNL     1      20.559   1.595  51.510  1.00  0.00    -0.011 C 
HETATM    3  C6  UNL     1      21.255   1.358  52.742  1.00  0.00     0.055 C 
HETATM    4  C7  UNL     1      21.824   0.036  52.938  1.00  0.00    -0.022 C 
HETATM    5  C8  UNL     1      23.154   0.121  52.995  1.00  0.00     0.008 C 
HETATM    6  C9  UNL     1      24.081   1.215  52.870  1.00  0.00    -0.030 C 
HETATM    7  C17 UNL     1      24.180   2.510  52.618  1.00  0.00    -0.007 C 
HETATM    8  C18 UNL     1      23.386   3.704  52.278  1.00  0.00     0.111 C 
HETATM    9  C19 UNL     1      22.295   3.395  51.294  1.00  0.00     0.160 C 
HETATM   10  O2  UNL     1      22.445   4.244  50.326  1.00  0.00    -0.292 OA
ENDROOT
BRANCH   6  11
HETATM   11  C10 UNL     1      25.451   0.701  53.171  1.00  0.00    -0.026 A 
HETATM   12  C11 UNL     1      26.210  -0.171  52.379  1.00  0.00     0.015 A 
HETATM   13  C12 UNL     1      27.407  -0.711  52.735  1.00  0.00     0.037 A 
HETATM   14  C13 UNL     1      27.990  -0.415  53.979  1.00  0.00     0.068 A 
HETATM   15  C15 UNL     1      27.297   0.424  54.787  1.00  0.00     0.037 A 
HETATM   16  C16 UNL     1      26.102   0.931  54.374  1.00  0.00     0.015 A 
BRANCH  14  17
HETATM   17  O1  UNL     1      29.188  -1.069  54.122  1.00  0.00    -0.356 OA
HETATM   18  C14 UNL     1      29.565  -2.149  53.340  1.00  0.00     0.210 C 
ENDBRANCH  14  17
ENDBRANCH   6  11
BRANCH   1  19
HETATM   19  C3  UNL     1      20.472   2.919  49.591  1.00  0.00     0.311 C 
BRANCH  19  20
HETATM   20  N1  UNL     1      20.412   1.653  48.804  1.00  0.00     0.087 N 
HETATM   21  H6  UNL     1      19.728   1.912  48.036  1.00  0.00     0.316 HD
BRANCH  20  22
HETATM   22  C2  UNL     1      21.742   1.500  48.184  1.00  0.00     0.265 C 
HETATM   23  C1  UNL     1      22.067   2.682  47.304  1.00  0.00     0.037 C 
ENDBRANCH  20  22
ENDBRANCH  19  20
ENDBRANCH   1  19
TORSDOF 5
ENDMDL
