MODEL 1
REMARK VINA RESULT:      -6.8      0.000      0.000
REMARK  11 active torsions:
REMARK  status: ('A' for Active; 'I' for Inactive)
REMARK    1  A    between atoms: C2_2  and  C3_3 
REMARK    2  A    between atoms: C3_3  and  C4_4 
REMARK    3  A    between atoms: C4_4  and  C5_5 
REMARK    4  A    between atoms: C5_5  and  C6_6 
REMARK    5  A    between atoms: C6_6  and  C7_7 
REMARK    6  A    between atoms: C7_7  and  N1_8 
REMARK       I    between atoms: N1_8  and  C8_9 
REMARK    7  A    between atoms: C8_9  and  C9_11 
REMARK    8  A    between atoms: C9_11  and  O2_12 
REMARK    9  A    between atoms: O2_12  and  C10_13 
REMARK   10  A    between atoms: C12_15  and  O3_16 
REMARK   11  A    between atoms: C16_21  and  C17_22 
ROOT
HETATM    1  C10 UNL     1      20.825   0.388  52.127  1.00  0.00     0.074 A 
HETATM    2  C11 UNL     1      20.026   1.454  52.550  1.00  0.00     0.074 A 
HETATM    3  C12 UNL     1      19.838   2.542  51.731  1.00  0.00     0.086 A 
HETATM    4  C13 UNL     1      20.422   2.616  50.486  1.00  0.00     0.098 A 
HETATM    5  C14 UNL     1      21.212   1.589  50.038  1.00  0.00     0.093 A 
HETATM    6  C15 UNL     1      21.411   0.479  50.857  1.00  0.00     0.074 A 
HETATM    7  O4  UNL     1      21.746   1.760  48.787  1.00  0.00    -0.320 OA
HETATM    8  C16 UNL     1      21.936   3.004  48.139  1.00  0.00     0.264 C 
HETATM    9  N2  UNL     1      20.794   3.831  48.411  1.00  0.00    -0.326 N 
HETATM   10  C23 UNL     1      20.161   3.818  49.688  1.00  0.00     0.259 C 
HETATM   11  O5  UNL     1      19.438   4.752  50.104  1.00  0.00    -0.267 OA
HETATM   12  H28 UNL     1      20.396   4.471  47.660  1.00  0.00     0.165 HD
ENDROOT
BRANCH   1  13
HETATM   13  O2  UNL     1      21.194  -0.812  52.707  1.00  0.00    -0.342 OA
BRANCH  13  14
HETATM   14  C9  UNL     1      21.401  -0.912  54.077  1.00  0.00     0.278 C 
BRANCH  14  15
HETATM   15  C8  UNL     1      22.801  -0.951  54.512  1.00  0.00     0.241 C 
HETATM   16  N1  UNL     1      24.015  -0.598  53.880  1.00  0.00    -0.359 N 
HETATM   17  H16 UNL     1      23.874  -0.230  52.921  1.00  0.00     0.162 HD
HETATM   18  O1  UNL     1      22.873  -1.398  55.703  1.00  0.00    -0.271 OA
BRANCH  16  19
HETATM   19  C7  UNL     1      25.315  -0.719  54.501  1.00  0.00     0.122 C 
BRANCH  19  20
HETATM   20  C6  UNL     1      26.254   0.410  54.120  1.00  0.00     0.020 C 
BRANCH  20  21
HETATM   21  C5  UNL     1      25.689   1.221  52.967  1.00  0.00     0.002 C 
BRANCH  21  22
HETATM   22  C4  UNL     1      25.252   2.575  53.369  1.00  0.00     0.000 C 
BRANCH  22  23
HETATM   23  C3  UNL     1      23.928   3.061  52.930  1.00  0.00    -0.000 C 
BRANCH  23  24
HETATM   24  C2  UNL     1      23.713   4.527  52.858  1.00  0.00    -0.005 C 
HETATM   25  C1  UNL     1      22.497   5.044  52.184  1.00  0.00     0.005 C 
ENDBRANCH  23  24
ENDBRANCH  22  23
ENDBRANCH  21  22
ENDBRANCH  20  21
ENDBRANCH  19  20
ENDBRANCH  16  19
ENDBRANCH  14  15
ENDBRANCH  13  14
ENDBRANCH   1  13
BRANCH   3  26
HETATM   26  O3  UNL     1      19.032   3.511  52.274  1.00  0.00    -0.359 OA
HETATM   27  H20 UNL     1      18.361   3.264  52.983  1.00  0.00     0.217 HD
ENDBRANCH   3  26
BRANCH   8  28
HETATM   28  C17 UNL     1      23.217   3.579  48.659  1.00  0.00    -0.010 A 
HETATM   29  C18 UNL     1      24.238   2.868  49.250  1.00  0.00     0.011 A 
HETATM   30  C19 UNL     1      25.377   3.515  49.693  1.00  0.00     0.001 A 
HETATM   31  C20 UNL     1      25.515   4.886  49.551  1.00  0.00     0.000 A 
HETATM   32  C21 UNL     1      24.469   5.561  48.954  1.00  0.00     0.001 A 
HETATM   33  C22 UNL     1      23.318   4.963  48.499  1.00  0.00     0.011 A 
ENDBRANCH   8  28
TORSDOF 11
ENDMDL
MODEL 2
REMARK VINA RESULT:      -6.4      2.510      4.899
REMARK  11 active torsions:
REMARK  status: ('A' for Active; 'I' for Inactive)
REMARK    1  A    between atoms: C2_2  and  C3_3 
REMARK    2  A    between atoms: C3_3  and  C4_4 
REMARK    3  A    between atoms: C4_4  and  C5_5 
REMARK    4  A    between atoms: C5_5  and  C6_6 
REMARK    5  A    between atoms: C6_6  and  C7_7 
REMARK    6  A    between atoms: C7_7  and  N1_8 
REMARK       I    between atoms: N1_8  and  C8_9 
REMARK    7  A    between atoms: C8_9  and  C9_11 
REMARK    8  A    between atoms: C9_11  and  O2_12 
REMARK    9  A    between atoms: O2_12  and  C10_13 
REMARK   10  A    between atoms: C12_15  and  O3_16 
REMARK   11  A    between atoms: C16_21  and  C17_22 
ROOT
HETATM    1  C10 UNL     1      26.219   1.479  51.574  1.00  0.00     0.074 A 
HETATM    2  C11 UNL     1      26.639   2.625  50.892  1.00  0.00     0.074 A 
HETATM    3  C12 UNL     1      25.814   3.721  50.812  1.00  0.00     0.086 A 
HETATM    4  C13 UNL     1      24.565   3.727  51.391  1.00  0.00     0.098 A 
HETATM    5  C14 UNL     1      24.119   2.621  52.068  1.00  0.00     0.093 A 
HETATM    6  C15 UNL     1      24.945   1.502  52.158  1.00  0.00     0.074 A 
HETATM    7  O4  UNL     1      22.864   2.728  52.608  1.00  0.00    -0.320 OA
HETATM    8  C16 UNL     1      21.858   3.625  52.175  1.00  0.00     0.264 C 
HETATM    9  N2  UNL     1      22.480   4.884  51.874  1.00  0.00    -0.326 N 
HETATM   10  C23 UNL     1      23.760   4.944  51.251  1.00  0.00     0.259 C 
HETATM   11  O5  UNL     1      24.174   5.951  50.631  1.00  0.00    -0.267 OA
HETATM   12  H28 UNL     1      21.994   5.800  52.113  1.00  0.00     0.165 HD
ENDROOT
BRANCH   1  13
HETATM   13  O2  UNL     1      26.805   0.252  51.821  1.00  0.00    -0.342 OA
BRANCH  13  14
HETATM   14  C9  UNL     1      27.538   0.028  52.979  1.00  0.00     0.278 C 
BRANCH  14  15
HETATM   15  C8  UNL     1      26.762  -0.336  54.169  1.00  0.00     0.241 C 
HETATM   16  N1  UNL     1      25.448  -0.828  54.348  1.00  0.00    -0.359 N 
HETATM   17  H16 UNL     1      24.947  -0.964  53.451  1.00  0.00     0.162 HD
HETATM   18  O1  UNL     1      27.462  -0.153  55.217  1.00  0.00    -0.271 OA
BRANCH  16  19
HETATM   19  C7  UNL     1      24.865  -1.126  55.636  1.00  0.00     0.122 C 
BRANCH  19  20
HETATM   20  C6  UNL     1      23.391  -1.477  55.546  1.00  0.00     0.020 C 
BRANCH  20  21
HETATM   21  C5  UNL     1      22.730  -0.751  54.388  1.00  0.00     0.002 C 
BRANCH  21  22
HETATM   22  C4  UNL     1      21.304  -0.446  54.632  1.00  0.00     0.000 C 
BRANCH  22  23
HETATM   23  C3  UNL     1      20.589   0.441  53.694  1.00  0.00    -0.000 C 
BRANCH  23  24
HETATM   24  C2  UNL     1      20.028  -0.158  52.459  1.00  0.00    -0.005 C 
HETATM   25  C1  UNL     1      18.554  -0.222  52.294  1.00  0.00     0.005 C 
ENDBRANCH  23  24
ENDBRANCH  22  23
ENDBRANCH  21  22
ENDBRANCH  20  21
ENDBRANCH  19  20
ENDBRANCH  16  19
ENDBRANCH  14  15
ENDBRANCH  13  14
ENDBRANCH   1  13
BRANCH   3  26
HETATM   26  O3  UNL     1      26.356   4.772  50.114  1.00  0.00    -0.359 OA
HETATM   27  H20 UNL     1      27.076   4.600  49.432  1.00  0.00     0.217 HD
ENDBRANCH   3  26
BRANCH   8  28
HETATM   28  C17 UNL     1      21.190   2.999  50.991  1.00  0.00    -0.010 A 
HETATM   29  C18 UNL     1      21.735   2.031  50.176  1.00  0.00     0.011 A 
HETATM   30  C19 UNL     1      21.016   1.529  49.107  1.00  0.00     0.001 A 
HETATM   31  C20 UNL     1      19.738   1.987  48.834  1.00  0.00     0.000 A 
HETATM   32  C21 UNL     1      19.229   2.958  49.673  1.00  0.00     0.001 A 
HETATM   33  C22 UNL     1      19.904   3.487  50.747  1.00  0.00     0.011 A 
ENDBRANCH   8  28
TORSDOF 11
ENDMDL
MODEL 3
REMARK VINA RESULT:      -6.4      4.849      8.539
REMARK  11 active torsions:
REMARK  status: ('A' for Active; 'I' for Inactive)
REMARK    1  A    between atoms: C2_2  and  C3_3 
REMARK    2  A    between atoms: C3_3  and  C4_4 
REMARK    3  A    between atoms: C4_4  and  C5_5 
REMARK    4  A    between atoms: C5_5  and  C6_6 
REMARK    5  A    between atoms: C6_6  and  C7_7 
REMARK    6  A    between atoms: C7_7  and  N1_8 
REMARK       I    between atoms: N1_8  and  C8_9 
REMARK    7  A    between atoms: C8_9  and  C9_11 
REMARK    8  A    between atoms: C9_11  and  O2_12 
REMARK    9  A    between atoms: O2_12  and  C10_13 
REMARK   10  A    between atoms: C12_15  and  O3_16 
REMARK   11  A    between atoms: C16_21  and  C17_22 
ROOT
HETATM    1  C10 UNL     1      26.084   3.276  49.811  1.00  0.00     0.074 A 
HETATM    2  C11 UNL     1      24.765   2.811  49.772  1.00  0.00     0.074 A 
HETATM    3  C12 UNL     1      24.237   2.147  50.852  1.00  0.00     0.086 A 
HETATM    4  C13 UNL     1      24.976   1.921  51.992  1.00  0.00     0.098 A 
HETATM    5  C14 UNL     1      26.272   2.363  52.067  1.00  0.00     0.093 A 
HETATM    6  C15 UNL     1      26.822   3.038  50.978  1.00  0.00     0.074 A 
HETATM    7  O4  UNL     1      26.920   2.088  53.242  1.00  0.00    -0.320 OA
HETATM    8  C16 UNL     1      26.574   1.059  54.149  1.00  0.00     0.264 C 
HETATM    9  N2  UNL     1      25.142   1.004  54.240  1.00  0.00    -0.326 N 
HETATM   10  C23 UNL     1      24.322   1.203  53.091  1.00  0.00     0.259 C 
HETATM   11  O5  UNL     1      23.138   0.803  53.016  1.00  0.00    -0.267 OA
HETATM   12  H28 UNL     1      24.663   0.813  55.171  1.00  0.00     0.165 HD
ENDROOT
BRANCH   1  13
HETATM   13  O2  UNL     1      26.877   3.960  48.909  1.00  0.00    -0.342 OA
BRANCH  13  14
HETATM   14  C9  UNL     1      26.810   5.343  48.799  1.00  0.00     0.278 C 
BRANCH  14  15
HETATM   15  C8  UNL     1      28.064   6.020  48.451  1.00  0.00     0.241 C 
HETATM   16  N1  UNL     1      29.412   5.792  48.810  1.00  0.00    -0.359 N 
HETATM   17  H16 UNL     1      29.526   4.974  49.436  1.00  0.00     0.162 HD
HETATM   18  O1  UNL     1      27.827   6.996  47.668  1.00  0.00    -0.271 OA
BRANCH  16  19
HETATM   19  C7  UNL     1      30.519   6.597  48.346  1.00  0.00     0.122 C 
BRANCH  19  20
HETATM   20  C6  UNL     1      31.409   5.860  47.361  1.00  0.00     0.020 C 
BRANCH  20  21
HETATM   21  C5  UNL     1      32.835   5.774  47.877  1.00  0.00     0.002 C 
BRANCH  21  22
HETATM   22  C4  UNL     1      33.692   4.883  47.066  1.00  0.00     0.000 C 
BRANCH  22  23
HETATM   23  C3  UNL     1      34.173   3.618  47.656  1.00  0.00    -0.000 C 
BRANCH  23  24
HETATM   24  C2  UNL     1      33.217   2.489  47.758  1.00  0.00    -0.005 C 
HETATM   25  C1  UNL     1      32.259   2.255  46.649  1.00  0.00     0.005 C 
ENDBRANCH  23  24
ENDBRANCH  22  23
ENDBRANCH  21  22
ENDBRANCH  20  21
ENDBRANCH  19  20
ENDBRANCH  16  19
ENDBRANCH  14  15
ENDBRANCH  13  14
ENDBRANCH   1  13
BRANCH   3  26
HETATM   26  O3  UNL     1      22.935   1.748  50.675  1.00  0.00    -0.359 OA
HETATM   27  H20 UNL     1      22.379   1.491  51.474  1.00  0.00     0.217 HD
ENDBRANCH   3  26
BRANCH   8  28
HETATM   28  C17 UNL     1      27.181  -0.207  53.631  1.00  0.00    -0.010 A 
HETATM   29  C18 UNL     1      26.504  -1.227  52.998  1.00  0.00     0.011 A 
HETATM   30  C19 UNL     1      27.179  -2.352  52.564  1.00  0.00     0.001 A 
HETATM   31  C20 UNL     1      28.545  -2.478  52.754  1.00  0.00     0.000 A 
HETATM   32  C21 UNL     1      29.186  -1.435  53.393  1.00  0.00     0.001 A 
HETATM   33  C22 UNL     1      28.559  -0.298  53.843  1.00  0.00     0.011 A 
ENDBRANCH   8  28
TORSDOF 11
ENDMDL
MODEL 4
REMARK VINA RESULT:      -6.3      5.496      7.884
REMARK  11 active torsions:
REMARK  status: ('A' for Active; 'I' for Inactive)
REMARK    1  A    between atoms: C2_2  and  C3_3 
REMARK    2  A    between atoms: C3_3  and  C4_4 
REMARK    3  A    between atoms: C4_4  and  C5_5 
REMARK    4  A    between atoms: C5_5  and  C6_6 
REMARK    5  A    between atoms: C6_6  and  C7_7 
REMARK    6  A    between atoms: C7_7  and  N1_8 
REMARK       I    between atoms: N1_8  and  C8_9 
REMARK    7  A    between atoms: C8_9  and  C9_11 
REMARK    8  A    between atoms: C9_11  and  O2_12 
REMARK    9  A    between atoms: O2_12  and  C10_13 
REMARK   10  A    between atoms: C12_15  and  O3_16 
REMARK   11  A    between atoms: C16_21  and  C17_22 
ROOT
HETATM    1  C10 UNL     1      25.966   6.695  49.591  1.00  0.00     0.074 A 
HETATM    2  C11 UNL     1      26.172   7.837  50.371  1.00  0.00     0.074 A 
HETATM    3  C12 UNL     1      27.125   8.758  50.007  1.00  0.00     0.086 A 
HETATM    4  C13 UNL     1      27.897   8.589  48.879  1.00  0.00     0.098 A 
HETATM    5  C14 UNL     1      27.723   7.482  48.089  1.00  0.00     0.093 A 
HETATM    6  C15 UNL     1      26.759   6.540  48.446  1.00  0.00     0.074 A 
HETATM    7  O4  UNL     1      28.539   7.408  46.991  1.00  0.00    -0.320 OA
HETATM    8  C16 UNL     1      29.780   8.073  46.845  1.00  0.00     0.264 C 
HETATM    9  N2  UNL     1      29.650   9.393  47.395  1.00  0.00    -0.326 N 
HETATM   10  C23 UNL     1      28.886   9.628  48.576  1.00  0.00     0.259 C 
HETATM   11  O5  UNL     1      29.039  10.637  49.302  1.00  0.00    -0.267 OA
HETATM   12  H28 UNL     1      30.122  10.224  46.929  1.00  0.00     0.165 HD
ENDROOT
BRANCH   1  13
HETATM   13  O2  UNL     1      25.107   5.617  49.692  1.00  0.00    -0.342 OA
BRANCH  13  14
HETATM   14  C9  UNL     1      25.549   4.322  49.451  1.00  0.00     0.278 C 
BRANCH  14  15
HETATM   15  C8  UNL     1      25.635   3.446  50.624  1.00  0.00     0.241 C 
HETATM   16  N1  UNL     1      26.723   2.959  51.384  1.00  0.00    -0.359 N 
HETATM   17  H16 UNL     1      27.638   3.306  51.040  1.00  0.00     0.162 HD
HETATM   18  O1  UNL     1      24.467   3.085  50.983  1.00  0.00    -0.271 OA
BRANCH  16  19
HETATM   19  C7  UNL     1      26.585   2.085  52.526  1.00  0.00     0.122 C 
BRANCH  19  20
HETATM   20  C6  UNL     1      26.804   0.624  52.177  1.00  0.00     0.020 C 
BRANCH  20  21
HETATM   21  C5  UNL     1      25.770  -0.257  52.858  1.00  0.00     0.002 C 
BRANCH  21  22
HETATM   22  C4  UNL     1      24.589   0.495  53.333  1.00  0.00     0.000 C 
BRANCH  22  23
HETATM   23  C3  UNL     1      23.241   0.019  52.969  1.00  0.00    -0.000 C 
BRANCH  23  24
HETATM   24  C2  UNL     1      22.360  -0.478  54.054  1.00  0.00    -0.005 C 
HETATM   25  C1  UNL     1      22.961  -1.241  55.176  1.00  0.00     0.005 C 
ENDBRANCH  23  24
ENDBRANCH  22  23
ENDBRANCH  21  22
ENDBRANCH  20  21
ENDBRANCH  19  20
ENDBRANCH  16  19
ENDBRANCH  14  15
ENDBRANCH  13  14
ENDBRANCH   1  13
BRANCH   3  26
HETATM   26  O3  UNL     1      27.218   9.827  50.864  1.00  0.00    -0.359 OA
HETATM   27  H20 UNL     1      27.780   9.752  51.696  1.00  0.00     0.217 HD
ENDBRANCH   3  26
BRANCH   8  28
HETATM   28  C17 UNL     1      30.809   7.241  47.545  1.00  0.00    -0.010 A 
HETATM   29  C18 UNL     1      30.771   5.873  47.699  1.00  0.00     0.011 A 
HETATM   30  C19 UNL     1      31.785   5.215  48.370  1.00  0.00     0.001 A 
HETATM   31  C20 UNL     1      32.856   5.914  48.899  1.00  0.00     0.000 A 
HETATM   32  C21 UNL     1      32.856   7.284  48.724  1.00  0.00     0.001 A 
HETATM   33  C22 UNL     1      31.872   7.982  48.066  1.00  0.00     0.011 A 
ENDBRANCH   8  28
TORSDOF 11
ENDMDL
MODEL 5
REMARK VINA RESULT:      -6.3      5.283      7.758
REMARK  11 active torsions:
REMARK  status: ('A' for Active; 'I' for Inactive)
REMARK    1  A    between atoms: C2_2  and  C3_3 
REMARK    2  A    between atoms: C3_3  and  C4_4 
REMARK    3  A    between atoms: C4_4  and  C5_5 
REMARK    4  A    between atoms: C5_5  and  C6_6 
REMARK    5  A    between atoms: C6_6  and  C7_7 
REMARK    6  A    between atoms: C7_7  and  N1_8 
REMARK       I    between atoms: N1_8  and  C8_9 
REMARK    7  A    between atoms: C8_9  and  C9_11 
REMARK    8  A    between atoms: C9_11  and  O2_12 
REMARK    9  A    between atoms: O2_12  and  C10_13 
REMARK   10  A    between atoms: C12_15  and  O3_16 
REMARK   11  A    between atoms: C16_21  and  C17_22 
ROOT
HETATM    1  C10 UNL     1      25.658   6.288  49.572  1.00  0.00     0.074 A 
HETATM    2  C11 UNL     1      25.624   7.455  50.342  1.00  0.00     0.074 A 
HETATM    3  C12 UNL     1      26.444   8.512  50.029  1.00  0.00     0.086 A 
HETATM    4  C13 UNL     1      27.314   8.458  48.963  1.00  0.00     0.098 A 
HETATM    5  C14 UNL     1      27.375   7.331  48.185  1.00  0.00     0.093 A 
HETATM    6  C15 UNL     1      26.548   6.251  48.490  1.00  0.00     0.074 A 
HETATM    7  O4  UNL     1      28.271   7.378  47.150  1.00  0.00    -0.320 OA
HETATM    8  C16 UNL     1      29.400   8.229  47.080  1.00  0.00     0.264 C 
HETATM    9  N2  UNL     1      29.024   9.516  47.592  1.00  0.00    -0.326 N 
HETATM   10  C23 UNL     1      28.148   9.638  48.711  1.00  0.00     0.259 C 
HETATM   11  O5  UNL     1      28.087  10.664  49.426  1.00  0.00    -0.267 OA
HETATM   12  H28 UNL     1      29.393  10.408  47.145  1.00  0.00     0.165 HD
ENDROOT
BRANCH   1  13
HETATM   13  O2  UNL     1      24.974   5.089  49.633  1.00  0.00    -0.342 OA
BRANCH  13  14
HETATM   14  C9  UNL     1      25.648   3.876  49.591  1.00  0.00     0.278 C 
BRANCH  14  15
HETATM   15  C8  UNL     1      25.895   3.234  50.887  1.00  0.00     0.241 C 
HETATM   16  N1  UNL     1      25.089   3.040  52.033  1.00  0.00    -0.359 N 
HETATM   17  H16 UNL     1      24.132   3.422  51.918  1.00  0.00     0.162 HD
HETATM   18  O1  UNL     1      27.084   2.781  50.928  1.00  0.00    -0.271 OA
BRANCH  16  19
HETATM   19  C7  UNL     1      25.538   2.368  53.231  1.00  0.00     0.122 C 
BRANCH  19  20
HETATM   20  C6  UNL     1      24.876   1.017  53.430  1.00  0.00     0.020 C 
BRANCH  20  21
HETATM   21  C5  UNL     1      25.609  -0.065  52.656  1.00  0.00     0.002 C 
BRANCH  21  22
HETATM   22  C4  UNL     1      27.069  -0.056  52.888  1.00  0.00     0.000 C 
BRANCH  22  23
HETATM   23  C3  UNL     1      27.576  -0.126  54.273  1.00  0.00    -0.000 C 
BRANCH  23  24
HETATM   24  C2  UNL     1      29.045  -0.115  54.478  1.00  0.00    -0.005 C 
HETATM   25  C1  UNL     1      29.918  -0.780  53.479  1.00  0.00     0.005 C 
ENDBRANCH  23  24
ENDBRANCH  22  23
ENDBRANCH  21  22
ENDBRANCH  20  21
ENDBRANCH  19  20
ENDBRANCH  16  19
ENDBRANCH  14  15
ENDBRANCH  13  14
ENDBRANCH   1  13
BRANCH   3  26
HETATM   26  O3  UNL     1      26.305   9.589  50.869  1.00  0.00    -0.359 OA
HETATM   27  H20 UNL     1      27.054   9.832  51.497  1.00  0.00     0.217 HD
ENDBRANCH   3  26
BRANCH   8  28
HETATM   28  C17 UNL     1      30.492   7.576  47.868  1.00  0.00    -0.010 A 
HETATM   29  C18 UNL     1      31.247   8.176  48.852  1.00  0.00     0.011 A 
HETATM   30  C19 UNL     1      32.232   7.466  49.510  1.00  0.00     0.001 A 
HETATM   31  C20 UNL     1      32.482   6.140  49.197  1.00  0.00     0.000 A 
HETATM   32  C21 UNL     1      31.705   5.576  48.204  1.00  0.00     0.001 A 
HETATM   33  C22 UNL     1      30.715   6.241  47.522  1.00  0.00     0.011 A 
ENDBRANCH   8  28
TORSDOF 11
ENDMDL
MODEL 6
REMARK VINA RESULT:      -6.2      4.080      6.476
REMARK  11 active torsions:
REMARK  status: ('A' for Active; 'I' for Inactive)
REMARK    1  A    between atoms: C2_2  and  C3_3 
REMARK    2  A    between atoms: C3_3  and  C4_4 
REMARK    3  A    between atoms: C4_4  and  C5_5 
REMARK    4  A    between atoms: C5_5  and  C6_6 
REMARK    5  A    between atoms: C6_6  and  C7_7 
REMARK    6  A    between atoms: C7_7  and  N1_8 
REMARK       I    between atoms: N1_8  and  C8_9 
REMARK    7  A    between atoms: C8_9  and  C9_11 
REMARK    8  A    between atoms: C9_11  and  O2_12 
REMARK    9  A    between atoms: O2_12  and  C10_13 
REMARK   10  A    between atoms: C12_15  and  O3_16 
REMARK   11  A    between atoms: C16_21  and  C17_22 
ROOT
HETATM    1  C10 UNL     1      25.388   3.898  49.529  1.00  0.00     0.074 A 
HETATM    2  C11 UNL     1      26.772   3.989  49.350  1.00  0.00     0.074 A 
HETATM    3  C12 UNL     1      27.343   5.184  48.986  1.00  0.00     0.086 A 
HETATM    4  C13 UNL     1      26.583   6.316  48.787  1.00  0.00     0.098 A 
HETATM    5  C14 UNL     1      25.223   6.265  48.954  1.00  0.00     0.093 A 
HETATM    6  C15 UNL     1      24.630   5.060  49.324  1.00  0.00     0.074 A 
HETATM    7  O4  UNL     1      24.559   7.443  48.734  1.00  0.00    -0.320 OA
HETATM    8  C16 UNL     1      25.039   8.522  47.952  1.00  0.00     0.264 C 
HETATM    9  N2  UNL     1      26.442   8.676  48.212  1.00  0.00    -0.326 N 
HETATM   10  C23 UNL     1      27.286   7.543  48.401  1.00  0.00     0.259 C 
HETATM   11  O5  UNL     1      28.529   7.582  48.250  1.00  0.00    -0.267 OA
HETATM   12  H28 UNL     1      26.880   9.644  48.272  1.00  0.00     0.165 HD
ENDROOT
BRANCH   1  13
HETATM   13  O2  UNL     1      24.541   2.865  49.884  1.00  0.00    -0.342 OA
BRANCH  13  14
HETATM   14  C9  UNL     1      23.940   2.829  51.136  1.00  0.00     0.278 C 
BRANCH  14  15
HETATM   15  C8  UNL     1      24.851   2.788  52.284  1.00  0.00     0.241 C 
HETATM   16  N1  UNL     1      26.169   2.303  52.449  1.00  0.00    -0.359 N 
HETATM   17  H16 UNL     1      26.563   1.910  51.575  1.00  0.00     0.162 HD
HETATM   18  O1  UNL     1      24.290   3.307  53.303  1.00  0.00    -0.271 OA
BRANCH  16  19
HETATM   19  C7  UNL     1      26.901   2.360  53.694  1.00  0.00     0.122 C 
BRANCH  19  20
HETATM   20  C6  UNL     1      28.404   2.287  53.495  1.00  0.00     0.020 C 
BRANCH  20  21
HETATM   21  C5  UNL     1      29.011   1.185  54.346  1.00  0.00     0.002 C 
BRANCH  21  22
HETATM   22  C4  UNL     1      29.690   0.143  53.547  1.00  0.00     0.000 C 
BRANCH  22  23
HETATM   23  C3  UNL     1      29.019  -1.157  53.346  1.00  0.00    -0.000 C 
BRANCH  23  24
HETATM   24  C2  UNL     1      27.558  -1.154  53.085  1.00  0.00    -0.005 C 
HETATM   25  C1  UNL     1      26.960  -2.279  52.325  1.00  0.00     0.005 C 
ENDBRANCH  23  24
ENDBRANCH  22  23
ENDBRANCH  21  22
ENDBRANCH  20  21
ENDBRANCH  19  20
ENDBRANCH  16  19
ENDBRANCH  14  15
ENDBRANCH  13  14
ENDBRANCH   1  13
BRANCH   3  26
HETATM   26  O3  UNL     1      28.708   5.127  48.846  1.00  0.00    -0.359 OA
HETATM   27  H20 UNL     1      29.287   5.799  49.322  1.00  0.00     0.217 HD
ENDBRANCH   3  26
BRANCH   8  28
HETATM   28  C17 UNL     1      24.736   8.196  46.522  1.00  0.00    -0.010 A 
HETATM   29  C18 UNL     1      25.556   8.455  45.445  1.00  0.00     0.011 A 
HETATM   30  C19 UNL     1      25.163   8.107  44.167  1.00  0.00     0.001 A 
HETATM   31  C20 UNL     1      23.943   7.492  43.941  1.00  0.00     0.000 A 
HETATM   32  C21 UNL     1      23.151   7.251  45.047  1.00  0.00     0.001 A 
HETATM   33  C22 UNL     1      23.497   7.579  46.336  1.00  0.00     0.011 A 
ENDBRANCH   8  28
TORSDOF 11
ENDMDL
MODEL 7
REMARK VINA RESULT:      -6.2      4.442      7.755
REMARK  11 active torsions:
REMARK  status: ('A' for Active; 'I' for Inactive)
REMARK    1  A    between atoms: C2_2  and  C3_3 
REMARK    2  A    between atoms: C3_3  and  C4_4 
REMARK    3  A    between atoms: C4_4  and  C5_5 
REMARK    4  A    between atoms: C5_5  and  C6_6 
REMARK    5  A    between atoms: C6_6  and  C7_7 
REMARK    6  A    between atoms: C7_7  and  N1_8 
REMARK       I    between atoms: N1_8  and  C8_9 
REMARK    7  A    between atoms: C8_9  and  C9_11 
REMARK    8  A    between atoms: C9_11  and  O2_12 
REMARK    9  A    between atoms: O2_12  and  C10_13 
REMARK   10  A    between atoms: C12_15  and  O3_16 
REMARK   11  A    between atoms: C16_21  and  C17_22 
ROOT
HETATM    1  C10 UNL     1      24.075   4.053  49.239  1.00  0.00     0.074 A 
HETATM    2  C11 UNL     1      23.195   3.110  48.697  1.00  0.00     0.074 A 
HETATM    3  C12 UNL     1      22.663   2.127  49.495  1.00  0.00     0.086 A 
HETATM    4  C13 UNL     1      22.973   2.038  50.834  1.00  0.00     0.098 A 
HETATM    5  C14 UNL     1      23.831   2.945  51.400  1.00  0.00     0.093 A 
HETATM    6  C15 UNL     1      24.378   3.949  50.603  1.00  0.00     0.074 A 
HETATM    7  O4  UNL     1      24.073   2.770  52.737  1.00  0.00    -0.320 OA
HETATM    8  C16 UNL     1      23.910   1.557  53.449  1.00  0.00     0.264 C 
HETATM    9  N2  UNL     1      22.714   0.918  52.979  1.00  0.00    -0.326 N 
HETATM   10  C23 UNL     1      22.352   0.952  51.600  1.00  0.00     0.259 C 
HETATM   11  O5  UNL     1      21.569   0.127  51.076  1.00  0.00    -0.267 OA
HETATM   12  H28 UNL     1      22.071   0.406  53.654  1.00  0.00     0.165 HD
ENDROOT
BRANCH   1  13
HETATM   13  O2  UNL     1      24.756   5.133  48.708  1.00  0.00    -0.342 OA
BRANCH  13  14
HETATM   14  C9  UNL     1      25.735   5.792  49.439  1.00  0.00     0.278 C 
BRANCH  14  15
HETATM   15  C8  UNL     1      26.972   6.108  48.716  1.00  0.00     0.241 C 
HETATM   16  N1  UNL     1      28.291   5.608  48.803  1.00  0.00    -0.359 N 
HETATM   17  H16 UNL     1      28.390   4.863  49.518  1.00  0.00     0.162 HD
HETATM   18  O1  UNL     1      26.750   7.016  47.851  1.00  0.00    -0.271 OA
BRANCH  16  19
HETATM   19  C7  UNL     1      29.386   6.068  47.979  1.00  0.00     0.122 C 
BRANCH  19  20
HETATM   20  C6  UNL     1      30.744   5.789  48.598  1.00  0.00     0.020 C 
BRANCH  20  21
HETATM   21  C5  UNL     1      31.752   5.388  47.536  1.00  0.00     0.002 C 
BRANCH  21  22
HETATM   22  C4  UNL     1      31.590   3.991  47.080  1.00  0.00     0.000 C 
BRANCH  22  23
HETATM   23  C3  UNL     1      32.758   3.276  46.528  1.00  0.00    -0.000 C 
BRANCH  23  24
HETATM   24  C2  UNL     1      33.728   4.051  45.716  1.00  0.00    -0.005 C 
HETATM   25  C1  UNL     1      35.135   3.584  45.636  1.00  0.00     0.005 C 
ENDBRANCH  23  24
ENDBRANCH  22  23
ENDBRANCH  21  22
ENDBRANCH  20  21
ENDBRANCH  19  20
ENDBRANCH  16  19
ENDBRANCH  14  15
ENDBRANCH  13  14
ENDBRANCH   1  13
BRANCH   3  26
HETATM   26  O3  UNL     1      21.817   1.272  48.831  1.00  0.00    -0.359 OA
HETATM   27  H20 UNL     1      22.196   0.488  48.327  1.00  0.00     0.217 HD
ENDBRANCH   3  26
BRANCH   8  28
HETATM   28  C17 UNL     1      25.144   0.743  53.218  1.00  0.00    -0.010 A 
HETATM   29  C18 UNL     1      25.185  -0.618  53.004  1.00  0.00     0.011 A 
HETATM   30  C19 UNL     1      26.392  -1.260  52.803  1.00  0.00     0.001 A 
HETATM   31  C20 UNL     1      27.583  -0.552  52.812  1.00  0.00     0.000 A 
HETATM   32  C21 UNL     1      27.499   0.809  53.030  1.00  0.00     0.001 A 
HETATM   33  C22 UNL     1      26.324   1.491  53.235  1.00  0.00     0.011 A 
ENDBRANCH   8  28
TORSDOF 11
ENDMDL
MODEL 8
REMARK VINA RESULT:      -6.2      2.649      5.188
REMARK  11 active torsions:
REMARK  status: ('A' for Active; 'I' for Inactive)
REMARK    1  A    between atoms: C2_2  and  C3_3 
REMARK    2  A    between atoms: C3_3  and  C4_4 
REMARK    3  A    between atoms: C4_4  and  C5_5 
REMARK    4  A    between atoms: C5_5  and  C6_6 
REMARK    5  A    between atoms: C6_6  and  C7_7 
REMARK    6  A    between atoms: C7_7  and  N1_8 
REMARK       I    between atoms: N1_8  and  C8_9 
REMARK    7  A    between atoms: C8_9  and  C9_11 
REMARK    8  A    between atoms: C9_11  and  O2_12 
REMARK    9  A    between atoms: O2_12  and  C10_13 
REMARK   10  A    between atoms: C12_15  and  O3_16 
REMARK   11  A    between atoms: C16_21  and  C17_22 
ROOT
HETATM    1  C10 UNL     1      24.051  -0.260  53.701  1.00  0.00     0.074 A 
HETATM    2  C11 UNL     1      25.346  -0.390  53.187  1.00  0.00     0.074 A 
HETATM    3  C12 UNL     1      25.882   0.607  52.410  1.00  0.00     0.086 A 
HETATM    4  C13 UNL     1      25.174   1.751  52.114  1.00  0.00     0.098 A 
HETATM    5  C14 UNL     1      23.902   1.914  52.600  1.00  0.00     0.093 A 
HETATM    6  C15 UNL     1      23.345   0.910  53.391  1.00  0.00     0.074 A 
HETATM    7  O4  UNL     1      23.284   3.085  52.250  1.00  0.00    -0.320 OA
HETATM    8  C16 UNL     1      23.617   3.887  51.132  1.00  0.00     0.264 C 
HETATM    9  N2  UNL     1      25.047   3.916  51.011  1.00  0.00    -0.326 N 
HETATM   10  C23 UNL     1      25.834   2.758  51.277  1.00  0.00     0.259 C 
HETATM   11  O5  UNL     1      26.996   2.603  50.837  1.00  0.00    -0.267 OA
HETATM   12  H28 UNL     1      25.549   4.808  50.720  1.00  0.00     0.165 HD
ENDROOT
BRANCH   1  13
HETATM   13  O2  UNL     1      23.257  -1.068  54.493  1.00  0.00    -0.342 OA
BRANCH  13  14
HETATM   14  C9  UNL     1      22.074  -0.594  55.042  1.00  0.00     0.278 C 
BRANCH  14  15
HETATM   15  C8  UNL     1      20.838  -1.136  54.469  1.00  0.00     0.241 C 
HETATM   16  N1  UNL     1      19.728  -0.535  53.832  1.00  0.00    -0.359 N 
HETATM   17  H16 UNL     1      19.823   0.494  53.750  1.00  0.00     0.162 HD
HETATM   18  O1  UNL     1      20.818  -2.403  54.599  1.00  0.00    -0.271 OA
BRANCH  16  19
HETATM   19  C7  UNL     1      18.588  -1.269  53.331  1.00  0.00     0.122 C 
BRANCH  19  20
HETATM   20  C6  UNL     1      17.854  -0.532  52.226  1.00  0.00     0.020 C 
BRANCH  20  21
HETATM   21  C5  UNL     1      18.831   0.195  51.318  1.00  0.00     0.002 C 
BRANCH  21  22
HETATM   22  C4  UNL     1      18.218   0.647  50.050  1.00  0.00     0.000 C 
BRANCH  22  23
HETATM   23  C3  UNL     1      18.081   2.095  49.796  1.00  0.00    -0.000 C 
BRANCH  23  24
HETATM   24  C2  UNL     1      18.414   3.030  50.898  1.00  0.00    -0.005 C 
HETATM   25  C1  UNL     1      17.333   3.848  51.500  1.00  0.00     0.005 C 
ENDBRANCH  23  24
ENDBRANCH  22  23
ENDBRANCH  21  22
ENDBRANCH  20  21
ENDBRANCH  19  20
ENDBRANCH  16  19
ENDBRANCH  14  15
ENDBRANCH  13  14
ENDBRANCH   1  13
BRANCH   3  26
HETATM   26  O3  UNL     1      27.158   0.346  51.975  1.00  0.00    -0.359 OA
HETATM   27  H20 UNL     1      27.770   1.109  51.738  1.00  0.00     0.217 HD
ENDBRANCH   3  26
BRANCH   8  28
HETATM   28  C17 UNL     1      22.936   3.285  49.942  1.00  0.00    -0.010 A 
HETATM   29  C18 UNL     1      22.130   2.168  49.953  1.00  0.00     0.011 A 
HETATM   30  C19 UNL     1      21.557   1.706  48.784  1.00  0.00     0.001 A 
HETATM   31  C20 UNL     1      21.779   2.353  47.580  1.00  0.00     0.000 A 
HETATM   32  C21 UNL     1      22.594   3.468  47.611  1.00  0.00     0.001 A 
HETATM   33  C22 UNL     1      23.186   3.965  48.748  1.00  0.00     0.011 A 
ENDBRANCH   8  28
TORSDOF 11
ENDMDL
MODEL 9
REMARK VINA RESULT:      -6.1      2.432      6.812
REMARK  11 active torsions:
REMARK  status: ('A' for Active; 'I' for Inactive)
REMARK    1  A    between atoms: C2_2  and  C3_3 
REMARK    2  A    between atoms: C3_3  and  C4_4 
REMARK    3  A    between atoms: C4_4  and  C5_5 
REMARK    4  A    between atoms: C5_5  and  C6_6 
REMARK    5  A    between atoms: C6_6  and  C7_7 
REMARK    6  A    between atoms: C7_7  and  N1_8 
REMARK       I    between atoms: N1_8  and  C8_9 
REMARK    7  A    between atoms: C8_9  and  C9_11 
REMARK    8  A    between atoms: C9_11  and  O2_12 
REMARK    9  A    between atoms: O2_12  and  C10_13 
REMARK   10  A    between atoms: C12_15  and  O3_16 
REMARK   11  A    between atoms: C16_21  and  C17_22 
ROOT
HETATM    1  C10 UNL     1      21.741   4.763  50.949  1.00  0.00     0.074 A 
HETATM    2  C11 UNL     1      22.439   5.341  52.013  1.00  0.00     0.074 A 
HETATM    3  C12 UNL     1      23.385   4.614  52.693  1.00  0.00     0.086 A 
HETATM    4  C13 UNL     1      23.673   3.310  52.354  1.00  0.00     0.098 A 
HETATM    5  C14 UNL     1      23.009   2.709  51.316  1.00  0.00     0.093 A 
HETATM    6  C15 UNL     1      22.046   3.436  50.617  1.00  0.00     0.074 A 
HETATM    7  O4  UNL     1      23.368   1.413  51.059  1.00  0.00    -0.320 OA
HETATM    8  C16 UNL     1      23.978   0.532  51.984  1.00  0.00     0.264 C 
HETATM    9  N2  UNL     1      24.949   1.274  52.738  1.00  0.00    -0.326 N 
HETATM   10  C23 UNL     1      24.699   2.618  53.141  1.00  0.00     0.259 C 
HETATM   11  O5  UNL     1      25.303   3.173  54.088  1.00  0.00    -0.267 OA
HETATM   12  H28 UNL     1      25.878   0.833  53.009  1.00  0.00     0.165 HD
ENDROOT
BRANCH   1  13
HETATM   13  O2  UNL     1      20.758   5.225  50.094  1.00  0.00    -0.342 OA
BRANCH  13  14
HETATM   14  C9  UNL     1      21.053   5.569  48.781  1.00  0.00     0.278 C 
BRANCH  14  15
HETATM   15  C8  UNL     1      22.195   6.470  48.595  1.00  0.00     0.241 C 
HETATM   16  N1  UNL     1      22.591   7.667  49.236  1.00  0.00    -0.359 N 
HETATM   17  H16 UNL     1      21.941   7.948  49.994  1.00  0.00     0.162 HD
HETATM   18  O1  UNL     1      22.943   6.036  47.660  1.00  0.00    -0.271 OA
BRANCH  16  19
HETATM   19  C7  UNL     1      23.778   8.415  48.891  1.00  0.00     0.122 C 
BRANCH  19  20
HETATM   20  C6  UNL     1      24.762   8.519  50.041  1.00  0.00     0.020 C 
BRANCH  20  21
HETATM   21  C5  UNL     1      26.139   8.033  49.623  1.00  0.00     0.002 C 
BRANCH  21  22
HETATM   22  C4  UNL     1      26.126   6.665  49.062  1.00  0.00     0.000 C 
BRANCH  22  23
HETATM   23  C3  UNL     1      25.655   5.549  49.905  1.00  0.00    -0.000 C 
BRANCH  23  24
HETATM   24  C2  UNL     1      25.574   4.200  49.293  1.00  0.00    -0.005 C 
HETATM   25  C1  UNL     1      26.454   3.122  49.807  1.00  0.00     0.005 C 
ENDBRANCH  23  24
ENDBRANCH  22  23
ENDBRANCH  21  22
ENDBRANCH  20  21
ENDBRANCH  19  20
ENDBRANCH  16  19
ENDBRANCH  14  15
ENDBRANCH  13  14
ENDBRANCH   1  13
BRANCH   3  26
HETATM   26  O3  UNL     1      23.990   5.307  53.712  1.00  0.00    -0.359 OA
HETATM   27  H20 UNL     1      24.078   6.308  53.652  1.00  0.00     0.217 HD
ENDBRANCH   3  26
BRANCH   8  28
HETATM   28  C17 UNL     1      22.886  -0.041  52.832  1.00  0.00    -0.010 A 
HETATM   29  C18 UNL     1      21.539  -0.010  52.542  1.00  0.00     0.011 A 
HETATM   30  C19 UNL     1      20.623  -0.574  53.409  1.00  0.00     0.001 A 
HETATM   31  C20 UNL     1      21.036  -1.181  54.583  1.00  0.00     0.000 A 
HETATM   32  C21 UNL     1      22.394  -1.191  54.837  1.00  0.00     0.001 A 
HETATM   33  C22 UNL     1      23.342  -0.643  54.007  1.00  0.00     0.011 A 
ENDBRANCH   8  28
TORSDOF 11
ENDMDL
