MODEL 1
REMARK VINA RESULT:      -8.0      0.000      0.000
REMARK  7 active torsions:
REMARK  status: ('A' for Active; 'I' for Inactive)
REMARK    1  A    between atoms: C2_2  and  C3_3 
REMARK    2  A    between atoms: C7_8  and  C8_9 
REMARK    3  A    between atoms: C8_9  and  N2_10 
REMARK    4  A    between atoms: N2_10  and  N3_11 
REMARK    5  A    between atoms: C10_14  and  N5_15 
REMARK    6  A    between atoms: C15_22  and  C16_23 
REMARK    7  A    between atoms: C16_23  and  C17_24 
ROOT
HETATM    1  N3  UNL     1      24.537   0.069  53.182  1.00  0.00    -0.282 N 
HETATM    2  C9  UNL     1      25.045  -0.467  54.478  1.00  0.00     0.335 C 
HETATM    3  N4  UNL     1      26.288  -0.404  54.982  1.00  0.00    -0.237 NA
HETATM    4  C10 UNL     1      27.151   0.295  54.055  1.00  0.00     0.183 C 
HETATM    5  N6  UNL     1      27.184   1.565  53.840  1.00  0.00    -0.171 NA
HETATM    6  N7  UNL     1      28.085   2.131  52.865  1.00  0.00    -0.201 NA
HETATM    7  C11 UNL     1      26.739   2.054  52.227  1.00  0.00     0.071 A 
HETATM    8  C12 UNL     1      26.577   0.759  51.828  1.00  0.00     0.055 A 
HETATM    9  C13 UNL     1      25.372   1.096  52.578  1.00  0.00     0.087 A 
HETATM   10  C14 UNL     1      24.783   2.140  53.228  1.00  0.00     0.032 C 
HETATM   11  C15 UNL     1      25.484   2.911  52.048  1.00  0.00     0.025 C 
HETATM   12  H17 UNL     1      28.426   2.531  51.981  1.00  0.00     0.149 HD
ENDROOT
BRANCH   1  13
HETATM   13  N2  UNL     1      23.634  -0.822  53.546  1.00  0.00    -0.329 N 
HETATM   14  H13 UNL     1      23.817  -1.349  54.420  1.00  0.00     0.180 HD
BRANCH  13  15
HETATM   15  C8  UNL     1      22.262  -0.547  53.337  1.00  0.00     0.167 C 
BRANCH  15  16
HETATM   16  C7  UNL     1      22.107  -0.057  51.942  1.00  0.00     0.003 C 
HETATM   17  C6  UNL     1      21.503   1.103  51.676  1.00  0.00    -0.035 C 
HETATM   18  C3  UNL     1      21.256   1.749  50.371  1.00  0.00    -0.036 C 
HETATM   19  C5  UNL     1      20.941   2.006  52.689  1.00  0.00     0.158 C 
HETATM   20  C4  UNL     1      20.828   2.981  50.537  1.00  0.00     0.090 C 
HETATM   21  N1  UNL     1      20.754   3.251  51.931  1.00  0.00    -0.394 N 
HETATM   22  H7  UNL     1      20.591   4.193  52.387  1.00  0.00     0.159 HD
BRANCH  18  23
HETATM   23  C2  UNL     1      21.500   1.001  49.108  1.00  0.00     0.036 C 
HETATM   24  C1  UNL     1      22.211   1.843  48.071  1.00  0.00     0.010 C 
ENDBRANCH  18  23
ENDBRANCH  15  16
ENDBRANCH  13  15
ENDBRANCH   1  13
BRANCH   4  25
HETATM   25  N5  UNL     1      27.747  -0.954  53.731  1.00  0.00    -0.374 N 
HETATM   26  H15 UNL     1      28.679  -1.235  53.372  1.00  0.00     0.158 HD
HETATM   27  H16 UNL     1      27.306  -1.918  53.807  1.00  0.00     0.158 HD
ENDBRANCH   4  25
BRANCH  11  28
HETATM   28  C16 UNL     1      24.819   2.678  50.772  1.00  0.00     0.046 C 
BRANCH  28  29
HETATM   29  C17 UNL     1      25.044   3.844  49.870  1.00  0.00    -0.046 A 
HETATM   30  C18 UNL     1      25.722   4.793  49.203  1.00  0.00    -0.018 A 
HETATM   31  C19 UNL     1      24.346   4.812  49.001  1.00  0.00     0.021 A 
ENDBRANCH  28  29
ENDBRANCH  11  28
TORSDOF 7
ENDMDL
MODEL 2
REMARK VINA RESULT:      -7.9      1.254      1.471
REMARK  7 active torsions:
REMARK  status: ('A' for Active; 'I' for Inactive)
REMARK    1  A    between atoms: C2_2  and  C3_3 
REMARK    2  A    between atoms: C7_8  and  C8_9 
REMARK    3  A    between atoms: C8_9  and  N2_10 
REMARK    4  A    between atoms: N2_10  and  N3_11 
REMARK    5  A    between atoms: C10_14  and  N5_15 
REMARK    6  A    between atoms: C15_22  and  C16_23 
REMARK    7  A    between atoms: C16_23  and  C17_24 
ROOT
HETATM    1  N3  UNL     1      25.025   0.092  53.789  1.00  0.00    -0.282 N 
HETATM    2  C9  UNL     1      25.772  -0.167  55.054  1.00  0.00     0.335 C 
HETATM    3  N4  UNL     1      27.045   0.136  55.354  1.00  0.00    -0.237 NA
HETATM    4  C10 UNL     1      27.665   0.792  54.223  1.00  0.00     0.183 C 
HETATM    5  N6  UNL     1      27.476   2.008  53.838  1.00  0.00    -0.171 NA
HETATM    6  N7  UNL     1      28.147   2.531  52.672  1.00  0.00    -0.201 NA
HETATM    7  C11 UNL     1      26.757   2.180  52.259  1.00  0.00     0.071 A 
HETATM    8  C12 UNL     1      26.745   0.830  52.065  1.00  0.00     0.055 A 
HETATM    9  C13 UNL     1      25.609   1.116  52.935  1.00  0.00     0.087 A 
HETATM   10  C14 UNL     1      24.957   2.159  53.521  1.00  0.00     0.032 C 
HETATM   11  C15 UNL     1      25.374   2.826  52.157  1.00  0.00     0.025 C 
HETATM   12  H17 UNL     1      28.306   2.833  51.702  1.00  0.00     0.149 HD
ENDROOT
BRANCH   1  13
HETATM   13  N2  UNL     1      24.323  -0.844  54.400  1.00  0.00    -0.329 N 
HETATM   14  H13 UNL     1      24.689  -1.194  55.304  1.00  0.00     0.180 HD
BRANCH  13  15
HETATM   15  C8  UNL     1      22.910  -0.795  54.352  1.00  0.00     0.167 C 
BRANCH  15  16
HETATM   16  C7  UNL     1      22.521  -0.255  53.023  1.00  0.00     0.003 C 
HETATM   17  C6  UNL     1      21.243  -0.205  52.639  1.00  0.00    -0.035 C 
HETATM   18  C3  UNL     1      20.668   0.291  51.373  1.00  0.00    -0.036 C 
HETATM   19  C5  UNL     1      20.108  -0.658  53.452  1.00  0.00     0.158 C 
HETATM   20  C4  UNL     1      19.359   0.372  51.459  1.00  0.00     0.090 C 
HETATM   21  N1  UNL     1      18.962  -0.054  52.757  1.00  0.00    -0.394 N 
HETATM   22  H7  UNL     1      17.999   0.036  53.188  1.00  0.00     0.159 HD
BRANCH  18  23
HETATM   23  C2  UNL     1      21.556   0.622  50.226  1.00  0.00     0.036 C 
HETATM   24  C1  UNL     1      20.814   1.321  49.109  1.00  0.00     0.010 C 
ENDBRANCH  18  23
ENDBRANCH  15  16
ENDBRANCH  13  15
ENDBRANCH   1  13
BRANCH   4  25
HETATM   25  N5  UNL     1      28.397  -0.402  53.982  1.00  0.00    -0.374 N 
HETATM   26  H15 UNL     1      28.778  -0.853  53.129  1.00  0.00     0.158 HD
HETATM   27  H16 UNL     1      28.721  -1.116  54.700  1.00  0.00     0.158 HD
ENDBRANCH   4  25
BRANCH  11  28
HETATM   28  C16 UNL     1      24.593   2.314  51.038  1.00  0.00     0.046 C 
BRANCH  28  29
HETATM   29  C17 UNL     1      24.436   3.381  50.008  1.00  0.00    -0.046 A 
HETATM   30  C18 UNL     1      24.731   4.483  49.298  1.00  0.00    -0.018 A 
HETATM   31  C19 UNL     1      23.551   3.849  48.922  1.00  0.00     0.021 A 
ENDBRANCH  28  29
ENDBRANCH  11  28
TORSDOF 7
ENDMDL
MODEL 3
REMARK VINA RESULT:      -7.8      2.001      6.567
REMARK  7 active torsions:
REMARK  status: ('A' for Active; 'I' for Inactive)
REMARK    1  A    between atoms: C2_2  and  C3_3 
REMARK    2  A    between atoms: C7_8  and  C8_9 
REMARK    3  A    between atoms: C8_9  and  N2_10 
REMARK    4  A    between atoms: N2_10  and  N3_11 
REMARK    5  A    between atoms: C10_14  and  N5_15 
REMARK    6  A    between atoms: C15_22  and  C16_23 
REMARK    7  A    between atoms: C16_23  and  C17_24 
ROOT
HETATM    1  N3  UNL     1      24.450   3.155  51.180  1.00  0.00    -0.282 N 
HETATM    2  C9  UNL     1      24.237   4.526  50.633  1.00  0.00     0.335 C 
HETATM    3  N4  UNL     1      23.168   5.013  49.981  1.00  0.00    -0.237 NA
HETATM    4  C10 UNL     1      22.165   3.978  49.857  1.00  0.00     0.183 C 
HETATM    5  N6  UNL     1      21.388   3.541  50.787  1.00  0.00    -0.171 NA
HETATM    6  N7  UNL     1      20.441   2.482  50.530  1.00  0.00    -0.201 NA
HETATM    7  C11 UNL     1      21.615   1.866  51.215  1.00  0.00     0.071 A 
HETATM    8  C12 UNL     1      22.574   1.703  50.260  1.00  0.00     0.055 A 
HETATM    9  C13 UNL     1      23.233   2.379  51.372  1.00  0.00     0.087 A 
HETATM   10  C14 UNL     1      22.988   2.834  52.633  1.00  0.00     0.032 C 
HETATM   11  C15 UNL     1      22.096   1.537  52.630  1.00  0.00     0.025 C 
HETATM   12  H17 UNL     1      20.026   1.542  50.505  1.00  0.00     0.149 HD
ENDROOT
BRANCH   1  13
HETATM   13  N2  UNL     1      25.662   3.671  51.103  1.00  0.00    -0.329 N 
HETATM   14  H13 UNL     1      25.875   4.472  51.725  1.00  0.00     0.180 HD
BRANCH  13  15
HETATM   15  C8  UNL     1      26.770   2.815  50.896  1.00  0.00     0.167 C 
BRANCH  15  16
HETATM   16  C7  UNL     1      26.517   1.558  51.649  1.00  0.00     0.003 C 
HETATM   17  C6  UNL     1      27.224   1.245  52.737  1.00  0.00    -0.035 C 
HETATM   18  C3  UNL     1      27.120   0.057  53.607  1.00  0.00    -0.036 C 
HETATM   19  C5  UNL     1      28.295   2.073  53.305  1.00  0.00     0.158 C 
HETATM   20  C4  UNL     1      27.839   0.215  54.697  1.00  0.00     0.090 C 
HETATM   21  N1  UNL     1      28.466   1.491  54.644  1.00  0.00    -0.394 N 
HETATM   22  H7  UNL     1      28.985   1.976  55.430  1.00  0.00     0.159 HD
BRANCH  18  23
HETATM   23  C2  UNL     1      26.282  -1.101  53.195  1.00  0.00     0.036 C 
HETATM   24  C1  UNL     1      27.086  -2.166  52.481  1.00  0.00     0.010 C 
ENDBRANCH  18  23
ENDBRANCH  15  16
ENDBRANCH  13  15
ENDBRANCH   1  13
BRANCH   4  25
HETATM   25  N5  UNL     1      22.495   3.880  48.477  1.00  0.00    -0.374 N 
HETATM   26  H15 UNL     1      22.638   3.085  47.827  1.00  0.00     0.158 HD
HETATM   27  H16 UNL     1      22.667   4.678  47.797  1.00  0.00     0.158 HD
ENDBRANCH   4  25
BRANCH  11  28
HETATM   28  C16 UNL     1      22.899   0.321  52.684  1.00  0.00     0.046 C 
BRANCH  28  29
HETATM   29  C17 UNL     1      22.400  -0.559  53.778  1.00  0.00    -0.046 A 
HETATM   30  C18 UNL     1      21.534  -1.314  54.476  1.00  0.00    -0.018 A 
HETATM   31  C19 UNL     1      22.807  -1.226  55.032  1.00  0.00     0.021 A 
ENDBRANCH  28  29
ENDBRANCH  11  28
TORSDOF 7
ENDMDL
MODEL 4
REMARK VINA RESULT:      -7.7      1.861      4.070
REMARK  7 active torsions:
REMARK  status: ('A' for Active; 'I' for Inactive)
REMARK    1  A    between atoms: C2_2  and  C3_3 
REMARK    2  A    between atoms: C7_8  and  C8_9 
REMARK    3  A    between atoms: C8_9  and  N2_10 
REMARK    4  A    between atoms: N2_10  and  N3_11 
REMARK    5  A    between atoms: C10_14  and  N5_15 
REMARK    6  A    between atoms: C15_22  and  C16_23 
REMARK    7  A    between atoms: C16_23  and  C17_24 
ROOT
HETATM    1  N3  UNL     1      25.494   2.162  53.143  1.00  0.00    -0.282 N 
HETATM    2  C9  UNL     1      26.538   2.677  52.211  1.00  0.00     0.335 C 
HETATM    3  N4  UNL     1      27.834   2.335  52.131  1.00  0.00    -0.237 NA
HETATM    4  C10 UNL     1      28.132   1.331  53.129  1.00  0.00     0.183 C 
HETATM    5  N6  UNL     1      27.810   0.084  53.089  1.00  0.00    -0.171 NA
HETATM    6  N7  UNL     1      28.153  -0.808  54.170  1.00  0.00    -0.201 NA
HETATM    7  C11 UNL     1      26.718  -0.438  54.344  1.00  0.00     0.071 A 
HETATM    8  C12 UNL     1      26.708   0.799  54.916  1.00  0.00     0.055 A 
HETATM    9  C13 UNL     1      25.811   0.886  53.769  1.00  0.00     0.087 A 
HETATM   10  C14 UNL     1      25.286   0.119  52.772  1.00  0.00     0.032 C 
HETATM   11  C15 UNL     1      25.330  -0.937  53.938  1.00  0.00     0.025 C 
HETATM   12  H17 UNL     1      28.057  -1.380  55.019  1.00  0.00     0.149 HD
ENDROOT
BRANCH   1  13
HETATM   13  N2  UNL     1      24.998   3.298  52.691  1.00  0.00    -0.329 N 
HETATM   14  H13 UNL     1      25.409   3.677  51.818  1.00  0.00     0.180 HD
BRANCH  13  15
HETATM   15  C8  UNL     1      23.611   3.549  52.811  1.00  0.00     0.167 C 
BRANCH  15  16
HETATM   16  C7  UNL     1      22.890   2.429  52.152  1.00  0.00     0.003 C 
HETATM   17  C6  UNL     1      22.611   2.456  50.847  1.00  0.00    -0.035 C 
HETATM   18  C3  UNL     1      21.911   1.450  50.021  1.00  0.00    -0.036 C 
HETATM   19  C5  UNL     1      22.971   3.550  49.936  1.00  0.00     0.158 C 
HETATM   20  C4  UNL     1      22.022   1.740  48.744  1.00  0.00     0.090 C 
HETATM   21  N1  UNL     1      22.785   2.933  48.615  1.00  0.00    -0.394 N 
HETATM   22  H7  UNL     1      23.176   3.343  47.720  1.00  0.00     0.159 HD
BRANCH  18  23
HETATM   23  C2  UNL     1      21.212   0.307  50.668  1.00  0.00     0.036 C 
HETATM   24  C1  UNL     1      19.779   0.640  51.024  1.00  0.00     0.010 C 
ENDBRANCH  18  23
ENDBRANCH  15  16
ENDBRANCH  13  15
ENDBRANCH   1  13
BRANCH   4  25
HETATM   25  N5  UNL     1      28.825   2.329  53.867  1.00  0.00    -0.374 N 
HETATM   26  H15 UNL     1      29.711   2.848  53.718  1.00  0.00     0.158 HD
HETATM   27  H16 UNL     1      28.534   2.768  54.790  1.00  0.00     0.158 HD
ENDBRANCH   4  25
BRANCH  11  28
HETATM   28  C16 UNL     1      24.317  -0.673  54.953  1.00  0.00     0.046 C 
BRANCH  28  29
HETATM   29  C17 UNL     1      22.961  -0.909  54.379  1.00  0.00    -0.046 A 
HETATM   30  C18 UNL     1      21.992  -1.522  53.678  1.00  0.00    -0.018 A 
HETATM   31  C19 UNL     1      21.593  -0.355  54.321  1.00  0.00     0.021 A 
ENDBRANCH  28  29
ENDBRANCH  11  28
TORSDOF 7
ENDMDL
MODEL 5
REMARK VINA RESULT:      -7.6      1.818      3.720
REMARK  7 active torsions:
REMARK  status: ('A' for Active; 'I' for Inactive)
REMARK    1  A    between atoms: C2_2  and  C3_3 
REMARK    2  A    between atoms: C7_8  and  C8_9 
REMARK    3  A    between atoms: C8_9  and  N2_10 
REMARK    4  A    between atoms: N2_10  and  N3_11 
REMARK    5  A    between atoms: C10_14  and  N5_15 
REMARK    6  A    between atoms: C15_22  and  C16_23 
REMARK    7  A    between atoms: C16_23  and  C17_24 
ROOT
HETATM    1  N3  UNL     1      25.404   2.215  52.992  1.00  0.00    -0.282 N 
HETATM    2  C9  UNL     1      26.497   2.756  52.133  1.00  0.00     0.335 C 
HETATM    3  N4  UNL     1      27.799   2.428  52.128  1.00  0.00    -0.237 NA
HETATM    4  C10 UNL     1      28.047   1.413  53.128  1.00  0.00     0.183 C 
HETATM    5  N6  UNL     1      27.742   0.163  53.050  1.00  0.00    -0.171 NA
HETATM    6  N7  UNL     1      28.029  -0.742  54.137  1.00  0.00    -0.201 NA
HETATM    7  C11 UNL     1      26.581  -0.390  54.228  1.00  0.00     0.071 A 
HETATM    8  C12 UNL     1      26.522   0.839  54.816  1.00  0.00     0.055 A 
HETATM    9  C13 UNL     1      25.697   0.933  53.617  1.00  0.00     0.087 A 
HETATM   10  C14 UNL     1      25.243   0.176  52.579  1.00  0.00     0.032 C 
HETATM   11  C15 UNL     1      25.227  -0.897  53.730  1.00  0.00     0.025 C 
HETATM   12  H17 UNL     1      27.887  -1.328  54.970  1.00  0.00     0.149 HD
ENDROOT
BRANCH   1  13
HETATM   13  N2  UNL     1      24.924   3.353  52.527  1.00  0.00    -0.329 N 
HETATM   14  H13 UNL     1      25.372   3.741  51.676  1.00  0.00     0.180 HD
BRANCH  13  15
HETATM   15  C8  UNL     1      23.532   3.596  52.585  1.00  0.00     0.167 C 
BRANCH  15  16
HETATM   16  C7  UNL     1      22.875   2.708  51.591  1.00  0.00     0.003 C 
HETATM   17  C6  UNL     1      21.549   2.561  51.561  1.00  0.00    -0.035 C 
HETATM   18  C3  UNL     1      20.722   1.733  50.659  1.00  0.00    -0.036 C 
HETATM   19  C5  UNL     1      20.611   3.234  52.469  1.00  0.00     0.158 C 
HETATM   20  C4  UNL     1      19.448   2.020  50.804  1.00  0.00     0.090 C 
HETATM   21  N1  UNL     1      19.321   3.037  51.791  1.00  0.00    -0.394 N 
HETATM   22  H7  UNL     1      18.448   3.588  52.027  1.00  0.00     0.159 HD
BRANCH  18  23
HETATM   23  C2  UNL     1      21.365   0.743  49.753  1.00  0.00     0.036 C 
HETATM   24  C1  UNL     1      21.655   1.321  48.385  1.00  0.00     0.010 C 
ENDBRANCH  18  23
ENDBRANCH  15  16
ENDBRANCH  13  15
ENDBRANCH   1  13
BRANCH   4  25
HETATM   25  N5  UNL     1      28.683   2.406  53.922  1.00  0.00    -0.374 N 
HETATM   26  H15 UNL     1      29.507   3.020  53.781  1.00  0.00     0.158 HD
HETATM   27  H16 UNL     1      28.401   2.734  54.892  1.00  0.00     0.158 HD
ENDBRANCH   4  25
BRANCH  11  28
HETATM   28  C16 UNL     1      24.150  -0.659  54.684  1.00  0.00     0.046 C 
BRANCH  28  29
HETATM   29  C17 UNL     1      22.840  -0.675  53.973  1.00  0.00    -0.046 A 
HETATM   30  C18 UNL     1      21.940  -0.975  53.022  1.00  0.00    -0.018 A 
HETATM   31  C19 UNL     1      21.452  -0.175  54.050  1.00  0.00     0.021 A 
ENDBRANCH  28  29
ENDBRANCH  11  28
TORSDOF 7
ENDMDL
MODEL 6
REMARK VINA RESULT:      -7.2      2.235      5.262
REMARK  7 active torsions:
REMARK  status: ('A' for Active; 'I' for Inactive)
REMARK    1  A    between atoms: C2_2  and  C3_3 
REMARK    2  A    between atoms: C7_8  and  C8_9 
REMARK    3  A    between atoms: C8_9  and  N2_10 
REMARK    4  A    between atoms: N2_10  and  N3_11 
REMARK    5  A    between atoms: C10_14  and  N5_15 
REMARK    6  A    between atoms: C15_22  and  C16_23 
REMARK    7  A    between atoms: C16_23  and  C17_24 
ROOT
HETATM    1  N3  UNL     1      24.449   1.338  52.003  1.00  0.00    -0.282 N 
HETATM    2  C9  UNL     1      23.037   1.409  52.479  1.00  0.00     0.335 C 
HETATM    3  N4  UNL     1      22.415   0.630  53.378  1.00  0.00    -0.237 NA
HETATM    4  C10 UNL     1      23.337  -0.369  53.873  1.00  0.00     0.183 C 
HETATM    5  N6  UNL     1      24.297  -0.183  54.713  1.00  0.00    -0.171 NA
HETATM    6  N7  UNL     1      25.161  -1.270  55.107  1.00  0.00    -0.201 NA
HETATM    7  C11 UNL     1      25.897  -0.472  54.083  1.00  0.00     0.071 A 
HETATM    8  C12 UNL     1      25.402  -0.855  52.871  1.00  0.00     0.055 A 
HETATM    9  C13 UNL     1      25.351   0.603  52.877  1.00  0.00     0.087 A 
HETATM   10  C14 UNL     1      25.678   1.673  53.655  1.00  0.00     0.032 C 
HETATM   11  C15 UNL     1      26.870   0.706  54.003  1.00  0.00     0.025 C 
HETATM   12  H17 UNL     1      25.984  -1.885  55.147  1.00  0.00     0.149 HD
ENDROOT
BRANCH   1  13
HETATM   13  N2  UNL     1      23.827   2.049  51.081  1.00  0.00    -0.329 N 
HETATM   14  H13 UNL     1      22.978   1.631  50.656  1.00  0.00     0.180 HD
BRANCH  13  15
HETATM   15  C8  UNL     1      23.746   3.454  51.223  1.00  0.00     0.167 C 
BRANCH  15  16
HETATM   16  C7  UNL     1      24.835   4.054  50.408  1.00  0.00     0.003 C 
HETATM   17  C6  UNL     1      25.038   5.373  50.384  1.00  0.00    -0.035 C 
HETATM   18  C3  UNL     1      26.056   6.147  49.644  1.00  0.00    -0.036 C 
HETATM   19  C5  UNL     1      24.245   6.356  51.133  1.00  0.00     0.158 C 
HETATM   20  C4  UNL     1      26.070   7.398  50.046  1.00  0.00     0.090 C 
HETATM   21  N1  UNL     1      25.087   7.559  51.061  1.00  0.00    -0.394 N 
HETATM   22  H7  UNL     1      24.954   8.402  51.688  1.00  0.00     0.159 HD
BRANCH  18  23
HETATM   23  C2  UNL     1      26.891   5.484  48.606  1.00  0.00     0.036 C 
HETATM   24  C1  UNL     1      28.109   6.305  48.240  1.00  0.00     0.010 C 
ENDBRANCH  18  23
ENDBRANCH  15  16
ENDBRANCH  13  15
ENDBRANCH   1  13
BRANCH   4  25
HETATM   25  N5  UNL     1      22.639  -1.338  53.103  1.00  0.00    -0.374 N 
HETATM   26  H15 UNL     1      21.707  -1.786  53.185  1.00  0.00     0.158 HD
HETATM   27  H16 UNL     1      22.973  -1.822  52.218  1.00  0.00     0.158 HD
ENDBRANCH   4  25
BRANCH  11  28
HETATM   28  C16 UNL     1      27.814   0.583  52.899  1.00  0.00     0.046 C 
BRANCH  28  29
HETATM   29  C17 UNL     1      28.934  -0.317  53.296  1.00  0.00    -0.046 A 
HETATM   30  C18 UNL     1      30.143  -0.674  53.762  1.00  0.00    -0.018 A 
HETATM   31  C19 UNL     1      29.333  -1.737  53.374  1.00  0.00     0.021 A 
ENDBRANCH  28  29
ENDBRANCH  11  28
TORSDOF 7
ENDMDL
MODEL 7
REMARK VINA RESULT:      -7.2      3.085      5.203
REMARK  7 active torsions:
REMARK  status: ('A' for Active; 'I' for Inactive)
REMARK    1  A    between atoms: C2_2  and  C3_3 
REMARK    2  A    between atoms: C7_8  and  C8_9 
REMARK    3  A    between atoms: C8_9  and  N2_10 
REMARK    4  A    between atoms: N2_10  and  N3_11 
REMARK    5  A    between atoms: C10_14  and  N5_15 
REMARK    6  A    between atoms: C15_22  and  C16_23 
REMARK    7  A    between atoms: C16_23  and  C17_24 
ROOT
HETATM    1  N3  UNL     1      22.752   2.715  50.027  1.00  0.00    -0.282 N 
HETATM    2  C9  UNL     1      22.513   3.900  49.153  1.00  0.00     0.335 C 
HETATM    3  N4  UNL     1      22.452   5.196  49.497  1.00  0.00    -0.237 NA
HETATM    4  C10 UNL     1      22.656   5.329  50.923  1.00  0.00     0.183 C 
HETATM    5  N6  UNL     1      23.774   5.225  51.555  1.00  0.00    -0.171 NA
HETATM    6  N7  UNL     1      23.832   5.359  52.991  1.00  0.00    -0.201 NA
HETATM    7  C11 UNL     1      23.865   3.899  52.684  1.00  0.00     0.071 A 
HETATM    8  C12 UNL     1      22.576   3.533  52.430  1.00  0.00     0.055 A 
HETATM    9  C13 UNL     1      23.362   3.018  51.313  1.00  0.00     0.087 A 
HETATM   10  C14 UNL     1      24.647   2.937  50.869  1.00  0.00     0.032 C 
HETATM   11  C15 UNL     1      24.882   2.788  52.418  1.00  0.00     0.025 C 
HETATM   12  H17 UNL     1      23.882   5.101  53.985  1.00  0.00     0.149 HD
ENDROOT
BRANCH   1  13
HETATM   13  N2  UNL     1      22.216   2.212  48.930  1.00  0.00    -0.329 N 
HETATM   14  H13 UNL     1      22.834   2.122  48.103  1.00  0.00     0.180 HD
BRANCH  13  15
HETATM   15  C8  UNL     1      21.265   1.170  49.035  1.00  0.00     0.167 C 
BRANCH  15  16
HETATM   16  C7  UNL     1      21.460   0.512  50.354  1.00  0.00     0.003 C 
HETATM   17  C6  UNL     1      20.450   0.371  51.215  1.00  0.00    -0.035 C 
HETATM   18  C3  UNL     1      20.447  -0.248  52.556  1.00  0.00    -0.036 C 
HETATM   19  C5  UNL     1      19.075   0.827  50.975  1.00  0.00     0.158 C 
HETATM   20  C4  UNL     1      19.218  -0.387  53.001  1.00  0.00     0.090 C 
HETATM   21  N1  UNL     1      18.321   0.116  52.017  1.00  0.00    -0.394 N 
HETATM   22  H7  UNL     1      17.267   0.011  52.007  1.00  0.00     0.159 HD
BRANCH  18  23
HETATM   23  C2  UNL     1      21.730  -0.620  53.211  1.00  0.00     0.036 C 
HETATM   24  C1  UNL     1      21.519  -1.236  54.577  1.00  0.00     0.010 C 
ENDBRANCH  18  23
ENDBRANCH  15  16
ENDBRANCH  13  15
ENDBRANCH   1  13
BRANCH   4  25
HETATM   25  N5  UNL     1      21.269   5.613  51.054  1.00  0.00    -0.374 N 
HETATM   26  H15 UNL     1      20.731   6.378  51.503  1.00  0.00     0.158 HD
HETATM   27  H16 UNL     1      20.456   5.041  50.680  1.00  0.00     0.158 HD
ENDBRANCH   4  25
BRANCH  11  28
HETATM   28  C16 UNL     1      24.441   1.490  52.915  1.00  0.00     0.046 C 
BRANCH  28  29
HETATM   29  C17 UNL     1      25.501   0.472  52.664  1.00  0.00    -0.046 A 
HETATM   30  C18 UNL     1      26.538  -0.125  52.053  1.00  0.00    -0.018 A 
HETATM   31  C19 UNL     1      26.072  -0.786  53.185  1.00  0.00     0.021 A 
ENDBRANCH  28  29
ENDBRANCH  11  28
TORSDOF 7
ENDMDL
MODEL 8
REMARK VINA RESULT:      -6.8      2.121      4.533
REMARK  7 active torsions:
REMARK  status: ('A' for Active; 'I' for Inactive)
REMARK    1  A    between atoms: C2_2  and  C3_3 
REMARK    2  A    between atoms: C7_8  and  C8_9 
REMARK    3  A    between atoms: C8_9  and  N2_10 
REMARK    4  A    between atoms: N2_10  and  N3_11 
REMARK    5  A    between atoms: C10_14  and  N5_15 
REMARK    6  A    between atoms: C15_22  and  C16_23 
REMARK    7  A    between atoms: C16_23  and  C17_24 
ROOT
HETATM    1  N3  UNL     1      24.604   3.249  51.921  1.00  0.00    -0.282 N 
HETATM    2  C9  UNL     1      25.815   3.477  51.080  1.00  0.00     0.335 C 
HETATM    3  N4  UNL     1      26.961   2.779  51.053  1.00  0.00    -0.237 NA
HETATM    4  C10 UNL     1      26.889   1.693  52.006  1.00  0.00     0.183 C 
HETATM    5  N6  UNL     1      26.227   0.595  51.876  1.00  0.00    -0.171 NA
HETATM    6  N7  UNL     1      26.225  -0.401  52.921  1.00  0.00    -0.201 NA
HETATM    7  C11 UNL     1      24.946   0.361  53.035  1.00  0.00     0.071 A 
HETATM    8  C12 UNL     1      25.250   1.525  53.677  1.00  0.00     0.055 A 
HETATM    9  C13 UNL     1      24.499   1.912  52.488  1.00  0.00     0.087 A 
HETATM   10  C14 UNL     1      23.848   1.370  51.421  1.00  0.00     0.032 C 
HETATM   11  C15 UNL     1      23.506   0.300  52.524  1.00  0.00     0.025 C 
HETATM   12  H17 UNL     1      25.910  -0.954  53.729  1.00  0.00     0.149 HD
ENDROOT
BRANCH   1  13
HETATM   13  N2  UNL     1      24.487   4.497  51.508  1.00  0.00    -0.329 N 
HETATM   14  H13 UNL     1      24.765   4.698  50.530  1.00  0.00     0.180 HD
BRANCH  13  15
HETATM   15  C8  UNL     1      23.391   5.275  51.950  1.00  0.00     0.167 C 
BRANCH  15  16
HETATM   16  C7  UNL     1      22.191   4.397  51.968  1.00  0.00     0.003 C 
HETATM   17  C6  UNL     1      21.093   4.706  51.276  1.00  0.00    -0.035 C 
HETATM   18  C3  UNL     1      19.818   3.969  51.171  1.00  0.00    -0.036 C 
HETATM   19  C5  UNL     1      20.941   5.903  50.439  1.00  0.00     0.158 C 
HETATM   20  C4  UNL     1      19.061   4.482  50.226  1.00  0.00     0.090 C 
HETATM   21  N1  UNL     1      19.752   5.578  49.638  1.00  0.00    -0.394 N 
HETATM   22  H7  UNL     1      19.481   6.101  48.758  1.00  0.00     0.159 HD
BRANCH  18  23
HETATM   23  C2  UNL     1      19.544   2.816  52.071  1.00  0.00     0.036 C 
HETATM   24  C1  UNL     1      18.690   1.760  51.405  1.00  0.00     0.010 C 
ENDBRANCH  18  23
ENDBRANCH  15  16
ENDBRANCH  13  15
ENDBRANCH   1  13
BRANCH   4  25
HETATM   25  N5  UNL     1      27.785   2.418  52.839  1.00  0.00    -0.374 N 
HETATM   26  H15 UNL     1      27.703   3.289  53.397  1.00  0.00     0.158 HD
HETATM   27  H16 UNL     1      28.794   2.175  53.066  1.00  0.00     0.158 HD
ENDBRANCH   4  25
BRANCH  11  28
HETATM   28  C16 UNL     1      22.541   0.805  53.493  1.00  0.00     0.046 C 
BRANCH  28  29
HETATM   29  C17 UNL     1      21.573  -0.273  53.844  1.00  0.00    -0.046 A 
HETATM   30  C18 UNL     1      21.130  -1.435  54.353  1.00  0.00    -0.018 A 
HETATM   31  C19 UNL     1      20.152  -0.661  53.737  1.00  0.00     0.021 A 
ENDBRANCH  28  29
ENDBRANCH  11  28
TORSDOF 7
ENDMDL
MODEL 9
REMARK VINA RESULT:      -6.8      2.449      6.085
REMARK  7 active torsions:
REMARK  status: ('A' for Active; 'I' for Inactive)
REMARK    1  A    between atoms: C2_2  and  C3_3 
REMARK    2  A    between atoms: C7_8  and  C8_9 
REMARK    3  A    between atoms: C8_9  and  N2_10 
REMARK    4  A    between atoms: N2_10  and  N3_11 
REMARK    5  A    between atoms: C10_14  and  N5_15 
REMARK    6  A    between atoms: C15_22  and  C16_23 
REMARK    7  A    between atoms: C16_23  and  C17_24 
ROOT
HETATM    1  N3  UNL     1      25.003   2.897  52.000  1.00  0.00    -0.282 N 
HETATM    2  C9  UNL     1      23.558   3.182  52.234  1.00  0.00     0.335 C 
HETATM    3  N4  UNL     1      22.590   2.340  52.631  1.00  0.00    -0.237 NA
HETATM    4  C10 UNL     1      23.147   1.019  52.821  1.00  0.00     0.183 C 
HETATM    5  N6  UNL     1      23.880   0.624  53.805  1.00  0.00    -0.171 NA
HETATM    6  N7  UNL     1      24.391  -0.725  53.858  1.00  0.00    -0.201 NA
HETATM    7  C11 UNL     1      25.501   0.147  53.374  1.00  0.00     0.071 A 
HETATM    8  C12 UNL     1      25.264   0.367  52.049  1.00  0.00     0.055 A 
HETATM    9  C13 UNL     1      25.495   1.683  52.634  1.00  0.00     0.087 A 
HETATM   10  C14 UNL     1      25.814   2.276  53.819  1.00  0.00     0.032 C 
HETATM   11  C15 UNL     1      26.671   0.960  53.931  1.00  0.00     0.025 C 
HETATM   12  H17 UNL     1      25.043  -1.516  53.778  1.00  0.00     0.149 HD
ENDROOT
BRANCH   1  13
HETATM   13  N2  UNL     1      24.782   4.029  51.357  1.00  0.00    -0.329 N 
HETATM   14  H13 UNL     1      25.197   4.889  51.761  1.00  0.00     0.180 HD
BRANCH  13  15
HETATM   15  C8  UNL     1      24.757   4.031  49.943  1.00  0.00     0.167 C 
BRANCH  15  16
HETATM   16  C7  UNL     1      25.211   5.370  49.485  1.00  0.00     0.003 C 
HETATM   17  C6  UNL     1      26.464   5.574  49.070  1.00  0.00    -0.035 C 
HETATM   18  C3  UNL     1      27.095   6.818  48.584  1.00  0.00    -0.036 C 
HETATM   19  C5  UNL     1      27.506   4.541  49.014  1.00  0.00     0.158 C 
HETATM   20  C4  UNL     1      28.277   6.567  48.068  1.00  0.00     0.090 C 
HETATM   21  N1  UNL     1      28.527   5.170  48.165  1.00  0.00    -0.394 N 
HETATM   22  H7  UNL     1      29.318   4.633  47.708  1.00  0.00     0.159 HD
BRANCH  18  23
HETATM   23  C2  UNL     1      26.384   8.119  48.718  1.00  0.00     0.036 C 
HETATM   24  C1  UNL     1      26.640   8.777  50.056  1.00  0.00     0.010 C 
ENDBRANCH  18  23
ENDBRANCH  15  16
ENDBRANCH  13  15
ENDBRANCH   1  13
BRANCH   4  25
HETATM   25  N5  UNL     1      22.492   0.615  51.625  1.00  0.00    -0.374 N 
HETATM   26  H15 UNL     1      21.549   0.784  51.230  1.00  0.00     0.158 HD
HETATM   27  H16 UNL     1      22.889   0.013  50.845  1.00  0.00     0.158 HD
ENDBRANCH   4  25
BRANCH  11  28
HETATM   28  C16 UNL     1      27.821   0.979  53.036  1.00  0.00     0.046 C 
BRANCH  28  29
HETATM   29  C17 UNL     1      28.645  -0.244  53.256  1.00  0.00    -0.046 A 
HETATM   30  C18 UNL     1      28.959  -1.550  53.277  1.00  0.00    -0.018 A 
HETATM   31  C19 UNL     1      29.970  -0.703  53.719  1.00  0.00     0.021 A 
ENDBRANCH  28  29
ENDBRANCH  11  28
TORSDOF 7
ENDMDL
