MODEL 1
REMARK VINA RESULT:      -7.4      0.000      0.000
REMARK  5 active torsions:
REMARK  status: ('A' for Active; 'I' for Inactive)
REMARK    1  A    between atoms: O1_2  and  C2_3 
REMARK    2  A    between atoms: C4_5  and  O2_6 
REMARK    3  A    between atoms: O2_6  and  C5_7 
REMARK    4  A    between atoms: C8_10  and  N1_11 
REMARK       I    between atoms: N1_11  and  C9_12 
REMARK    5  A    between atoms: C15_21  and  O4_23 
ROOT
HETATM    1  C2  UNL     1      26.945   1.430  52.734  1.00  0.00     0.101 C 
HETATM    2  C3  UNL     1      25.690   1.147  52.497  1.00  0.00     0.048 C 
HETATM    3  C4  UNL     1      24.566   0.311  52.810  1.00  0.00     0.194 C 
HETATM    4  C13 UNL     1      24.568  -0.495  54.015  1.00  0.00     0.127 C 
HETATM    5  N2  UNL     1      25.251  -0.740  55.081  1.00  0.00    -0.256 NA
HETATM    6  C14 UNL     1      26.503  -0.172  55.516  1.00  0.00     0.230 C 
HETATM    7  N3  UNL     1      27.483   0.421  54.922  1.00  0.00    -0.238 NA
HETATM    8  C15 UNL     1      27.911   0.842  53.638  1.00  0.00     0.201 C 
HETATM    9  C16 UNL     1      28.990   1.909  53.874  1.00  0.00     0.081 C 
ENDROOT
BRANCH   3  10
HETATM   10  O2  UNL     1      23.299   0.989  52.800  1.00  0.00    -0.341 OA
BRANCH  10  11
HETATM   11  C5  UNL     1      22.347   0.839  51.833  1.00  0.00     0.048 C 
HETATM   12  C6  UNL     1      22.594   1.451  50.673  1.00  0.00     0.012 C 
HETATM   13  C7  UNL     1      21.733   1.451  49.462  1.00  0.00     0.086 C 
HETATM   14  C8  UNL     1      20.359   1.108  49.917  1.00  0.00     0.012 C 
HETATM   15  C11 UNL     1      20.110   0.488  51.060  1.00  0.00     0.005 C 
HETATM   16  C12 UNL     1      21.106   0.030  52.073  1.00  0.00     0.093 C 
BRANCH  14  17
HETATM   17  N1  UNL     1      19.272   1.472  49.070  1.00  0.00    -0.331 N 
HETATM   18  C9  UNL     1      18.655   2.760  49.160  1.00  0.00     0.217 C 
HETATM   19  C10 UNL     1      17.517   3.110  48.256  1.00  0.00     0.117 C 
HETATM   20  O3  UNL     1      19.042   3.641  49.993  1.00  0.00    -0.274 OA
HETATM   21  H9  UNL     1      18.885   0.802  48.348  1.00  0.00     0.168 HD
ENDBRANCH  14  17
ENDBRANCH  10  11
ENDBRANCH   3  10
BRANCH   1  22
HETATM   22  O1  UNL     1      27.441   2.499  51.966  1.00  0.00    -0.355 OA
HETATM   23  C1  UNL     1      26.705   2.954  50.848  1.00  0.00     0.209 C 
ENDBRANCH   1  22
BRANCH   8  24
HETATM   24  O4  UNL     1      28.487  -0.288  53.026  1.00  0.00    -0.358 OA
HETATM   25  C17 UNL     1      29.715  -0.607  53.579  1.00  0.00     0.205 C 
ENDBRANCH   8  24
TORSDOF 5
ENDMDL
MODEL 2
REMARK VINA RESULT:      -7.3      2.590      2.932
REMARK  5 active torsions:
REMARK  status: ('A' for Active; 'I' for Inactive)
REMARK    1  A    between atoms: O1_2  and  C2_3 
REMARK    2  A    between atoms: C4_5  and  O2_6 
REMARK    3  A    between atoms: O2_6  and  C5_7 
REMARK    4  A    between atoms: C8_10  and  N1_11 
REMARK       I    between atoms: N1_11  and  C9_12 
REMARK    5  A    between atoms: C15_21  and  O4_23 
ROOT
HETATM    1  C2  UNL     1      27.005   1.447  52.565  1.00  0.00     0.101 C 
HETATM    2  C3  UNL     1      25.802   1.048  52.242  1.00  0.00     0.048 C 
HETATM    3  C4  UNL     1      24.727   0.134  52.508  1.00  0.00     0.194 C 
HETATM    4  C13 UNL     1      24.689  -0.607  53.753  1.00  0.00     0.127 C 
HETATM    5  N2  UNL     1      25.295  -0.740  54.883  1.00  0.00    -0.256 NA
HETATM    6  C14 UNL     1      26.454  -0.047  55.387  1.00  0.00     0.230 C 
HETATM    7  N3  UNL     1      27.431   0.597  54.843  1.00  0.00    -0.238 NA
HETATM    8  C15 UNL     1      27.933   0.990  53.577  1.00  0.00     0.201 C 
HETATM    9  C16 UNL     1      28.898   2.155  53.841  1.00  0.00     0.081 C 
ENDROOT
BRANCH   3  10
HETATM   10  O2  UNL     1      23.415   0.701  52.355  1.00  0.00    -0.341 OA
BRANCH  10  11
HETATM   11  C5  UNL     1      23.166   1.984  51.960  1.00  0.00     0.048 C 
HETATM   12  C6  UNL     1      22.799   2.139  50.687  1.00  0.00     0.012 C 
HETATM   13  C7  UNL     1      22.470   3.416  50.001  1.00  0.00     0.086 C 
HETATM   14  C8  UNL     1      23.105   4.501  50.796  1.00  0.00     0.012 C 
HETATM   15  C11 UNL     1      23.458   4.356  52.064  1.00  0.00     0.005 C 
HETATM   16  C12 UNL     1      23.299   3.138  52.910  1.00  0.00     0.093 C 
BRANCH  14  17
HETATM   17  N1  UNL     1      23.336   5.749  50.146  1.00  0.00    -0.331 N 
HETATM   18  C9  UNL     1      22.387   6.816  50.223  1.00  0.00     0.217 C 
HETATM   19  C10 UNL     1      22.660   8.112  49.530  1.00  0.00     0.117 C 
HETATM   20  O3  UNL     1      21.297   6.709  50.871  1.00  0.00    -0.274 OA
HETATM   21  H9  UNL     1      24.216   5.925  49.584  1.00  0.00     0.168 HD
ENDBRANCH  14  17
ENDBRANCH  10  11
ENDBRANCH   3  10
BRANCH   1  22
HETATM   22  O1  UNL     1      27.478   2.517  51.782  1.00  0.00    -0.355 OA
HETATM   23  C1  UNL     1      26.682   3.008  50.721  1.00  0.00     0.209 C 
ENDBRANCH   1  22
BRANCH   8  24
HETATM   24  O4  UNL     1      28.650  -0.116  53.079  1.00  0.00    -0.358 OA
HETATM   25  C17 UNL     1      29.834  -0.317  53.767  1.00  0.00     0.205 C 
ENDBRANCH   8  24
TORSDOF 5
ENDMDL
MODEL 3
REMARK VINA RESULT:      -7.2      1.898      2.255
REMARK  5 active torsions:
REMARK  status: ('A' for Active; 'I' for Inactive)
REMARK    1  A    between atoms: O1_2  and  C2_3 
REMARK    2  A    between atoms: C4_5  and  O2_6 
REMARK    3  A    between atoms: O2_6  and  C5_7 
REMARK    4  A    between atoms: C8_10  and  N1_11 
REMARK       I    between atoms: N1_11  and  C9_12 
REMARK    5  A    between atoms: C15_21  and  O4_23 
ROOT
HETATM    1  C2  UNL     1      26.461   0.660  53.096  1.00  0.00     0.101 C 
HETATM    2  C3  UNL     1      25.234   0.642  52.642  1.00  0.00     0.048 C 
HETATM    3  C4  UNL     1      23.928   0.052  52.731  1.00  0.00     0.194 C 
HETATM    4  C13 UNL     1      23.561  -0.739  53.888  1.00  0.00     0.127 C 
HETATM    5  N2  UNL     1      23.987  -1.122  55.043  1.00  0.00    -0.256 NA
HETATM    6  C14 UNL     1      25.234  -0.824  55.703  1.00  0.00     0.230 C 
HETATM    7  N3  UNL     1      26.400  -0.443  55.304  1.00  0.00    -0.238 NA
HETATM    8  C15 UNL     1      27.119  -0.115  54.126  1.00  0.00     0.201 C 
HETATM    9  C16 UNL     1      28.334   0.707  54.580  1.00  0.00     0.081 C 
ENDROOT
BRANCH   3  10
HETATM   10  O2  UNL     1      22.845   0.976  52.534  1.00  0.00    -0.341 OA
BRANCH  10  11
HETATM   11  C5  UNL     1      22.546   1.578  51.346  1.00  0.00     0.048 C 
HETATM   12  C6  UNL     1      21.799   0.862  50.503  1.00  0.00     0.012 C 
HETATM   13  C7  UNL     1      21.331   1.273  49.154  1.00  0.00     0.086 C 
HETATM   14  C8  UNL     1      22.239   2.362  48.703  1.00  0.00     0.012 C 
HETATM   15  C11 UNL     1      22.971   3.084  49.536  1.00  0.00     0.005 C 
HETATM   16  C12 UNL     1      23.032   2.960  51.022  1.00  0.00     0.093 C 
BRANCH  14  17
HETATM   17  N1  UNL     1      22.311   2.625  47.303  1.00  0.00    -0.331 N 
HETATM   18  C9  UNL     1      21.448   3.581  46.680  1.00  0.00     0.217 C 
HETATM   19  C10 UNL     1      21.549   3.835  45.210  1.00  0.00     0.117 C 
HETATM   20  O3  UNL     1      20.580   4.241  47.337  1.00  0.00    -0.274 OA
HETATM   21  H9  UNL     1      23.003   2.122  46.681  1.00  0.00     0.168 HD
ENDBRANCH  14  17
ENDBRANCH  10  11
ENDBRANCH   3  10
BRANCH   1  22
HETATM   22  O1  UNL     1      27.286   1.608  52.464  1.00  0.00    -0.355 OA
HETATM   23  C1  UNL     1      26.799   2.317  51.342  1.00  0.00     0.209 C 
ENDBRANCH   1  22
BRANCH   8  24
HETATM   24  O4  UNL     1      27.551  -1.338  53.577  1.00  0.00    -0.358 OA
HETATM   25  C17 UNL     1      28.930  -1.398  53.469  1.00  0.00     0.205 C 
ENDBRANCH   8  24
TORSDOF 5
ENDMDL
MODEL 4
REMARK VINA RESULT:      -7.1      2.949      4.366
REMARK  5 active torsions:
REMARK  status: ('A' for Active; 'I' for Inactive)
REMARK    1  A    between atoms: O1_2  and  C2_3 
REMARK    2  A    between atoms: C4_5  and  O2_6 
REMARK    3  A    between atoms: O2_6  and  C5_7 
REMARK    4  A    between atoms: C8_10  and  N1_11 
REMARK       I    between atoms: N1_11  and  C9_12 
REMARK    5  A    between atoms: C15_21  and  O4_23 
ROOT
HETATM    1  C2  UNL     1      26.258   0.446  52.921  1.00  0.00     0.101 C 
HETATM    2  C3  UNL     1      25.121   0.774  52.365  1.00  0.00     0.048 C 
HETATM    3  C4  UNL     1      23.715   0.504  52.255  1.00  0.00     0.194 C 
HETATM    4  C13 UNL     1      23.046  -0.311  53.249  1.00  0.00     0.127 C 
HETATM    5  N2  UNL     1      23.237  -0.920  54.369  1.00  0.00    -0.256 NA
HETATM    6  C14 UNL     1      24.433  -1.008  55.171  1.00  0.00     0.230 C 
HETATM    7  N3  UNL     1      25.694  -0.869  54.933  1.00  0.00    -0.238 NA
HETATM    8  C15 UNL     1      26.600  -0.582  53.882  1.00  0.00     0.201 C 
HETATM    9  C16 UNL     1      27.907  -0.132  54.553  1.00  0.00     0.081 C 
ENDROOT
BRANCH   3  10
HETATM   10  O2  UNL     1      22.896   1.675  52.100  1.00  0.00    -0.341 OA
BRANCH  10  11
HETATM   11  C5  UNL     1      23.269   2.797  51.417  1.00  0.00     0.048 C 
HETATM   12  C6  UNL     1      23.450   2.645  50.104  1.00  0.00     0.012 C 
HETATM   13  C7  UNL     1      23.853   3.694  49.131  1.00  0.00     0.086 C 
HETATM   14  C8  UNL     1      24.508   4.774  49.917  1.00  0.00     0.012 C 
HETATM   15  C11 UNL     1      24.320   4.937  51.217  1.00  0.00     0.005 C 
HETATM   16  C12 UNL     1      23.458   4.113  52.114  1.00  0.00     0.093 C 
BRANCH  14  17
HETATM   17  N1  UNL     1      25.375   5.666  49.220  1.00  0.00    -0.331 N 
HETATM   18  C9  UNL     1      26.718   5.298  48.894  1.00  0.00     0.217 C 
HETATM   19  C10 UNL     1      27.601   6.257  48.162  1.00  0.00     0.117 C 
HETATM   20  O3  UNL     1      27.205   4.163  49.205  1.00  0.00    -0.274 OA
HETATM   21  H9  UNL     1      25.053   6.630  48.922  1.00  0.00     0.168 HD
ENDBRANCH  14  17
ENDBRANCH  10  11
ENDBRANCH   3  10
BRANCH   1  22
HETATM   22  O1  UNL     1      27.343   1.240  52.506  1.00  0.00    -0.355 OA
HETATM   23  C1  UNL     1      27.096   2.480  51.874  1.00  0.00     0.209 C 
ENDBRANCH   1  22
BRANCH   8  24
HETATM   24  O4  UNL     1      26.811  -1.797  53.202  1.00  0.00    -0.358 OA
HETATM   25  C17 UNL     1      28.156  -2.108  53.101  1.00  0.00     0.205 C 
ENDBRANCH   8  24
TORSDOF 5
ENDMDL
MODEL 5
REMARK VINA RESULT:      -6.8      3.075      3.712
REMARK  5 active torsions:
REMARK  status: ('A' for Active; 'I' for Inactive)
REMARK    1  A    between atoms: O1_2  and  C2_3 
REMARK    2  A    between atoms: C4_5  and  O2_6 
REMARK    3  A    between atoms: O2_6  and  C5_7 
REMARK    4  A    between atoms: C8_10  and  N1_11 
REMARK       I    between atoms: N1_11  and  C9_12 
REMARK    5  A    between atoms: C15_21  and  O4_23 
ROOT
HETATM    1  C2  UNL     1      24.150   0.431  53.047  1.00  0.00     0.101 C 
HETATM    2  C3  UNL     1      22.883   0.113  52.997  1.00  0.00     0.048 C 
HETATM    3  C4  UNL     1      21.850  -0.783  53.436  1.00  0.00     0.194 C 
HETATM    4  C13 UNL     1      22.071  -1.651  54.575  1.00  0.00     0.127 C 
HETATM    5  N2  UNL     1      22.925  -1.926  55.502  1.00  0.00    -0.256 NA
HETATM    6  C14 UNL     1      24.213  -1.333  55.765  1.00  0.00     0.230 C 
HETATM    7  N3  UNL     1      25.065  -0.671  55.057  1.00  0.00    -0.238 NA
HETATM    8  C15 UNL     1      25.267  -0.165  53.749  1.00  0.00     0.201 C 
HETATM    9  C16 UNL     1      26.338   0.930  53.872  1.00  0.00     0.081 C 
ENDROOT
BRANCH   3  10
HETATM   10  O2  UNL     1      20.579  -0.156  53.668  1.00  0.00    -0.341 OA
BRANCH  10  11
HETATM   11  C5  UNL     1      19.419  -0.496  53.032  1.00  0.00     0.048 C 
HETATM   12  C6  UNL     1      19.171   0.148  51.890  1.00  0.00     0.012 C 
HETATM   13  C7  UNL     1      17.992  -0.028  51.004  1.00  0.00     0.086 C 
HETATM   14  C8  UNL     1      16.919  -0.633  51.838  1.00  0.00     0.012 C 
HETATM   15  C11 UNL     1      17.161  -1.285  52.964  1.00  0.00     0.005 C 
HETATM   16  C12 UNL     1      18.491  -1.533  53.595  1.00  0.00     0.093 C 
BRANCH  14  17
HETATM   17  N1  UNL     1      15.573  -0.496  51.387  1.00  0.00    -0.331 N 
HETATM   18  C9  UNL     1      14.651   0.373  52.051  1.00  0.00     0.217 C 
HETATM   19  C10 UNL     1      13.246   0.495  51.553  1.00  0.00     0.117 C 
HETATM   20  O3  UNL     1      14.980   1.064  53.069  1.00  0.00    -0.274 OA
HETATM   21  H9  UNL     1      15.214  -1.032  50.549  1.00  0.00     0.168 HD
ENDBRANCH  14  17
ENDBRANCH  10  11
ENDBRANCH   3  10
BRANCH   1  22
HETATM   22  O1  UNL     1      24.483   1.560  52.275  1.00  0.00    -0.355 OA
HETATM   23  C1  UNL     1      23.495   2.535  52.005  1.00  0.00     0.209 C 
ENDBRANCH   1  22
BRANCH   8  24
HETATM   24  O4  UNL     1      25.771  -1.237  52.987  1.00  0.00    -0.358 OA
HETATM   25  C17 UNL     1      27.155  -1.241  52.949  1.00  0.00     0.205 C 
ENDBRANCH   8  24
TORSDOF 5
ENDMDL
MODEL 6
REMARK VINA RESULT:      -6.8      1.962      8.190
REMARK  5 active torsions:
REMARK  status: ('A' for Active; 'I' for Inactive)
REMARK    1  A    between atoms: O1_2  and  C2_3 
REMARK    2  A    between atoms: C4_5  and  O2_6 
REMARK    3  A    between atoms: O2_6  and  C5_7 
REMARK    4  A    between atoms: C8_10  and  N1_11 
REMARK       I    between atoms: N1_11  and  C9_12 
REMARK    5  A    between atoms: C15_21  and  O4_23 
ROOT
HETATM    1  C2  UNL     1      20.879   2.609  49.140  1.00  0.00     0.101 C 
HETATM    2  C3  UNL     1      21.631   2.197  50.128  1.00  0.00     0.048 C 
HETATM    3  C4  UNL     1      21.913   2.269  51.534  1.00  0.00     0.194 C 
HETATM    4  C13 UNL     1      20.939   2.831  52.448  1.00  0.00     0.127 C 
HETATM    5  N2  UNL     1      19.739   3.300  52.503  1.00  0.00    -0.256 NA
HETATM    6  C14 UNL     1      18.767   3.451  51.449  1.00  0.00     0.230 C 
HETATM    7  N3  UNL     1      18.832   3.534  50.163  1.00  0.00    -0.238 NA
HETATM    8  C15 UNL     1      19.765   3.532  49.096  1.00  0.00     0.201 C 
HETATM    9  C16 UNL     1      18.968   3.191  47.828  1.00  0.00     0.081 C 
ENDROOT
BRANCH   3  10
HETATM   10  O2  UNL     1      22.322   1.023  52.122  1.00  0.00    -0.341 OA
BRANCH  10  11
HETATM   11  C5  UNL     1      23.586   0.750  52.559  1.00  0.00     0.048 C 
HETATM   12  C6  UNL     1      24.569   1.412  51.947  1.00  0.00     0.012 C 
HETATM   13  C7  UNL     1      26.025   1.306  52.224  1.00  0.00     0.086 C 
HETATM   14  C8  UNL     1      26.235   0.001  52.907  1.00  0.00     0.012 C 
HETATM   15  C11 UNL     1      25.265  -0.652  53.529  1.00  0.00     0.005 C 
HETATM   16  C12 UNL     1      23.839  -0.235  53.663  1.00  0.00     0.093 C 
BRANCH  14  17
HETATM   17  N1  UNL     1      27.547  -0.556  52.882  1.00  0.00    -0.331 N 
HETATM   18  C9  UNL     1      28.521  -0.212  53.872  1.00  0.00     0.217 C 
HETATM   19  C10 UNL     1      29.888  -0.814  53.817  1.00  0.00     0.117 C 
HETATM   20  O3  UNL     1      28.269   0.601  54.819  1.00  0.00    -0.274 OA
HETATM   21  H9  UNL     1      27.843  -1.240  52.131  1.00  0.00     0.168 HD
ENDBRANCH  14  17
ENDBRANCH  10  11
ENDBRANCH   3  10
BRANCH   1  22
HETATM   22  O1  UNL     1      21.222   2.049  47.895  1.00  0.00    -0.355 OA
HETATM   23  C1  UNL     1      22.556   2.135  47.437  1.00  0.00     0.209 C 
ENDBRANCH   1  22
BRANCH   8  24
HETATM   24  O4  UNL     1      20.261   4.848  49.005  1.00  0.00    -0.358 OA
HETATM   25  C17 UNL     1      20.118   5.367  47.730  1.00  0.00     0.205 C 
ENDBRANCH   8  24
TORSDOF 5
ENDMDL
MODEL 7
REMARK VINA RESULT:      -6.7      2.501      3.988
REMARK  5 active torsions:
REMARK  status: ('A' for Active; 'I' for Inactive)
REMARK    1  A    between atoms: O1_2  and  C2_3 
REMARK    2  A    between atoms: C4_5  and  O2_6 
REMARK    3  A    between atoms: O2_6  and  C5_7 
REMARK    4  A    between atoms: C8_10  and  N1_11 
REMARK       I    between atoms: N1_11  and  C9_12 
REMARK    5  A    between atoms: C15_21  and  O4_23 
ROOT
HETATM    1  C2  UNL     1      24.553   0.650  52.694  1.00  0.00     0.101 C 
HETATM    2  C3  UNL     1      23.727   1.591  52.319  1.00  0.00     0.048 C 
HETATM    3  C4  UNL     1      23.574   2.939  51.847  1.00  0.00     0.194 C 
HETATM    4  C13 UNL     1      24.711   3.659  51.310  1.00  0.00     0.127 C 
HETATM    5  N2  UNL     1      25.954   3.522  50.998  1.00  0.00    -0.256 NA
HETATM    6  C14 UNL     1      26.802   2.360  51.105  1.00  0.00     0.230 C 
HETATM    7  N3  UNL     1      26.771   1.279  51.809  1.00  0.00    -0.238 NA
HETATM    8  C15 UNL     1      25.997   0.619  52.797  1.00  0.00     0.201 C 
HETATM    9  C16 UNL     1      26.405  -0.861  52.745  1.00  0.00     0.081 C 
ENDROOT
BRANCH   3  10
HETATM   10  O2  UNL     1      22.516   3.117  50.892  1.00  0.00    -0.341 OA
BRANCH  10  11
HETATM   11  C5  UNL     1      21.377   2.365  50.847  1.00  0.00     0.048 C 
HETATM   12  C6  UNL     1      20.429   2.693  51.726  1.00  0.00     0.012 C 
HETATM   13  C7  UNL     1      19.101   2.046  51.892  1.00  0.00     0.086 C 
HETATM   14  C8  UNL     1      19.214   0.688  51.295  1.00  0.00     0.012 C 
HETATM   15  C11 UNL     1      20.144   0.361  50.412  1.00  0.00     0.005 C 
HETATM   16  C12 UNL     1      21.215   1.244  49.862  1.00  0.00     0.093 C 
BRANCH  14  17
HETATM   17  N1  UNL     1      18.266  -0.295  51.705  1.00  0.00    -0.331 N 
HETATM   18  C9  UNL     1      18.409  -0.999  52.943  1.00  0.00     0.217 C 
HETATM   19  C10 UNL     1      17.398  -2.023  53.344  1.00  0.00     0.117 C 
HETATM   20  O3  UNL     1      19.382  -0.784  53.736  1.00  0.00    -0.274 OA
HETATM   21  H9  UNL     1      17.427  -0.538  51.107  1.00  0.00     0.168 HD
ENDBRANCH  14  17
ENDBRANCH  10  11
ENDBRANCH   3  10
BRANCH   1  22
HETATM   22  O1  UNL     1      23.917  -0.550  53.064  1.00  0.00    -0.355 OA
HETATM   23  C1  UNL     1      22.505  -0.624  53.044  1.00  0.00     0.209 C 
ENDBRANCH   1  22
BRANCH   8  24
HETATM   24  O4  UNL     1      26.382   1.175  54.033  1.00  0.00    -0.358 OA
HETATM   25  C17 UNL     1      26.853   0.211  54.908  1.00  0.00     0.205 C 
ENDBRANCH   8  24
TORSDOF 5
ENDMDL
MODEL 8
REMARK VINA RESULT:      -6.6      1.955      8.215
REMARK  5 active torsions:
REMARK  status: ('A' for Active; 'I' for Inactive)
REMARK    1  A    between atoms: O1_2  and  C2_3 
REMARK    2  A    between atoms: C4_5  and  O2_6 
REMARK    3  A    between atoms: O2_6  and  C5_7 
REMARK    4  A    between atoms: C8_10  and  N1_11 
REMARK       I    between atoms: N1_11  and  C9_12 
REMARK    5  A    between atoms: C15_21  and  O4_23 
ROOT
HETATM    1  C2  UNL     1      20.226   2.033  51.138  1.00  0.00     0.101 C 
HETATM    2  C3  UNL     1      21.044   1.406  51.943  1.00  0.00     0.048 C 
HETATM    3  C4  UNL     1      21.184   0.498  53.047  1.00  0.00     0.194 C 
HETATM    4  C13 UNL     1      20.071  -0.336  53.454  1.00  0.00     0.127 C 
HETATM    5  N2  UNL     1      18.866  -0.662  53.132  1.00  0.00    -0.256 NA
HETATM    6  C14 UNL     1      18.059  -0.208  52.026  1.00  0.00     0.230 C 
HETATM    7  N3  UNL     1      18.071   0.834  51.265  1.00  0.00    -0.238 NA
HETATM    8  C15 UNL     1      18.781   2.042  51.048  1.00  0.00     0.201 C 
HETATM    9  C16 UNL     1      18.438   2.491  49.620  1.00  0.00     0.081 C 
ENDROOT
BRANCH   3  10
HETATM   10  O2  UNL     1      22.314  -0.384  52.950  1.00  0.00    -0.341 OA
BRANCH  10  11
HETATM   11  C5  UNL     1      23.549  -0.123  53.472  1.00  0.00     0.048 C 
HETATM   12  C6  UNL     1      24.273   0.791  52.824  1.00  0.00     0.012 C 
HETATM   13  C7  UNL     1      25.638   1.262  53.175  1.00  0.00     0.086 C 
HETATM   14  C8  UNL     1      26.248   0.204  54.024  1.00  0.00     0.012 C 
HETATM   15  C11 UNL     1      25.533  -0.697  54.680  1.00  0.00     0.005 C 
HETATM   16  C12 UNL     1      24.046  -0.828  54.701  1.00  0.00     0.093 C 
BRANCH  14  17
HETATM   17  N1  UNL     1      27.669   0.174  54.125  1.00  0.00    -0.331 N 
HETATM   18  C9  UNL     1      28.432  -0.913  53.592  1.00  0.00     0.217 C 
HETATM   19  C10 UNL     1      29.921  -0.914  53.714  1.00  0.00     0.117 C 
HETATM   20  O3  UNL     1      27.885  -1.901  53.003  1.00  0.00    -0.274 OA
HETATM   21  H9  UNL     1      28.206   0.953  54.599  1.00  0.00     0.168 HD
ENDBRANCH  14  17
ENDBRANCH  10  11
ENDBRANCH   3  10
BRANCH   1  22
HETATM   22  O1  UNL     1      20.874   2.847  50.191  1.00  0.00    -0.355 OA
HETATM   23  C1  UNL     1      22.199   3.277  50.433  1.00  0.00     0.209 C 
ENDBRANCH   1  22
BRANCH   8  24
HETATM   24  O4  UNL     1      18.267   2.971  51.974  1.00  0.00    -0.358 OA
HETATM   25  C17 UNL     1      17.040   3.473  51.576  1.00  0.00     0.205 C 
ENDBRANCH   8  24
TORSDOF 5
ENDMDL
MODEL 9
REMARK VINA RESULT:      -6.6      2.773      8.987
REMARK  5 active torsions:
REMARK  status: ('A' for Active; 'I' for Inactive)
REMARK    1  A    between atoms: O1_2  and  C2_3 
REMARK    2  A    between atoms: C4_5  and  O2_6 
REMARK    3  A    between atoms: O2_6  and  C5_7 
REMARK    4  A    between atoms: C8_10  and  N1_11 
REMARK       I    between atoms: N1_11  and  C9_12 
REMARK    5  A    between atoms: C15_21  and  O4_23 
ROOT
HETATM    1  C2  UNL     1      17.735   0.012  51.762  1.00  0.00     0.101 C 
HETATM    2  C3  UNL     1      18.951   0.269  52.170  1.00  0.00     0.048 C 
HETATM    3  C4  UNL     1      20.014   1.231  52.251  1.00  0.00     0.194 C 
HETATM    4  C13 UNL     1      19.750   2.635  52.009  1.00  0.00     0.127 C 
HETATM    5  N2  UNL     1      18.796   3.471  51.775  1.00  0.00    -0.256 NA
HETATM    6  C14 UNL     1      17.380   3.232  51.650  1.00  0.00     0.230 C 
HETATM    7  N3  UNL     1      16.657   2.199  51.373  1.00  0.00    -0.238 NA
HETATM    8  C15 UNL     1      16.765   0.822  51.056  1.00  0.00     0.201 C 
HETATM    9  C16 UNL     1      15.389   0.205  51.348  1.00  0.00     0.081 C 
ENDROOT
BRANCH   3  10
HETATM   10  O2  UNL     1      20.765   1.184  53.475  1.00  0.00    -0.341 OA
BRANCH  10  11
HETATM   11  C5  UNL     1      22.073   0.801  53.569  1.00  0.00     0.048 C 
HETATM   12  C6  UNL     1      22.961   1.627  53.015  1.00  0.00     0.012 C 
HETATM   13  C7  UNL     1      24.437   1.455  52.974  1.00  0.00     0.086 C 
HETATM   14  C8  UNL     1      24.701   0.005  53.180  1.00  0.00     0.012 C 
HETATM   15  C11 UNL     1      23.828  -0.816  53.742  1.00  0.00     0.005 C 
HETATM   16  C12 UNL     1      22.470  -0.472  54.257  1.00  0.00     0.093 C 
BRANCH  14  17
HETATM   17  N1  UNL     1      25.960  -0.506  52.746  1.00  0.00    -0.331 N 
HETATM   18  C9  UNL     1      27.080  -0.577  53.632  1.00  0.00     0.217 C 
HETATM   19  C10 UNL     1      28.386  -1.118  53.147  1.00  0.00     0.117 C 
HETATM   20  O3  UNL     1      27.013  -0.192  54.844  1.00  0.00    -0.274 OA
HETATM   21  H9  UNL     1      26.106  -0.848  51.756  1.00  0.00     0.168 HD
ENDBRANCH  14  17
ENDBRANCH  10  11
ENDBRANCH   3  10
BRANCH   1  22
HETATM   22  O1  UNL     1      17.297  -1.289  52.067  1.00  0.00    -0.355 OA
HETATM   23  C1  UNL     1      17.729  -1.907  53.263  1.00  0.00     0.209 C 
ENDBRANCH   1  22
BRANCH   8  24
HETATM   24  O4  UNL     1      17.030   0.757  49.674  1.00  0.00    -0.358 OA
HETATM   25  C17 UNL     1      15.939   1.153  48.919  1.00  0.00     0.205 C 
ENDBRANCH   8  24
TORSDOF 5
ENDMDL
