MODEL 1
REMARK VINA RESULT:      -6.4      0.000      0.000
REMARK  10 active torsions:
REMARK  status: ('A' for Active; 'I' for Inactive)
REMARK    1  A    between atoms: N1_2  and  C2_3 
REMARK    2  A    between atoms: C2_3  and  C3_4 
REMARK       I    between atoms: C3_4  and  N2_6 
REMARK    3  A    between atoms: N2_6  and  C4_7 
REMARK    4  A    between atoms: C6_9  and  C7_10 
REMARK    5  A    between atoms: C7_10  and  N3_11 
REMARK    6  A    between atoms: C9_13  and  O2_14 
REMARK    7  A    between atoms: C12_17  and  N4_18 
REMARK    8  A    between atoms: N4_18  and  C14_20 
REMARK    9  A    between atoms: C14_20  and  C15_21 
REMARK   10  A    between atoms: C15_21  and  N5_22 
ROOT
HETATM    1  C4  UNL     1      23.865   2.695  52.331  1.00  0.00     0.062 A 
HETATM    2  C5  UNL     1      22.494   2.751  52.246  1.00  0.00     0.043 A 
HETATM    3  C6  UNL     1      21.657   1.714  52.658  1.00  0.00    -0.003 A 
HETATM    4  C9  UNL     1      22.284   0.582  53.173  1.00  0.00     0.078 A 
HETATM    5  C11 UNL     1      23.683   0.541  53.251  1.00  0.00     0.069 A 
HETATM    6  C12 UNL     1      24.498   1.602  52.829  1.00  0.00     0.059 A 
ENDROOT
BRANCH   1   7
HETATM    7  N2  UNL     1      24.664   3.753  51.885  1.00  0.00    -0.324 N 
HETATM    8  C3  UNL     1      25.062   3.837  50.528  1.00  0.00     0.241 C 
HETATM    9  O1  UNL     1      24.708   2.957  49.672  1.00  0.00    -0.271 OA
HETATM   10  H5  UNL     1      25.087   4.583  52.396  1.00  0.00     0.169 HD
BRANCH   8  11
HETATM   11  C2  UNL     1      25.902   4.891  49.906  1.00  0.00     0.250 C 
BRANCH  11  12
HETATM   12  N1  UNL     1      26.918   4.325  49.070  1.00  0.00    -0.303 NA
HETATM   13  C1  UNL     1      27.776   5.158  48.568  1.00  0.00     0.143 C 
ENDBRANCH  11  12
ENDBRANCH   8  11
ENDBRANCH   1   7
BRANCH   6  14
HETATM   14  N4  UNL     1      25.842   1.180  53.034  1.00  0.00    -0.382 N 
HETATM   15  C13 UNL     1      26.354   0.544  51.826  1.00  0.00     0.150 C 
BRANCH  14  16
HETATM   16  C14 UNL     1      26.625   1.242  54.204  1.00  0.00     0.152 C 
BRANCH  16  17
HETATM   17  C15 UNL     1      27.357   0.127  54.778  1.00  0.00     0.291 C 
BRANCH  17  18
HETATM   18  N5  UNL     1      28.779   0.107  54.829  1.00  0.00     0.081 N 
HETATM   19  C16 UNL     1      29.286  -0.838  53.771  1.00  0.00     0.309 C 
HETATM   20  C17 UNL     1      29.298   1.386  54.317  1.00  0.00     0.309 C 
ENDBRANCH  17  18
ENDBRANCH  16  17
ENDBRANCH  14  16
ENDBRANCH   6  14
BRANCH   3  21
HETATM   21  C7  UNL     1      20.192   1.895  52.519  1.00  0.00     0.188 C 
BRANCH  21  22
HETATM   22  N3  UNL     1      19.803   3.258  52.398  1.00  0.00    -0.308 NA
HETATM   23  C8  UNL     1      18.929   3.571  51.540  1.00  0.00     0.142 C 
ENDBRANCH  21  22
ENDBRANCH   3  21
BRANCH   4  24
HETATM   24  O2  UNL     1      21.356  -0.370  53.543  1.00  0.00    -0.355 OA
HETATM   25  C10 UNL     1      21.502  -1.422  54.429  1.00  0.00     0.210 C 
ENDBRANCH   4  24
TORSDOF 10
ENDMDL
MODEL 2
REMARK VINA RESULT:      -6.0      2.051      5.597
REMARK  10 active torsions:
REMARK  status: ('A' for Active; 'I' for Inactive)
REMARK    1  A    between atoms: N1_2  and  C2_3 
REMARK    2  A    between atoms: C2_3  and  C3_4 
REMARK       I    between atoms: C3_4  and  N2_6 
REMARK    3  A    between atoms: N2_6  and  C4_7 
REMARK    4  A    between atoms: C6_9  and  C7_10 
REMARK    5  A    between atoms: C7_10  and  N3_11 
REMARK    6  A    between atoms: C9_13  and  O2_14 
REMARK    7  A    between atoms: C12_17  and  N4_18 
REMARK    8  A    between atoms: N4_18  and  C14_20 
REMARK    9  A    between atoms: C14_20  and  C15_21 
REMARK   10  A    between atoms: C15_21  and  N5_22 
ROOT
HETATM    1  C4  UNL     1      24.884   2.572  52.061  1.00  0.00     0.062 A 
HETATM    2  C5  UNL     1      25.737   2.004  52.978  1.00  0.00     0.043 A 
HETATM    3  C6  UNL     1      25.425   0.856  53.707  1.00  0.00    -0.003 A 
HETATM    4  C9  UNL     1      24.176   0.290  53.463  1.00  0.00     0.078 A 
HETATM    5  C11 UNL     1      23.319   0.883  52.526  1.00  0.00     0.069 A 
HETATM    6  C12 UNL     1      23.662   2.038  51.806  1.00  0.00     0.059 A 
ENDROOT
BRANCH   1   7
HETATM    7  N2  UNL     1      25.234   3.737  51.368  1.00  0.00    -0.324 N 
HETATM    8  C3  UNL     1      26.075   3.677  50.231  1.00  0.00     0.241 C 
HETATM    9  O1  UNL     1      26.541   2.567  49.802  1.00  0.00    -0.271 OA
HETATM   10  H5  UNL     1      24.987   4.758  51.534  1.00  0.00     0.169 HD
BRANCH   8  11
HETATM   11  C2  UNL     1      26.532   4.816  49.396  1.00  0.00     0.250 C 
BRANCH  11  12
HETATM   12  N1  UNL     1      27.780   4.527  48.755  1.00  0.00    -0.303 NA
HETATM   13  C1  UNL     1      28.455   5.550  48.330  1.00  0.00     0.143 C 
ENDBRANCH  11  12
ENDBRANCH   8  11
ENDBRANCH   1   7
BRANCH   6  14
HETATM   14  N4  UNL     1      22.539   2.348  50.988  1.00  0.00    -0.382 N 
HETATM   15  C13 UNL     1      21.501   2.987  51.788  1.00  0.00     0.150 C 
BRANCH  14  16
HETATM   16  C14 UNL     1      22.323   2.057  49.627  1.00  0.00     0.152 C 
BRANCH  16  17
HETATM   17  C15 UNL     1      22.989   2.714  48.517  1.00  0.00     0.291 C 
BRANCH  17  18
HETATM   18  N5  UNL     1      22.430   3.852  47.871  1.00  0.00     0.081 N 
HETATM   19  C16 UNL     1      20.945   3.872  48.129  1.00  0.00     0.309 C 
HETATM   20  C17 UNL     1      22.843   5.067  48.592  1.00  0.00     0.309 C 
ENDBRANCH  17  18
ENDBRANCH  16  17
ENDBRANCH  14  16
ENDBRANCH   6  14
BRANCH   3  21
HETATM   21  C7  UNL     1      26.430   0.338  54.665  1.00  0.00     0.188 C 
BRANCH  21  22
HETATM   22  N3  UNL     1      27.655   1.060  54.642  1.00  0.00    -0.308 NA
HETATM   23  C8  UNL     1      28.744   0.422  54.711  1.00  0.00     0.142 C 
ENDBRANCH  21  22
ENDBRANCH   3  21
BRANCH   4  24
HETATM   24  O2  UNL     1      23.984  -0.833  54.242  1.00  0.00    -0.355 OA
HETATM   25  C10 UNL     1      22.873  -1.191  54.984  1.00  0.00     0.210 C 
ENDBRANCH   4  24
TORSDOF 10
ENDMDL
MODEL 3
REMARK VINA RESULT:      -6.0      2.128      6.385
REMARK  10 active torsions:
REMARK  status: ('A' for Active; 'I' for Inactive)
REMARK    1  A    between atoms: N1_2  and  C2_3 
REMARK    2  A    between atoms: C2_3  and  C3_4 
REMARK       I    between atoms: C3_4  and  N2_6 
REMARK    3  A    between atoms: N2_6  and  C4_7 
REMARK    4  A    between atoms: C6_9  and  C7_10 
REMARK    5  A    between atoms: C7_10  and  N3_11 
REMARK    6  A    between atoms: C9_13  and  O2_14 
REMARK    7  A    between atoms: C12_17  and  N4_18 
REMARK    8  A    between atoms: N4_18  and  C14_20 
REMARK    9  A    between atoms: C14_20  and  C15_21 
REMARK   10  A    between atoms: C15_21  and  N5_22 
ROOT
HETATM    1  C4  UNL     1      25.609   2.421  50.903  1.00  0.00     0.062 A 
HETATM    2  C5  UNL     1      26.392   3.337  50.242  1.00  0.00     0.043 A 
HETATM    3  C6  UNL     1      25.873   4.406  49.512  1.00  0.00    -0.003 A 
HETATM    4  C9  UNL     1      24.484   4.512  49.476  1.00  0.00     0.078 A 
HETATM    5  C11 UNL     1      23.701   3.569  50.154  1.00  0.00     0.069 A 
HETATM    6  C12 UNL     1      24.253   2.504  50.882  1.00  0.00     0.059 A 
ENDROOT
BRANCH   1   7
HETATM    7  N2  UNL     1      26.176   1.352  51.606  1.00  0.00    -0.324 N 
HETATM    8  C3  UNL     1      26.378   1.433  53.005  1.00  0.00     0.241 C 
HETATM    9  O1  UNL     1      26.052   2.475  53.668  1.00  0.00    -0.271 OA
HETATM   10  H5  UNL     1      26.532   0.404  51.283  1.00  0.00     0.169 HD
BRANCH   8  11
HETATM   11  C2  UNL     1      26.964   0.391  53.886  1.00  0.00     0.250 C 
BRANCH  11  12
HETATM   12  N1  UNL     1      27.984   0.934  54.732  1.00  0.00    -0.303 NA
HETATM   13  C1  UNL     1      29.187   0.937  54.247  1.00  0.00     0.143 C 
ENDBRANCH  11  12
ENDBRANCH   8  11
ENDBRANCH   1   7
BRANCH   6  14
HETATM   14  N4  UNL     1      23.156   1.756  51.394  1.00  0.00    -0.382 N 
HETATM   15  C13 UNL     1      22.278   1.351  50.303  1.00  0.00     0.150 C 
BRANCH  14  16
HETATM   16  C14 UNL     1      22.826   1.463  52.732  1.00  0.00     0.152 C 
BRANCH  16  17
HETATM   17  C15 UNL     1      22.919   0.151  53.346  1.00  0.00     0.291 C 
BRANCH  17  18
HETATM   18  N5  UNL     1      21.770  -0.655  53.576  1.00  0.00     0.081 N 
HETATM   19  C16 UNL     1      21.930  -1.358  54.900  1.00  0.00     0.309 C 
HETATM   20  C17 UNL     1      20.621   0.216  53.873  1.00  0.00     0.309 C 
ENDBRANCH  17  18
ENDBRANCH  16  17
ENDBRANCH  14  16
ENDBRANCH   6  14
BRANCH   3  21
HETATM   21  C7  UNL     1      26.822   5.329  48.846  1.00  0.00     0.188 C 
BRANCH  21  22
HETATM   22  N3  UNL     1      28.112   4.764  48.647  1.00  0.00    -0.308 NA
HETATM   23  C8  UNL     1      29.046   5.503  48.224  1.00  0.00     0.142 C 
ENDBRANCH  21  22
ENDBRANCH   3  21
BRANCH   4  24
HETATM   24  O2  UNL     1      24.093   5.602  48.725  1.00  0.00    -0.355 OA
HETATM   25  C10 UNL     1      23.119   5.672  47.746  1.00  0.00     0.210 C 
ENDBRANCH   4  24
TORSDOF 10
ENDMDL
MODEL 4
REMARK VINA RESULT:      -5.9      1.546      5.732
REMARK  10 active torsions:
REMARK  status: ('A' for Active; 'I' for Inactive)
REMARK    1  A    between atoms: N1_2  and  C2_3 
REMARK    2  A    between atoms: C2_3  and  C3_4 
REMARK       I    between atoms: C3_4  and  N2_6 
REMARK    3  A    between atoms: N2_6  and  C4_7 
REMARK    4  A    between atoms: C6_9  and  C7_10 
REMARK    5  A    between atoms: C7_10  and  N3_11 
REMARK    6  A    between atoms: C9_13  and  O2_14 
REMARK    7  A    between atoms: C12_17  and  N4_18 
REMARK    8  A    between atoms: N4_18  and  C14_20 
REMARK    9  A    between atoms: C14_20  and  C15_21 
REMARK   10  A    between atoms: C15_21  and  N5_22 
ROOT
HETATM    1  C4  UNL     1      25.189   2.731  51.808  1.00  0.00     0.062 A 
HETATM    2  C5  UNL     1      26.018   2.015  52.640  1.00  0.00     0.043 A 
HETATM    3  C6  UNL     1      25.617   0.863  53.316  1.00  0.00    -0.003 A 
HETATM    4  C9  UNL     1      24.301   0.454  53.111  1.00  0.00     0.078 A 
HETATM    5  C11 UNL     1      23.470   1.196  52.261  1.00  0.00     0.069 A 
HETATM    6  C12 UNL     1      23.903   2.351  51.593  1.00  0.00     0.059 A 
ENDROOT
BRANCH   1   7
HETATM    7  N2  UNL     1      25.632   3.894  51.167  1.00  0.00    -0.324 N 
HETATM    8  C3  UNL     1      26.274   3.824  49.907  1.00  0.00     0.241 C 
HETATM    9  O1  UNL     1      26.471   2.708  49.317  1.00  0.00    -0.271 OA
HETATM   10  H5  UNL     1      25.595   4.916  51.454  1.00  0.00     0.169 HD
BRANCH   8  11
HETATM   11  C2  UNL     1      26.796   4.960  49.106  1.00  0.00     0.250 C 
BRANCH  11  12
HETATM   12  N1  UNL     1      28.111   4.689  48.609  1.00  0.00    -0.303 NA
HETATM   13  C1  UNL     1      28.819   5.722  48.271  1.00  0.00     0.143 C 
ENDBRANCH  11  12
ENDBRANCH   8  11
ENDBRANCH   1   7
BRANCH   6  14
HETATM   14  N4  UNL     1      22.783   2.835  50.861  1.00  0.00    -0.382 N 
HETATM   15  C13 UNL     1      22.650   2.099  49.610  1.00  0.00     0.150 C 
BRANCH  14  16
HETATM   16  C14 UNL     1      21.917   3.905  51.164  1.00  0.00     0.152 C 
BRANCH  16  17
HETATM   17  C15 UNL     1      20.821   3.849  52.113  1.00  0.00     0.291 C 
BRANCH  17  18
HETATM   18  N5  UNL     1      19.476   3.644  51.698  1.00  0.00     0.081 N 
HETATM   19  C16 UNL     1      19.362   4.000  50.238  1.00  0.00     0.309 C 
HETATM   20  C17 UNL     1      19.202   2.198  51.643  1.00  0.00     0.309 C 
ENDBRANCH  17  18
ENDBRANCH  16  17
ENDBRANCH  14  16
ENDBRANCH   6  14
BRANCH   3  21
HETATM   21  C7  UNL     1      26.604   0.177  54.182  1.00  0.00     0.188 C 
BRANCH  21  22
HETATM   22  N3  UNL     1      27.636   1.036  54.650  1.00  0.00    -0.308 NA
HETATM   23  C8  UNL     1      28.822   0.600  54.700  1.00  0.00     0.142 C 
ENDBRANCH  21  22
ENDBRANCH   3  21
BRANCH   4  24
HETATM   24  O2  UNL     1      24.024  -0.691  53.831  1.00  0.00    -0.355 OA
HETATM   25  C10 UNL     1      22.870  -1.021  54.518  1.00  0.00     0.210 C 
ENDBRANCH   4  24
TORSDOF 10
ENDMDL
MODEL 5
REMARK VINA RESULT:      -5.9      1.931      5.473
REMARK  10 active torsions:
REMARK  status: ('A' for Active; 'I' for Inactive)
REMARK    1  A    between atoms: N1_2  and  C2_3 
REMARK    2  A    between atoms: C2_3  and  C3_4 
REMARK       I    between atoms: C3_4  and  N2_6 
REMARK    3  A    between atoms: N2_6  and  C4_7 
REMARK    4  A    between atoms: C6_9  and  C7_10 
REMARK    5  A    between atoms: C7_10  and  N3_11 
REMARK    6  A    between atoms: C9_13  and  O2_14 
REMARK    7  A    between atoms: C12_17  and  N4_18 
REMARK    8  A    between atoms: N4_18  and  C14_20 
REMARK    9  A    between atoms: C14_20  and  C15_21 
REMARK   10  A    between atoms: C15_21  and  N5_22 
ROOT
HETATM    1  C4  UNL     1      24.982   2.796  51.886  1.00  0.00     0.062 A 
HETATM    2  C5  UNL     1      25.778   2.021  52.696  1.00  0.00     0.043 A 
HETATM    3  C6  UNL     1      25.322   0.882  53.358  1.00  0.00    -0.003 A 
HETATM    4  C9  UNL     1      23.984   0.548  53.161  1.00  0.00     0.078 A 
HETATM    5  C11 UNL     1      23.186   1.349  52.333  1.00  0.00     0.069 A 
HETATM    6  C12 UNL     1      23.675   2.490  51.679  1.00  0.00     0.059 A 
ENDROOT
BRANCH   1   7
HETATM    7  N2  UNL     1      25.480   3.943  51.259  1.00  0.00    -0.324 N 
HETATM    8  C3  UNL     1      26.112   3.859  49.994  1.00  0.00     0.241 C 
HETATM    9  O1  UNL     1      26.247   2.743  49.388  1.00  0.00    -0.271 OA
HETATM   10  H5  UNL     1      25.498   4.962  51.561  1.00  0.00     0.169 HD
BRANCH   8  11
HETATM   11  C2  UNL     1      26.687   4.978  49.207  1.00  0.00     0.250 C 
BRANCH  11  12
HETATM   12  N1  UNL     1      27.963   4.629  48.657  1.00  0.00    -0.303 NA
HETATM   13  C1  UNL     1      28.732   5.618  48.322  1.00  0.00     0.143 C 
ENDBRANCH  11  12
ENDBRANCH   8  11
ENDBRANCH   1   7
BRANCH   6  14
HETATM   14  N4  UNL     1      22.575   3.046  50.968  1.00  0.00    -0.382 N 
HETATM   15  C13 UNL     1      22.485   2.447  49.642  1.00  0.00     0.150 C 
BRANCH  14  16
HETATM   16  C14 UNL     1      21.695   4.077  51.355  1.00  0.00     0.152 C 
BRANCH  16  17
HETATM   17  C15 UNL     1      21.773   5.454  50.905  1.00  0.00     0.291 C 
BRANCH  17  18
HETATM   18  N5  UNL     1      22.987   6.022  50.427  1.00  0.00     0.081 N 
HETATM   19  C16 UNL     1      22.954   6.034  48.921  1.00  0.00     0.309 C 
HETATM   20  C17 UNL     1      22.988   7.467  50.707  1.00  0.00     0.309 C 
ENDBRANCH  17  18
ENDBRANCH  16  17
ENDBRANCH  14  16
ENDBRANCH   6  14
BRANCH   3  21
HETATM   21  C7  UNL     1      26.280   0.128  54.202  1.00  0.00     0.188 C 
BRANCH  21  22
HETATM   22  N3  UNL     1      27.372   0.918  54.656  1.00  0.00    -0.308 NA
HETATM   23  C8  UNL     1      28.503   0.372  54.803  1.00  0.00     0.142 C 
ENDBRANCH  21  22
ENDBRANCH   3  21
BRANCH   4  24
HETATM   24  O2  UNL     1      23.652  -0.591  53.866  1.00  0.00    -0.355 OA
HETATM   25  C10 UNL     1      22.396  -1.075  54.184  1.00  0.00     0.210 C 
ENDBRANCH   4  24
TORSDOF 10
ENDMDL
MODEL 6
REMARK VINA RESULT:      -5.8      1.928      5.152
REMARK  10 active torsions:
REMARK  status: ('A' for Active; 'I' for Inactive)
REMARK    1  A    between atoms: N1_2  and  C2_3 
REMARK    2  A    between atoms: C2_3  and  C3_4 
REMARK       I    between atoms: C3_4  and  N2_6 
REMARK    3  A    between atoms: N2_6  and  C4_7 
REMARK    4  A    between atoms: C6_9  and  C7_10 
REMARK    5  A    between atoms: C7_10  and  N3_11 
REMARK    6  A    between atoms: C9_13  and  O2_14 
REMARK    7  A    between atoms: C12_17  and  N4_18 
REMARK    8  A    between atoms: N4_18  and  C14_20 
REMARK    9  A    between atoms: C14_20  and  C15_21 
REMARK   10  A    between atoms: C15_21  and  N5_22 
ROOT
HETATM    1  C4  UNL     1      24.602   1.929  52.678  1.00  0.00     0.062 A 
HETATM    2  C5  UNL     1      23.940   0.833  53.179  1.00  0.00     0.043 A 
HETATM    3  C6  UNL     1      22.749   0.345  52.643  1.00  0.00    -0.003 A 
HETATM    4  C9  UNL     1      22.239   1.033  51.545  1.00  0.00     0.078 A 
HETATM    5  C11 UNL     1      22.926   2.149  51.048  1.00  0.00     0.069 A 
HETATM    6  C12 UNL     1      24.124   2.616  51.609  1.00  0.00     0.059 A 
ENDROOT
BRANCH   1   7
HETATM    7  N2  UNL     1      25.785   2.395  53.265  1.00  0.00    -0.324 N 
HETATM    8  C3  UNL     1      27.047   1.974  52.779  1.00  0.00     0.241 C 
HETATM    9  O1  UNL     1      27.148   1.162  51.798  1.00  0.00    -0.271 OA
HETATM   10  H5  UNL     1      25.957   3.053  54.082  1.00  0.00     0.169 HD
BRANCH   8  11
HETATM   11  C2  UNL     1      28.381   2.377  53.290  1.00  0.00     0.250 C 
BRANCH  11  12
HETATM   12  N1  UNL     1      28.710   1.679  54.498  1.00  0.00    -0.303 NA
HETATM   13  C1  UNL     1      28.889   0.399  54.388  1.00  0.00     0.143 C 
ENDBRANCH  11  12
ENDBRANCH   8  11
ENDBRANCH   1   7
BRANCH   6  14
HETATM   14  N4  UNL     1      24.494   3.769  50.861  1.00  0.00    -0.382 N 
HETATM   15  C13 UNL     1      23.879   4.957  51.439  1.00  0.00     0.150 C 
BRANCH  14  16
HETATM   16  C14 UNL     1      25.263   3.855  49.683  1.00  0.00     0.152 C 
BRANCH  16  17
HETATM   17  C15 UNL     1      26.520   4.570  49.557  1.00  0.00     0.291 C 
BRANCH  17  18
HETATM   18  N5  UNL     1      26.704   5.604  48.598  1.00  0.00     0.081 N 
HETATM   19  C16 UNL     1      26.385   6.926  49.246  1.00  0.00     0.309 C 
HETATM   20  C17 UNL     1      28.144   5.772  48.340  1.00  0.00     0.309 C 
ENDBRANCH  17  18
ENDBRANCH  16  17
ENDBRANCH  14  16
ENDBRANCH   6  14
BRANCH   3  21
HETATM   21  C7  UNL     1      22.133  -0.848  53.271  1.00  0.00     0.188 C 
BRANCH  21  22
HETATM   22  N3  UNL     1      22.044  -0.757  54.687  1.00  0.00    -0.308 NA
HETATM   23  C8  UNL     1      22.870  -1.400  55.396  1.00  0.00     0.142 C 
ENDBRANCH  21  22
ENDBRANCH   3  21
BRANCH   4  24
HETATM   24  O2  UNL     1      21.063   0.459  51.107  1.00  0.00    -0.355 OA
HETATM   25  C10 UNL     1      20.115   0.980  50.245  1.00  0.00     0.210 C 
ENDBRANCH   4  24
TORSDOF 10
ENDMDL
MODEL 7
REMARK VINA RESULT:      -5.8      2.357      5.486
REMARK  10 active torsions:
REMARK  status: ('A' for Active; 'I' for Inactive)
REMARK    1  A    between atoms: N1_2  and  C2_3 
REMARK    2  A    between atoms: C2_3  and  C3_4 
REMARK       I    between atoms: C3_4  and  N2_6 
REMARK    3  A    between atoms: N2_6  and  C4_7 
REMARK    4  A    between atoms: C6_9  and  C7_10 
REMARK    5  A    between atoms: C7_10  and  N3_11 
REMARK    6  A    between atoms: C9_13  and  O2_14 
REMARK    7  A    between atoms: C12_17  and  N4_18 
REMARK    8  A    between atoms: N4_18  and  C14_20 
REMARK    9  A    between atoms: C14_20  and  C15_21 
REMARK   10  A    between atoms: C15_21  and  N5_22 
ROOT
HETATM    1  C4  UNL     1      24.739   2.260  52.257  1.00  0.00     0.062 A 
HETATM    2  C5  UNL     1      23.850   1.309  52.700  1.00  0.00     0.043 A 
HETATM    3  C6  UNL     1      22.731   0.907  51.972  1.00  0.00    -0.003 A 
HETATM    4  C9  UNL     1      22.541   1.528  50.739  1.00  0.00     0.078 A 
HETATM    5  C11 UNL     1      23.456   2.496  50.304  1.00  0.00     0.069 A 
HETATM    6  C12 UNL     1      24.575   2.878  51.059  1.00  0.00     0.059 A 
ENDROOT
BRANCH   1   7
HETATM    7  N2  UNL     1      25.838   2.645  53.033  1.00  0.00    -0.324 N 
HETATM    8  C3  UNL     1      27.095   2.013  52.870  1.00  0.00     0.241 C 
HETATM    9  O1  UNL     1      27.268   1.078  52.018  1.00  0.00    -0.271 OA
HETATM   10  H5  UNL     1      25.941   3.374  53.800  1.00  0.00     0.169 HD
BRANCH   8  11
HETATM   11  C2  UNL     1      28.347   2.309  53.613  1.00  0.00     0.250 C 
BRANCH  11  12
HETATM   12  N1  UNL     1      29.104   1.117  53.856  1.00  0.00    -0.303 NA
HETATM   13  C1  UNL     1      28.733   0.401  54.871  1.00  0.00     0.143 C 
ENDBRANCH  11  12
ENDBRANCH   8  11
ENDBRANCH   1   7
BRANCH   6  14
HETATM   14  N4  UNL     1      25.236   3.892  50.310  1.00  0.00    -0.382 N 
HETATM   15  C13 UNL     1      26.281   3.300  49.484  1.00  0.00     0.150 C 
BRANCH  14  16
HETATM   16  C14 UNL     1      25.048   5.288  50.344  1.00  0.00     0.152 C 
BRANCH  16  17
HETATM   17  C15 UNL     1      23.973   5.968  51.043  1.00  0.00     0.291 C 
BRANCH  17  18
HETATM   18  N5  UNL     1      22.683   6.130  50.465  1.00  0.00     0.081 N 
HETATM   19  C16 UNL     1      21.663   5.499  51.377  1.00  0.00     0.309 C 
HETATM   20  C17 UNL     1      22.287   7.545  50.558  1.00  0.00     0.309 C 
ENDBRANCH  17  18
ENDBRANCH  16  17
ENDBRANCH  14  16
ENDBRANCH   6  14
BRANCH   3  21
HETATM   21  C7  UNL     1      21.848  -0.131  52.556  1.00  0.00     0.188 C 
BRANCH  21  22
HETATM   22  N3  UNL     1      21.742  -0.048  53.972  1.00  0.00    -0.308 NA
HETATM   23  C8  UNL     1      21.656  -1.115  54.643  1.00  0.00     0.142 C 
ENDBRANCH  21  22
ENDBRANCH   3  21
BRANCH   4  24
HETATM   24  O2  UNL     1      21.405   1.050  50.118  1.00  0.00    -0.355 OA
HETATM   25  C10 UNL     1      20.327   1.761  49.622  1.00  0.00     0.210 C 
ENDBRANCH   4  24
TORSDOF 10
ENDMDL
MODEL 8
REMARK VINA RESULT:      -5.7      1.841      5.621
REMARK  10 active torsions:
REMARK  status: ('A' for Active; 'I' for Inactive)
REMARK    1  A    between atoms: N1_2  and  C2_3 
REMARK    2  A    between atoms: C2_3  and  C3_4 
REMARK       I    between atoms: C3_4  and  N2_6 
REMARK    3  A    between atoms: N2_6  and  C4_7 
REMARK    4  A    between atoms: C6_9  and  C7_10 
REMARK    5  A    between atoms: C7_10  and  N3_11 
REMARK    6  A    between atoms: C9_13  and  O2_14 
REMARK    7  A    between atoms: C12_17  and  N4_18 
REMARK    8  A    between atoms: N4_18  and  C14_20 
REMARK    9  A    between atoms: C14_20  and  C15_21 
REMARK   10  A    between atoms: C15_21  and  N5_22 
ROOT
HETATM    1  C4  UNL     1      25.515   2.413  52.259  1.00  0.00     0.062 A 
HETATM    2  C5  UNL     1      26.570   1.899  52.975  1.00  0.00     0.043 A 
HETATM    3  C6  UNL     1      26.479   0.749  53.757  1.00  0.00    -0.003 A 
HETATM    4  C9  UNL     1      25.236   0.120  53.789  1.00  0.00     0.078 A 
HETATM    5  C11 UNL     1      24.171   0.659  53.055  1.00  0.00     0.069 A 
HETATM    6  C12 UNL     1      24.294   1.818  52.275  1.00  0.00     0.059 A 
ENDROOT
BRANCH   1   7
HETATM    7  N2  UNL     1      25.650   3.584  51.504  1.00  0.00    -0.324 N 
HETATM    8  C3  UNL     1      26.309   3.563  50.251  1.00  0.00     0.241 C 
HETATM    9  O1  UNL     1      26.798   2.485  49.771  1.00  0.00    -0.271 OA
HETATM   10  H5  UNL     1      25.343   4.584  51.691  1.00  0.00     0.169 HD
BRANCH   8  11
HETATM   11  C2  UNL     1      26.530   4.713  49.338  1.00  0.00     0.250 C 
BRANCH  11  12
HETATM   12  N1  UNL     1      25.448   5.651  49.408  1.00  0.00    -0.303 NA
HETATM   13  C1  UNL     1      25.744   6.832  49.855  1.00  0.00     0.143 C 
ENDBRANCH  11  12
ENDBRANCH   8  11
ENDBRANCH   1   7
BRANCH   6  14
HETATM   14  N4  UNL     1      23.008   2.064  51.715  1.00  0.00    -0.382 N 
HETATM   15  C13 UNL     1      23.028   1.792  50.283  1.00  0.00     0.150 C 
BRANCH  14  16
HETATM   16  C14 UNL     1      21.849   2.569  52.338  1.00  0.00     0.152 C 
BRANCH  16  17
HETATM   17  C15 UNL     1      20.602   1.844  52.493  1.00  0.00     0.291 C 
BRANCH  17  18
HETATM   18  N5  UNL     1      20.572   0.451  52.783  1.00  0.00     0.081 N 
HETATM   19  C16 UNL     1      20.716   0.264  54.271  1.00  0.00     0.309 C 
HETATM   20  C17 UNL     1      19.205  -0.056  52.580  1.00  0.00     0.309 C 
ENDBRANCH  17  18
ENDBRANCH  16  17
ENDBRANCH  14  16
ENDBRANCH   6  14
BRANCH   3  21
HETATM   21  C7  UNL     1      27.690   0.292  54.480  1.00  0.00     0.188 C 
BRANCH  21  22
HETATM   22  N3  UNL     1      28.394  -0.741  53.802  1.00  0.00    -0.308 NA
HETATM   23  C8  UNL     1      29.659  -0.734  53.819  1.00  0.00     0.142 C 
ENDBRANCH  21  22
ENDBRANCH   3  21
BRANCH   4  24
HETATM   24  O2  UNL     1      25.271  -1.000  54.594  1.00  0.00    -0.355 OA
HETATM   25  C10 UNL     1      24.480  -1.303  55.688  1.00  0.00     0.210 C 
ENDBRANCH   4  24
TORSDOF 10
ENDMDL
MODEL 9
REMARK VINA RESULT:      -5.5      2.548      6.936
REMARK  10 active torsions:
REMARK  status: ('A' for Active; 'I' for Inactive)
REMARK    1  A    between atoms: N1_2  and  C2_3 
REMARK    2  A    between atoms: C2_3  and  C3_4 
REMARK       I    between atoms: C3_4  and  N2_6 
REMARK    3  A    between atoms: N2_6  and  C4_7 
REMARK    4  A    between atoms: C6_9  and  C7_10 
REMARK    5  A    between atoms: C7_10  and  N3_11 
REMARK    6  A    between atoms: C9_13  and  O2_14 
REMARK    7  A    between atoms: C12_17  and  N4_18 
REMARK    8  A    between atoms: N4_18  and  C14_20 
REMARK    9  A    between atoms: C14_20  and  C15_21 
REMARK   10  A    between atoms: C15_21  and  N5_22 
ROOT
HETATM    1  C4  UNL     1      23.099   0.798  52.667  1.00  0.00     0.062 A 
HETATM    2  C5  UNL     1      24.018   0.025  53.337  1.00  0.00     0.043 A 
HETATM    3  C6  UNL     1      25.248   0.508  53.782  1.00  0.00    -0.003 A 
HETATM    4  C9  UNL     1      25.519   1.848  53.511  1.00  0.00     0.078 A 
HETATM    5  C11 UNL     1      24.572   2.620  52.826  1.00  0.00     0.069 A 
HETATM    6  C12 UNL     1      23.341   2.105  52.392  1.00  0.00     0.059 A 
ENDROOT
BRANCH   1   7
HETATM    7  N2  UNL     1      21.885   0.262  52.221  1.00  0.00    -0.324 N 
HETATM    8  C3  UNL     1      20.739   0.278  53.053  1.00  0.00     0.241 C 
HETATM    9  O1  UNL     1      20.773   0.778  54.228  1.00  0.00    -0.271 OA
HETATM   10  H5  UNL     1      21.614  -0.210  51.308  1.00  0.00     0.169 HD
BRANCH   8  11
HETATM   11  C2  UNL     1      19.390  -0.247  52.726  1.00  0.00     0.250 C 
BRANCH  11  12
HETATM   12  N1  UNL     1      18.962   0.183  51.428  1.00  0.00    -0.303 NA
HETATM   13  C1  UNL     1      18.576   1.418  51.334  1.00  0.00     0.143 C 
ENDBRANCH  11  12
ENDBRANCH   8  11
ENDBRANCH   1   7
BRANCH   6  14
HETATM   14  N4  UNL     1      22.677   3.169  51.719  1.00  0.00    -0.382 N 
HETATM   15  C13 UNL     1      22.539   2.854  50.303  1.00  0.00     0.150 C 
BRANCH  14  16
HETATM   16  C14 UNL     1      22.249   4.412  52.226  1.00  0.00     0.152 C 
BRANCH  16  17
HETATM   17  C15 UNL     1      21.675   5.484  51.433  1.00  0.00     0.291 C 
BRANCH  17  18
HETATM   18  N5  UNL     1      22.456   6.582  50.975  1.00  0.00     0.081 N 
HETATM   19  C16 UNL     1      23.904   6.309  51.291  1.00  0.00     0.309 C 
HETATM   20  C17 UNL     1      22.496   6.566  49.504  1.00  0.00     0.309 C 
ENDBRANCH  17  18
ENDBRANCH  16  17
ENDBRANCH  14  16
ENDBRANCH   6  14
BRANCH   3  21
HETATM   21  C7  UNL     1      26.153  -0.424  54.496  1.00  0.00     0.188 C 
BRANCH  21  22
HETATM   22  N3  UNL     1      26.686  -1.443  53.659  1.00  0.00    -0.308 NA
HETATM   23  C8  UNL     1      27.818  -1.268  53.126  1.00  0.00     0.142 C 
ENDBRANCH  21  22
ENDBRANCH   3  21
BRANCH   4  24
HETATM   24  O2  UNL     1      26.761   2.206  53.997  1.00  0.00    -0.355 OA
HETATM   25  C10 UNL     1      27.940   2.393  53.299  1.00  0.00     0.210 C 
ENDBRANCH   4  24
TORSDOF 10
ENDMDL
