MODEL 1
REMARK VINA RESULT:      -7.0      0.000      0.000
REMARK  3 active torsions:
REMARK  status: ('A' for Active; 'I' for Inactive)
REMARK    1  A    between atoms: C4_4  and  N1_5 
REMARK    2  A    between atoms: N5_19  and  C14_20 
REMARK    3  A    between atoms: C14_20  and  N6_21 
ROOT
HETATM    1  N1  UNL     1      24.214   3.190  51.370  1.00  0.00    -0.257 N 
HETATM    2  C5  UNL     1      25.191   2.735  52.335  1.00  0.00     0.224 C 
HETATM    3  N2  UNL     1      26.168   2.279  51.586  1.00  0.00    -0.253 NA
HETATM    4  C6  UNL     1      27.313   1.741  52.324  1.00  0.00     0.419 C 
HETATM    5  N3  UNL     1      26.813   0.993  53.498  1.00  0.00     0.106 N 
HETATM    6  C7  UNL     1      25.918  -0.046  52.968  1.00  0.00     0.300 C 
HETATM    7  C8  UNL     1      25.275  -0.764  54.086  1.00  0.00     0.022 C 
HETATM    8  C9  UNL     1      23.951  -0.782  54.315  1.00  0.00     0.012 A 
HETATM    9 CL1  UNL     1      22.502  -1.231  55.173  1.00  0.00    -0.176 Cl
HETATM   10  C10 UNL     1      22.970  -0.038  53.568  1.00  0.00     0.121 A 
HETATM   11  C11 UNL     1      22.037   0.612  52.925  1.00  0.00     0.049 C 
HETATM   12  C12 UNL     1      21.345   1.512  51.945  1.00  0.00     0.187 A 
HETATM   13  N4  UNL     1      20.280   0.808  51.278  1.00  0.00    -0.271 NA
HETATM   14  C13 UNL     1      20.424   0.777  50.017  1.00  0.00     0.207 A 
HETATM   15  N5  UNL     1      21.628   1.467  49.616  1.00  0.00    -0.300 N 
HETATM   16  C15 UNL     1      22.238   1.948  50.841  1.00  0.00     0.154 A 
HETATM   17  N7  UNL     1      23.307   2.568  50.569  1.00  0.00    -0.155 NA
HETATM   18  H11 UNL     1      27.649   0.458  53.862  1.00  0.00     0.318 HD
ENDROOT
BRANCH   1  19
HETATM   19  C4  UNL     1      24.412   4.568  51.420  1.00  0.00     0.112 C 
HETATM   20  C3  UNL     1      23.239   5.450  51.869  1.00  0.00     0.031 C 
HETATM   21  C2  UNL     1      24.037   6.564  51.172  1.00  0.00    -0.015 C 
HETATM   22  C1  UNL     1      23.198   7.621  50.532  1.00  0.00     0.010 C 
HETATM   23  C16 UNL     1      24.507   5.440  50.235  1.00  0.00     0.031 C 
ENDBRANCH   1  19
BRANCH  15  24
HETATM   24  C14 UNL     1      21.828   1.449  48.157  1.00  0.00     0.398 C 
BRANCH  24  25
HETATM   25  N6  UNL     1      22.233   2.773  47.750  1.00  0.00     0.096 N 
HETATM   26  H21 UNL     1      21.913   3.000  46.792  1.00  0.00     0.314 HD
HETATM   27  H22 UNL     1      23.272   2.879  47.749  1.00  0.00     0.314 HD
ENDBRANCH  24  25
ENDBRANCH  15  24
TORSDOF 3
ENDMDL
MODEL 2
REMARK VINA RESULT:      -6.9      6.281      9.077
REMARK  3 active torsions:
REMARK  status: ('A' for Active; 'I' for Inactive)
REMARK    1  A    between atoms: C4_4  and  N1_5 
REMARK    2  A    between atoms: N5_19  and  C14_20 
REMARK    3  A    between atoms: C14_20  and  N6_21 
ROOT
HETATM    1  N1  UNL     1      27.444   8.523  47.160  1.00  0.00    -0.257 N 
HETATM    2  C5  UNL     1      26.071   8.158  47.435  1.00  0.00     0.224 C 
HETATM    3  N2  UNL     1      25.690   9.051  48.319  1.00  0.00    -0.253 NA
HETATM    4  C6  UNL     1      24.310   8.910  48.784  1.00  0.00     0.419 C 
HETATM    5  N3  UNL     1      24.006   7.472  48.946  1.00  0.00     0.106 N 
HETATM    6  C7  UNL     1      25.001   6.952  49.897  1.00  0.00     0.300 C 
HETATM    7  C8  UNL     1      24.848   5.488  50.022  1.00  0.00     0.022 C 
HETATM    8  C9  UNL     1      25.793   4.595  49.683  1.00  0.00     0.012 A 
HETATM    9 CL1  UNL     1      26.458   2.996  49.489  1.00  0.00    -0.176 Cl
HETATM   10  C10 UNL     1      27.055   4.916  49.067  1.00  0.00     0.121 A 
HETATM   11  C11 UNL     1      28.212   5.147  48.509  1.00  0.00     0.049 C 
HETATM   12  C12 UNL     1      29.380   5.859  47.893  1.00  0.00     0.187 A 
HETATM   13  N4  UNL     1      30.605   5.484  48.551  1.00  0.00    -0.271 NA
HETATM   14  C13 UNL     1      31.216   6.475  49.056  1.00  0.00     0.207 A 
HETATM   15  N5  UNL     1      30.496   7.704  48.819  1.00  0.00    -0.300 N 
HETATM   16  C15 UNL     1      29.309   7.332  48.071  1.00  0.00     0.154 A 
HETATM   17  N7  UNL     1      28.621   8.365  47.824  1.00  0.00    -0.155 NA
HETATM   18  H11 UNL     1      23.094   7.440  49.478  1.00  0.00     0.318 HD
ENDROOT
BRANCH   1  19
HETATM   19  C4  UNL     1      27.309   9.156  45.926  1.00  0.00     0.112 C 
HETATM   20  C3  UNL     1      27.997   8.522  44.710  1.00  0.00     0.031 C 
HETATM   21  C2  UNL     1      27.834   9.925  44.104  1.00  0.00    -0.015 C 
HETATM   22  C1  UNL     1      28.928  10.331  43.173  1.00  0.00     0.010 C 
HETATM   23  C16 UNL     1      27.991  10.409  45.555  1.00  0.00     0.031 C 
ENDBRANCH   1  19
BRANCH  15  24
HETATM   24  C14 UNL     1      31.177   8.876  49.394  1.00  0.00     0.398 C 
BRANCH  24  25
HETATM   25  N6  UNL     1      30.178   9.698  50.035  1.00  0.00     0.096 N 
HETATM   26  H21 UNL     1      29.272   9.667  49.536  1.00  0.00     0.314 HD
HETATM   27  H22 UNL     1      30.463  10.702  50.070  1.00  0.00     0.314 HD
ENDBRANCH  24  25
ENDBRANCH  15  24
TORSDOF 3
ENDMDL
MODEL 3
REMARK VINA RESULT:      -6.8      3.170      5.635
REMARK  3 active torsions:
REMARK  status: ('A' for Active; 'I' for Inactive)
REMARK    1  A    between atoms: C4_4  and  N1_5 
REMARK    2  A    between atoms: N5_19  and  C14_20 
REMARK    3  A    between atoms: C14_20  and  N6_21 
ROOT
HETATM    1  N1  UNL     1      23.130   4.660  49.216  1.00  0.00    -0.257 N 
HETATM    2  C5  UNL     1      22.574   3.728  50.173  1.00  0.00     0.224 C 
HETATM    3  N2  UNL     1      22.080   4.508  51.106  1.00  0.00    -0.253 NA
HETATM    4  C6  UNL     1      21.445   3.808  52.224  1.00  0.00     0.419 C 
HETATM    5  N3  UNL     1      22.246   2.608  52.551  1.00  0.00     0.106 N 
HETATM    6  C7  UNL     1      23.600   3.094  52.857  1.00  0.00     0.300 C 
HETATM    7  C8  UNL     1      24.501   1.945  53.074  1.00  0.00     0.022 C 
HETATM    8  C9  UNL     1      25.573   1.665  52.312  1.00  0.00     0.012 A 
HETATM    9 CL1  UNL     1      26.975   0.749  51.835  1.00  0.00    -0.176 Cl
HETATM   10  C10 UNL     1      25.954   2.384  51.123  1.00  0.00     0.121 A 
HETATM   11  C11 UNL     1      26.348   2.997  50.040  1.00  0.00     0.049 C 
HETATM   12  C12 UNL     1      26.413   3.960  48.892  1.00  0.00     0.187 A 
HETATM   13  N4  UNL     1      27.713   4.579  48.825  1.00  0.00    -0.271 NA
HETATM   14  C13 UNL     1      27.661   5.844  48.917  1.00  0.00     0.207 A 
HETATM   15  N5  UNL     1      26.297   6.297  49.063  1.00  0.00    -0.300 N 
HETATM   16  C15 UNL     1      25.476   5.101  49.050  1.00  0.00     0.154 A 
HETATM   17  N7  UNL     1      24.258   5.420  49.175  1.00  0.00    -0.155 NA
HETATM   18  H11 UNL     1      21.873   2.271  53.480  1.00  0.00     0.318 HD
ENDROOT
BRANCH   1  19
HETATM   19  C4  UNL     1      22.157   4.632  48.219  1.00  0.00     0.112 C 
HETATM   20  C3  UNL     1      22.039   3.365  47.361  1.00  0.00     0.031 C 
HETATM   21  C2  UNL     1      21.303   4.302  46.390  1.00  0.00    -0.015 C 
HETATM   22  C1  UNL     1      21.499   3.977  44.946  1.00  0.00     0.010 C 
HETATM   23  C16 UNL     1      22.239   5.383  46.954  1.00  0.00     0.031 C 
ENDBRANCH   1  19
BRANCH  15  24
HETATM   24  C14 UNL     1      26.200   7.762  49.175  1.00  0.00     0.398 C 
BRANCH  24  25
HETATM   25  N6  UNL     1      26.606   8.132  50.511  1.00  0.00     0.096 N 
HETATM   26  H21 UNL     1      26.555   9.154  50.663  1.00  0.00     0.314 HD
HETATM   27  H22 UNL     1      27.592   7.850  50.710  1.00  0.00     0.314 HD
ENDBRANCH  24  25
ENDBRANCH  15  24
TORSDOF 3
ENDMDL
MODEL 4
REMARK VINA RESULT:      -6.7      1.748      2.476
REMARK  3 active torsions:
REMARK  status: ('A' for Active; 'I' for Inactive)
REMARK    1  A    between atoms: C4_4  and  N1_5 
REMARK    2  A    between atoms: N5_19  and  C14_20 
REMARK    3  A    between atoms: C14_20  and  N6_21 
ROOT
HETATM    1  N1  UNL     1      22.783   4.187  51.107  1.00  0.00    -0.257 N 
HETATM    2  C5  UNL     1      24.221   4.317  51.197  1.00  0.00     0.224 C 
HETATM    3  N2  UNL     1      24.612   4.256  49.946  1.00  0.00    -0.253 NA
HETATM    4  C6  UNL     1      26.058   4.361  49.744  1.00  0.00     0.419 C 
HETATM    5  N3  UNL     1      26.745   3.608  50.815  1.00  0.00     0.106 N 
HETATM    6  C7  UNL     1      26.241   2.228  50.729  1.00  0.00     0.300 C 
HETATM    7  C8  UNL     1      26.783   1.432  51.848  1.00  0.00     0.022 C 
HETATM    8  C9  UNL     1      26.035   0.861  52.807  1.00  0.00     0.012 A 
HETATM    9 CL1  UNL     1      25.763  -0.078  54.249  1.00  0.00    -0.176 Cl
HETATM   10  C10 UNL     1      24.609   1.010  52.944  1.00  0.00     0.121 A 
HETATM   11  C11 UNL     1      23.318   1.108  53.117  1.00  0.00     0.049 C 
HETATM   12  C12 UNL     1      21.882   1.497  52.931  1.00  0.00     0.187 A 
HETATM   13  N4  UNL     1      21.042   0.326  52.903  1.00  0.00    -0.271 NA
HETATM   14  C13 UNL     1      20.381   0.221  51.825  1.00  0.00     0.207 A 
HETATM   15  N5  UNL     1      20.668   1.318  50.931  1.00  0.00    -0.300 N 
HETATM   16  C15 UNL     1      21.632   2.153  51.623  1.00  0.00     0.154 A 
HETATM   17  N7  UNL     1      21.935   3.144  50.896  1.00  0.00    -0.155 NA
HETATM   18  H11 UNL     1      27.752   3.538  50.503  1.00  0.00     0.318 HD
ENDROOT
BRANCH   1  19
HETATM   19  C4  UNL     1      22.383   5.508  51.293  1.00  0.00     0.112 C 
HETATM   20  C3  UNL     1      21.145   6.002  50.533  1.00  0.00     0.031 C 
HETATM   21  C2  UNL     1      21.729   7.391  50.832  1.00  0.00    -0.015 C 
HETATM   22  C1  UNL     1      21.470   8.414  49.776  1.00  0.00     0.010 C 
HETATM   23  C16 UNL     1      23.088   6.678  50.739  1.00  0.00     0.031 C 
ENDBRANCH   1  19
BRANCH  15  24
HETATM   24  C14 UNL     1      19.918   1.226  49.667  1.00  0.00     0.398 C 
BRANCH  24  25
HETATM   25  N6  UNL     1      20.863   1.351  48.582  1.00  0.00     0.096 N 
HETATM   26  H21 UNL     1      20.708   0.638  47.849  1.00  0.00     0.314 HD
HETATM   27  H22 UNL     1      21.848   1.233  48.909  1.00  0.00     0.314 HD
ENDBRANCH  24  25
ENDBRANCH  15  24
TORSDOF 3
ENDMDL
MODEL 5
REMARK VINA RESULT:      -6.5      3.384      6.914
REMARK  3 active torsions:
REMARK  status: ('A' for Active; 'I' for Inactive)
REMARK    1  A    between atoms: C4_4  and  N1_5 
REMARK    2  A    between atoms: N5_19  and  C14_20 
REMARK    3  A    between atoms: C14_20  and  N6_21 
ROOT
HETATM    1  N1  UNL     1      24.400   3.700  50.167  1.00  0.00    -0.257 N 
HETATM    2  C5  UNL     1      23.013   3.380  49.906  1.00  0.00     0.224 C 
HETATM    3  N2  UNL     1      23.043   2.857  48.702  1.00  0.00    -0.253 NA
HETATM    4  C6  UNL     1      21.742   2.438  48.178  1.00  0.00     0.419 C 
HETATM    5  N3  UNL     1      20.726   3.439  48.571  1.00  0.00     0.106 N 
HETATM    6  C7  UNL     1      21.190   4.725  48.027  1.00  0.00     0.300 C 
HETATM    7  C8  UNL     1      20.294   5.807  48.480  1.00  0.00     0.022 C 
HETATM    8  C9  UNL     1      20.678   6.837  49.253  1.00  0.00     0.012 A 
HETATM    9 CL1  UNL     1      20.445   8.316  50.144  1.00  0.00    -0.176 Cl
HETATM   10  C10 UNL     1      21.989   6.997  49.829  1.00  0.00     0.121 A 
HETATM   11  C11 UNL     1      23.158   7.196  50.376  1.00  0.00     0.049 C 
HETATM   12  C12 UNL     1      24.589   7.011  50.784  1.00  0.00     0.187 A 
HETATM   13  N4  UNL     1      25.358   8.189  50.475  1.00  0.00    -0.271 NA
HETATM   14  C13 UNL     1      26.327   7.952  49.689  1.00  0.00     0.207 A 
HETATM   15  N5  UNL     1      26.374   6.554  49.332  1.00  0.00    -0.300 N 
HETATM   16  C15 UNL     1      25.264   5.927  50.026  1.00  0.00     0.154 A 
HETATM   17  N7  UNL     1      25.240   4.691  49.760  1.00  0.00    -0.155 NA
HETATM   18  H11 UNL     1      19.871   3.205  47.996  1.00  0.00     0.318 HD
ENDROOT
BRANCH   1  19
HETATM   19  C4  UNL     1      24.758   2.659  51.020  1.00  0.00     0.112 C 
HETATM   20  C3  UNL     1      24.546   2.856  52.527  1.00  0.00     0.031 C 
HETATM   21  C2  UNL     1      25.562   1.708  52.644  1.00  0.00    -0.015 C 
HETATM   22  C1  UNL     1      26.453   1.786  53.839  1.00  0.00     0.010 C 
HETATM   23  C16 UNL     1      26.147   2.291  51.346  1.00  0.00     0.031 C 
ENDBRANCH   1  19
BRANCH  15  24
HETATM   24  C14 UNL     1      27.487   6.243  48.418  1.00  0.00     0.398 C 
BRANCH  24  25
HETATM   25  N6  UNL     1      28.198   5.108  48.957  1.00  0.00     0.096 N 
HETATM   26  H21 UNL     1      28.951   5.395  49.606  1.00  0.00     0.314 HD
HETATM   27  H22 UNL     1      28.652   4.541  48.207  1.00  0.00     0.314 HD
ENDBRANCH  24  25
ENDBRANCH  15  24
TORSDOF 3
ENDMDL
MODEL 6
REMARK VINA RESULT:      -6.5      2.275      5.090
REMARK  3 active torsions:
REMARK  status: ('A' for Active; 'I' for Inactive)
REMARK    1  A    between atoms: C4_4  and  N1_5 
REMARK    2  A    between atoms: N5_19  and  C14_20 
REMARK    3  A    between atoms: C14_20  and  N6_21 
ROOT
HETATM    1  N1  UNL     1      21.210   1.002  51.852  1.00  0.00    -0.257 N 
HETATM    2  C5  UNL     1      21.588  -0.182  52.594  1.00  0.00     0.224 C 
HETATM    3  N2  UNL     1      21.112   0.048  53.795  1.00  0.00    -0.253 NA
HETATM    4  C6  UNL     1      21.361  -1.013  54.772  1.00  0.00     0.419 C 
HETATM    5  N3  UNL     1      22.725  -1.545  54.560  1.00  0.00     0.106 N 
HETATM    6  C7  UNL     1      23.635  -0.397  54.697  1.00  0.00     0.300 C 
HETATM    7  C8  UNL     1      25.014  -0.816  54.376  1.00  0.00     0.022 C 
HETATM    8  C9  UNL     1      25.738  -0.325  53.355  1.00  0.00     0.012 A 
HETATM    9 CL1  UNL     1      27.151  -0.185  52.346  1.00  0.00    -0.176 Cl
HETATM   10  C10 UNL     1      25.256   0.610  52.372  1.00  0.00     0.121 A 
HETATM   11  C11 UNL     1      24.876   1.458  51.454  1.00  0.00     0.049 C 
HETATM   12  C12 UNL     1      24.033   2.400  50.647  1.00  0.00     0.187 A 
HETATM   13  N4  UNL     1      24.703   3.665  50.486  1.00  0.00    -0.271 NA
HETATM   14  C13 UNL     1      24.033   4.639  50.949  1.00  0.00     0.207 A 
HETATM   15  N5  UNL     1      22.780   4.188  51.507  1.00  0.00    -0.300 N 
HETATM   16  C15 UNL     1      22.758   2.748  51.323  1.00  0.00     0.154 A 
HETATM   17  N7  UNL     1      21.681   2.277  51.792  1.00  0.00    -0.155 NA
HETATM   18  H11 UNL     1      22.926  -2.140  55.409  1.00  0.00     0.318 HD
ENDROOT
BRANCH   1  19
HETATM   19  C4  UNL     1      20.125   0.523  51.121  1.00  0.00     0.112 C 
HETATM   20  C3  UNL     1      19.718   1.283  49.852  1.00  0.00     0.031 C 
HETATM   21  C2  UNL     1      18.383   0.546  50.047  1.00  0.00    -0.015 C 
HETATM   22  C1  UNL     1      17.180   1.314  49.610  1.00  0.00     0.010 C 
HETATM   23  C16 UNL     1      18.718   0.642  51.545  1.00  0.00     0.031 C 
ENDBRANCH   1  19
BRANCH  15  24
HETATM   24  C14 UNL     1      21.977   5.293  52.055  1.00  0.00     0.398 C 
BRANCH  24  25
HETATM   25  N6  UNL     1      22.493   6.527  51.510  1.00  0.00     0.096 N 
HETATM   26  H21 UNL     1      23.374   6.815  51.969  1.00  0.00     0.314 HD
HETATM   27  H22 UNL     1      21.821   7.318  51.633  1.00  0.00     0.314 HD
ENDBRANCH  24  25
ENDBRANCH  15  24
TORSDOF 3
ENDMDL
MODEL 7
REMARK VINA RESULT:      -6.4      2.869      5.743
REMARK  3 active torsions:
REMARK  status: ('A' for Active; 'I' for Inactive)
REMARK    1  A    between atoms: C4_4  and  N1_5 
REMARK    2  A    between atoms: N5_19  and  C14_20 
REMARK    3  A    between atoms: C14_20  and  N6_21 
ROOT
HETATM    1  N1  UNL     1      24.000   3.274  51.394  1.00  0.00    -0.257 N 
HETATM    2  C5  UNL     1      24.523   4.412  50.670  1.00  0.00     0.224 C 
HETATM    3  N2  UNL     1      24.132   5.437  51.391  1.00  0.00    -0.253 NA
HETATM    4  C6  UNL     1      24.533   6.746  50.871  1.00  0.00     0.419 C 
HETATM    5  N3  UNL     1      24.406   6.732  49.398  1.00  0.00     0.106 N 
HETATM    6  C7  UNL     1      23.003   6.394  49.114  1.00  0.00     0.300 C 
HETATM    7  C8  UNL     1      22.816   6.236  47.658  1.00  0.00     0.022 C 
HETATM    8  C9  UNL     1      22.442   5.092  47.060  1.00  0.00     0.012 A 
HETATM    9 CL1  UNL     1      22.029   4.081  45.702  1.00  0.00    -0.176 Cl
HETATM   10  C10 UNL     1      22.254   3.830  47.729  1.00  0.00     0.121 A 
HETATM   11  C11 UNL     1      22.068   2.661  48.281  1.00  0.00     0.049 C 
HETATM   12  C12 UNL     1      21.980   1.566  49.302  1.00  0.00     0.187 A 
HETATM   13  N4  UNL     1      20.698   0.912  49.231  1.00  0.00    -0.271 NA
HETATM   14  C13 UNL     1      20.055   0.970  50.324  1.00  0.00     0.207 A 
HETATM   15  N5  UNL     1      20.806   1.683  51.330  1.00  0.00    -0.300 N 
HETATM   16  C15 UNL     1      22.050   2.077  50.694  1.00  0.00     0.154 A 
HETATM   17  N7  UNL     1      22.767   2.712  51.521  1.00  0.00    -0.155 NA
HETATM   18  H11 UNL     1      24.496   7.743  49.103  1.00  0.00     0.318 HD
ENDROOT
BRANCH   1  19
HETATM   19  C4  UNL     1      25.151   2.808  52.026  1.00  0.00     0.112 C 
HETATM   20  C3  UNL     1      26.148   1.987  51.197  1.00  0.00     0.031 C 
HETATM   21  C2  UNL     1      26.643   1.519  52.575  1.00  0.00    -0.015 C 
HETATM   22  C1  UNL     1      27.149   0.115  52.609  1.00  0.00     0.010 C 
HETATM   23  C16 UNL     1      25.177   1.702  53.000  1.00  0.00     0.031 C 
ENDBRANCH   1  19
BRANCH  15  24
HETATM   24  C14 UNL     1      20.088   1.771  52.613  1.00  0.00     0.398 C 
BRANCH  24  25
HETATM   25  N6  UNL     1      20.779   0.935  53.566  1.00  0.00     0.096 N 
HETATM   26  H21 UNL     1      21.807   1.040  53.499  1.00  0.00     0.314 HD
HETATM   27  H22 UNL     1      20.573  -0.078  53.416  1.00  0.00     0.314 HD
ENDBRANCH  24  25
ENDBRANCH  15  24
TORSDOF 3
ENDMDL
MODEL 8
REMARK VINA RESULT:      -6.4      2.095      2.850
REMARK  3 active torsions:
REMARK  status: ('A' for Active; 'I' for Inactive)
REMARK    1  A    between atoms: C4_4  and  N1_5 
REMARK    2  A    between atoms: N5_19  and  C14_20 
REMARK    3  A    between atoms: C14_20  and  N6_21 
ROOT
HETATM    1  N1  UNL     1      23.090   4.965  50.235  1.00  0.00    -0.257 N 
HETATM    2  C5  UNL     1      24.525   4.999  50.421  1.00  0.00     0.224 C 
HETATM    3  N2  UNL     1      24.993   4.787  49.213  1.00  0.00    -0.253 NA
HETATM    4  C6  UNL     1      26.454   4.767  49.112  1.00  0.00     0.419 C 
HETATM    5  N3  UNL     1      27.004   4.073  50.297  1.00  0.00     0.106 N 
HETATM    6  C7  UNL     1      26.399   2.732  50.300  1.00  0.00     0.300 C 
HETATM    7  C8  UNL     1      26.799   2.011  51.524  1.00  0.00     0.022 C 
HETATM    8  C9  UNL     1      25.944   1.592  52.473  1.00  0.00     0.012 A 
HETATM    9 CL1  UNL     1      25.501   0.820  53.971  1.00  0.00    -0.176 Cl
HETATM   10  C10 UNL     1      24.528   1.858  52.488  1.00  0.00     0.121 A 
HETATM   11  C11 UNL     1      23.240   2.066  52.554  1.00  0.00     0.049 C 
HETATM   12  C12 UNL     1      21.855   2.538  52.225  1.00  0.00     0.187 A 
HETATM   13  N4  UNL     1      20.929   1.434  52.242  1.00  0.00    -0.271 NA
HETATM   14  C13 UNL     1      20.337   1.272  51.131  1.00  0.00     0.207 A 
HETATM   15  N5  UNL     1      20.770   2.254  50.165  1.00  0.00    -0.300 N 
HETATM   16  C15 UNL     1      21.749   3.080  50.847  1.00  0.00     0.154 A 
HETATM   17  N7  UNL     1      22.178   3.971  50.058  1.00  0.00    -0.155 NA
HETATM   18  H11 UNL     1      28.021   3.900  50.069  1.00  0.00     0.318 HD
ENDROOT
BRANCH   1  19
HETATM   19  C4  UNL     1      22.785   6.323  50.269  1.00  0.00     0.112 C 
HETATM   20  C3  UNL     1      21.510   6.758  51.004  1.00  0.00     0.031 C 
HETATM   21  C2  UNL     1      21.669   8.036  50.164  1.00  0.00    -0.015 C 
HETATM   22  C1  UNL     1      20.384   8.682  49.767  1.00  0.00     0.010 C 
HETATM   23  C16 UNL     1      22.284   7.093  49.116  1.00  0.00     0.031 C 
ENDBRANCH   1  19
BRANCH  15  24
HETATM   24  C14 UNL     1      20.103   2.094  48.861  1.00  0.00     0.398 C 
BRANCH  24  25
HETATM   25  N6  UNL     1      21.057   2.433  47.832  1.00  0.00     0.096 N 
HETATM   26  H21 UNL     1      20.594   2.668  46.936  1.00  0.00     0.314 HD
HETATM   27  H22 UNL     1      21.711   1.644  47.631  1.00  0.00     0.314 HD
ENDBRANCH  24  25
ENDBRANCH  15  24
TORSDOF 3
ENDMDL
MODEL 9
REMARK VINA RESULT:      -6.4      2.387      5.104
REMARK  3 active torsions:
REMARK  status: ('A' for Active; 'I' for Inactive)
REMARK    1  A    between atoms: C4_4  and  N1_5 
REMARK    2  A    between atoms: N5_19  and  C14_20 
REMARK    3  A    between atoms: C14_20  and  N6_21 
ROOT
HETATM    1  N1  UNL     1      21.540   3.005  50.086  1.00  0.00    -0.257 N 
HETATM    2  C5  UNL     1      21.415   1.752  50.798  1.00  0.00     0.224 C 
HETATM    3  N2  UNL     1      20.700   2.071  51.852  1.00  0.00    -0.253 NA
HETATM    4  C6  UNL     1      20.421   0.963  52.767  1.00  0.00     0.419 C 
HETATM    5  N3  UNL     1      21.627   0.113  52.869  1.00  0.00     0.106 N 
HETATM    6  C7  UNL     1      22.709   0.997  53.331  1.00  0.00     0.300 C 
HETATM    7  C8  UNL     1      23.985   0.254  53.340  1.00  0.00     0.022 C 
HETATM    8  C9  UNL     1      25.052   0.568  52.585  1.00  0.00     0.012 A 
HETATM    9 CL1  UNL     1      26.677   0.372  51.988  1.00  0.00    -0.176 Cl
HETATM   10  C10 UNL     1      25.087   1.612  51.593  1.00  0.00     0.121 A 
HETATM   11  C11 UNL     1      25.178   2.543  50.683  1.00  0.00     0.049 C 
HETATM   12  C12 UNL     1      24.829   3.680  49.768  1.00  0.00     0.187 A 
HETATM   13  N4  UNL     1      25.795   4.742  49.892  1.00  0.00    -0.271 NA
HETATM   14  C13 UNL     1      25.273   5.843  50.247  1.00  0.00     0.207 A 
HETATM   15  N5  UNL     1      23.846   5.707  50.424  1.00  0.00    -0.300 N 
HETATM   16  C15 UNL     1      23.537   4.322  50.121  1.00  0.00     0.154 A 
HETATM   17  N7  UNL     1      22.295   4.124  50.256  1.00  0.00    -0.155 NA
HETATM   18  H11 UNL     1      21.446  -0.529  53.688  1.00  0.00     0.318 HD
ENDROOT
BRANCH   1  19
HETATM   19  C4  UNL     1      20.611   2.824  49.063  1.00  0.00     0.112 C 
HETATM   20  C3  UNL     1      21.134   2.711  47.625  1.00  0.00     0.031 C 
HETATM   21  C2  UNL     1      19.686   3.071  47.254  1.00  0.00    -0.015 C 
HETATM   22  C1  UNL     1      19.546   3.881  46.008  1.00  0.00     0.010 C 
HETATM   23  C16 UNL     1      19.707   3.876  48.564  1.00  0.00     0.031 C 
ENDBRANCH   1  19
BRANCH  15  24
HETATM   24  C14 UNL     1      23.207   6.967  50.839  1.00  0.00     0.398 C 
BRANCH  24  25
HETATM   25  N6  UNL     1      24.204   7.768  51.510  1.00  0.00     0.096 N 
HETATM   26  H21 UNL     1      23.819   8.247  52.343  1.00  0.00     0.314 HD
HETATM   27  H22 UNL     1      24.587   8.515  50.888  1.00  0.00     0.314 HD
ENDBRANCH  24  25
ENDBRANCH  15  24
TORSDOF 3
ENDMDL
