MODEL 1
REMARK VINA RESULT:      -8.5      0.000      0.000
REMARK  8 active torsions:
REMARK  status: ('A' for Active; 'I' for Inactive)
REMARK    1  A    between atoms: C2_2  and  C3_3 
REMARK    2  A    between atoms: C3_3  and  N1_4 
REMARK    3  A    between atoms: C3_3  and  C13_19 
REMARK    4  A    between atoms: N1_4  and  C4_5 
REMARK    5  A    between atoms: C6_7  and  N2_8 
REMARK    6  A    between atoms: N2_8  and  C7_9 
REMARK    7  A    between atoms: C12_16  and  N4_17 
REMARK    8  A    between atoms: C20_26  and  O1_27 
ROOT
HETATM    1  C4  UNL     1      23.441   2.397  51.674  1.00  0.00     0.146 A 
HETATM    2  C5  UNL     1      22.309   1.643  52.000  1.00  0.00     0.101 A 
HETATM    3  C6  UNL     1      21.130   2.244  52.304  1.00  0.00     0.147 A 
HETATM    4  N3  UNL     1      21.084   3.587  52.282  1.00  0.00    -0.046 NA
HETATM    5  C12 UNL     1      22.144   4.351  51.975  1.00  0.00     0.724 A 
HETATM    6  N5  UNL     1      23.301   3.732  51.678  1.00  0.00    -0.046 NA
ENDROOT
BRANCH   1   7
HETATM    7  N1  UNL     1      24.683   1.749  51.354  1.00  0.00    -0.365 N 
HETATM    8  H5  UNL     1      24.666   0.969  50.692  1.00  0.00     0.161 HD
BRANCH   7   9
HETATM    9  C3  UNL     1      25.875   2.258  52.002  1.00  0.00     0.119 C 
BRANCH   9  10
HETATM   10  C2  UNL     1      26.831   2.698  50.978  1.00  0.00    -0.011 C 
HETATM   11  C1  UNL     1      26.441   3.221  49.822  1.00  0.00     0.009 C 
ENDBRANCH   9  10
BRANCH   9  12
HETATM   12  C13 UNL     1      26.429   1.231  52.966  1.00  0.00     0.091 C 
HETATM   13  C14 UNL     1      26.434  -0.072  52.270  1.00  0.00    -0.017 C 
HETATM   14  C15 UNL     1      27.001  -1.279  52.340  1.00  0.00    -0.026 C 
HETATM   15  C16 UNL     1      27.988  -1.886  53.270  1.00  0.00     0.054 C 
HETATM   16  C17 UNL     1      29.308  -1.184  53.227  1.00  0.00    -0.023 C 
HETATM   17  C18 UNL     1      29.688   0.082  53.454  1.00  0.00    -0.001 C 
HETATM   18  C19 UNL     1      28.952   1.282  53.835  1.00  0.00     0.032 C 
HETATM   19  C20 UNL     1      27.679   1.628  53.592  1.00  0.00     0.053 C 
BRANCH  19  20
HETATM   20  O1  UNL     1      27.482   2.889  54.185  1.00  0.00    -0.364 OA
HETATM   21  H22 UNL     1      27.965   3.692  53.809  1.00  0.00     0.217 HD
ENDBRANCH  19  20
ENDBRANCH   9  12
ENDBRANCH   7   9
ENDBRANCH   1   7
BRANCH   3  22
HETATM   22  N2  UNL     1      19.965   1.506  52.639  1.00  0.00    -0.363 N 
HETATM   23  H7  UNL     1      19.225   1.926  53.240  1.00  0.00     0.162 HD
BRANCH  22  24
HETATM   24  C7  UNL     1      19.780   0.152  52.152  1.00  0.00     0.130 A 
HETATM   25  C8  UNL     1      19.369  -0.752  53.282  1.00  0.00     0.003 A 
HETATM   26  C9  UNL     1      18.101  -1.173  53.174  1.00  0.00     0.017 A 
HETATM   27  C10 UNL     1      17.597  -0.568  51.960  1.00  0.00     0.009 A 
HETATM   28 BR1  UNL     1      15.782  -0.932  51.442  1.00  0.00    -0.051 Br
HETATM   29  C11 UNL     1      18.506   0.182  51.358  1.00  0.00     0.021 A 
ENDBRANCH  22  24
ENDBRANCH   3  22
BRANCH   5  30
HETATM   30  N4  UNL     1      22.099   5.787  51.951  1.00  0.00    -0.231 N 
HETATM   31  H12 UNL     1      22.837   6.549  51.927  1.00  0.00     0.174 HD
HETATM   32  H13 UNL     1      21.086   6.066  51.964  1.00  0.00     0.174 HD
ENDBRANCH   5  30
TORSDOF 8
ENDMDL
MODEL 2
REMARK VINA RESULT:      -8.5      4.325      6.714
REMARK  8 active torsions:
REMARK  status: ('A' for Active; 'I' for Inactive)
REMARK    1  A    between atoms: C2_2  and  C3_3 
REMARK    2  A    between atoms: C3_3  and  N1_4 
REMARK    3  A    between atoms: C3_3  and  C13_19 
REMARK    4  A    between atoms: N1_4  and  C4_5 
REMARK    5  A    between atoms: C6_7  and  N2_8 
REMARK    6  A    between atoms: N2_8  and  C7_9 
REMARK    7  A    between atoms: C12_16  and  N4_17 
REMARK    8  A    between atoms: C20_26  and  O1_27 
ROOT
HETATM    1  C4  UNL     1      24.690   2.080  52.086  1.00  0.00     0.146 A 
HETATM    2  C5  UNL     1      25.494   3.166  51.725  1.00  0.00     0.101 A 
HETATM    3  C6  UNL     1      25.256   3.864  50.585  1.00  0.00     0.147 A 
HETATM    4  N3  UNL     1      24.225   3.480  49.814  1.00  0.00    -0.046 NA
HETATM    5  C12 UNL     1      23.428   2.443  50.121  1.00  0.00     0.724 A 
HETATM    6  N5  UNL     1      23.684   1.767  51.256  1.00  0.00    -0.046 NA
ENDROOT
BRANCH   1   7
HETATM    7  N1  UNL     1      24.953   1.349  53.296  1.00  0.00    -0.365 N 
HETATM    8  H5  UNL     1      25.247   1.872  54.124  1.00  0.00     0.161 HD
BRANCH   7   9
HETATM    9  C3  UNL     1      24.776  -0.089  53.245  1.00  0.00     0.119 C 
BRANCH   9  10
HETATM   10  C2  UNL     1      23.491  -0.439  53.864  1.00  0.00    -0.011 C 
HETATM   11  C1  UNL     1      23.412  -1.176  54.965  1.00  0.00     0.009 C 
ENDBRANCH   9  10
BRANCH   9  12
HETATM   12  C13 UNL     1      25.970  -0.787  53.858  1.00  0.00     0.091 C 
HETATM   13  C14 UNL     1      26.516  -1.707  52.840  1.00  0.00    -0.017 C 
HETATM   14  C15 UNL     1      27.633  -2.378  52.545  1.00  0.00    -0.026 C 
HETATM   15  C16 UNL     1      28.957  -2.489  53.210  1.00  0.00     0.054 C 
HETATM   16  C17 UNL     1      29.670  -1.177  53.269  1.00  0.00    -0.023 C 
HETATM   17  C18 UNL     1      29.366   0.017  53.801  1.00  0.00    -0.001 C 
HETATM   18  C19 UNL     1      28.206   0.503  54.539  1.00  0.00     0.032 C 
HETATM   19  C20 UNL     1      26.922   0.116  54.483  1.00  0.00     0.053 C 
BRANCH  19  20
HETATM   20  O1  UNL     1      26.218   0.913  55.404  1.00  0.00    -0.364 OA
HETATM   21  H22 UNL     1      26.674   1.197  56.259  1.00  0.00     0.217 HD
ENDBRANCH  19  20
ENDBRANCH   9  12
ENDBRANCH   7   9
ENDBRANCH   1   7
BRANCH   3  22
HETATM   22  N2  UNL     1      26.053   4.970  50.191  1.00  0.00    -0.363 N 
HETATM   23  H7  UNL     1      26.429   5.634  50.900  1.00  0.00     0.162 HD
BRANCH  22  24
HETATM   24  C7  UNL     1      26.360   5.200  48.792  1.00  0.00     0.130 A 
HETATM   25  C8  UNL     1      26.510   6.675  48.531  1.00  0.00     0.003 A 
HETATM   26  C9  UNL     1      27.773   7.026  48.254  1.00  0.00     0.017 A 
HETATM   27  C10 UNL     1      28.536   5.799  48.315  1.00  0.00     0.009 A 
HETATM   28 BR1  UNL     1      30.425   5.879  47.970  1.00  0.00    -0.051 Br
HETATM   29  C11 UNL     1      27.782   4.753  48.613  1.00  0.00     0.021 A 
ENDBRANCH  22  24
ENDBRANCH   3  22
BRANCH   5  30
HETATM   30  N4  UNL     1      22.325   2.029  49.299  1.00  0.00    -0.231 N 
HETATM   31  H12 UNL     1      22.241   1.458  48.408  1.00  0.00     0.174 HD
HETATM   32  H13 UNL     1      21.450   2.411  49.737  1.00  0.00     0.174 HD
ENDBRANCH   5  30
TORSDOF 8
ENDMDL
MODEL 3
REMARK VINA RESULT:      -8.3      2.590      5.339
REMARK  8 active torsions:
REMARK  status: ('A' for Active; 'I' for Inactive)
REMARK    1  A    between atoms: C2_2  and  C3_3 
REMARK    2  A    between atoms: C3_3  and  N1_4 
REMARK    3  A    between atoms: C3_3  and  C13_19 
REMARK    4  A    between atoms: N1_4  and  C4_5 
REMARK    5  A    between atoms: C6_7  and  N2_8 
REMARK    6  A    between atoms: N2_8  and  C7_9 
REMARK    7  A    between atoms: C12_16  and  N4_17 
REMARK    8  A    between atoms: C20_26  and  O1_27 
ROOT
HETATM    1  C4  UNL     1      25.572   1.752  52.778  1.00  0.00     0.146 A 
HETATM    2  C5  UNL     1      24.359   1.055  52.813  1.00  0.00     0.101 A 
HETATM    3  C6  UNL     1      24.252  -0.132  53.462  1.00  0.00     0.147 A 
HETATM    4  N3  UNL     1      25.348  -0.618  54.070  1.00  0.00    -0.046 NA
HETATM    5  C12 UNL     1      26.532   0.015  54.062  1.00  0.00     0.724 A 
HETATM    6  N5  UNL     1      26.612   1.190  53.412  1.00  0.00    -0.046 NA
ENDROOT
BRANCH   1   7
HETATM    7  N1  UNL     1      25.671   3.008  52.086  1.00  0.00    -0.365 N 
HETATM    8  H5  UNL     1      25.865   3.849  52.635  1.00  0.00     0.161 HD
BRANCH   7   9
HETATM    9  C3  UNL     1      25.486   2.983  50.649  1.00  0.00     0.119 C 
BRANCH   9  10
HETATM   10  C2  UNL     1      26.662   3.578  50.001  1.00  0.00    -0.011 C 
HETATM   11  C1  UNL     1      26.560   4.530  49.082  1.00  0.00     0.009 C 
ENDBRANCH   9  10
BRANCH   9  12
HETATM   12  C13 UNL     1      24.175   3.639  50.275  1.00  0.00     0.091 C 
HETATM   13  C14 UNL     1      23.303   2.592  49.705  1.00  0.00    -0.017 C 
HETATM   14  C15 UNL     1      22.016   2.345  49.450  1.00  0.00    -0.026 C 
HETATM   15  C16 UNL     1      20.769   3.125  49.664  1.00  0.00     0.054 C 
HETATM   16  C17 UNL     1      20.511   3.389  51.112  1.00  0.00    -0.023 C 
HETATM   17  C18 UNL     1      21.209   4.007  52.077  1.00  0.00    -0.001 C 
HETATM   18  C19 UNL     1      22.508   4.669  52.087  1.00  0.00     0.032 C 
HETATM   19  C20 UNL     1      23.598   4.445  51.337  1.00  0.00     0.053 C 
BRANCH  19  20
HETATM   20  O1  UNL     1      24.575   5.367  51.756  1.00  0.00    -0.364 OA
HETATM   21  H22 UNL     1      24.871   5.368  52.722  1.00  0.00     0.217 HD
ENDBRANCH  19  20
ENDBRANCH   9  12
ENDBRANCH   7   9
ENDBRANCH   1   7
BRANCH   3  22
HETATM   22  N2  UNL     1      23.037  -0.862  53.516  1.00  0.00    -0.363 N 
HETATM   23  H7  UNL     1      22.914  -1.731  52.956  1.00  0.00     0.162 HD
BRANCH  22  24
HETATM   24  C7  UNL     1      21.941  -0.414  54.354  1.00  0.00     0.130 A 
HETATM   25  C8  UNL     1      21.110   0.602  53.618  1.00  0.00     0.003 A 
HETATM   26  C9  UNL     1      19.894   0.142  53.295  1.00  0.00     0.017 A 
HETATM   27  C10 UNL     1      19.848  -1.213  53.801  1.00  0.00     0.009 A 
HETATM   28 BR1  UNL     1      18.242  -2.234  53.536  1.00  0.00    -0.051 Br
HETATM   29  C11 UNL     1      20.975  -1.562  54.401  1.00  0.00     0.021 A 
ENDBRANCH  22  24
ENDBRANCH   3  22
BRANCH   5  30
HETATM   30  N4  UNL     1      27.706  -0.502  54.710  1.00  0.00    -0.231 N 
HETATM   31  H12 UNL     1      27.902  -0.899  55.674  1.00  0.00     0.174 HD
HETATM   32  H13 UNL     1      28.495  -0.439  54.020  1.00  0.00     0.174 HD
ENDBRANCH   5  30
TORSDOF 8
ENDMDL
MODEL 4
REMARK VINA RESULT:      -8.1      4.126      7.853
REMARK  8 active torsions:
REMARK  status: ('A' for Active; 'I' for Inactive)
REMARK    1  A    between atoms: C2_2  and  C3_3 
REMARK    2  A    between atoms: C3_3  and  N1_4 
REMARK    3  A    between atoms: C3_3  and  C13_19 
REMARK    4  A    between atoms: N1_4  and  C4_5 
REMARK    5  A    between atoms: C6_7  and  N2_8 
REMARK    6  A    between atoms: N2_8  and  C7_9 
REMARK    7  A    between atoms: C12_16  and  N4_17 
REMARK    8  A    between atoms: C20_26  and  O1_27 
ROOT
HETATM    1  C4  UNL     1      24.593   0.652  52.738  1.00  0.00     0.146 A 
HETATM    2  C5  UNL     1      25.056   1.691  51.923  1.00  0.00     0.101 A 
HETATM    3  C6  UNL     1      26.341   2.121  51.997  1.00  0.00     0.147 A 
HETATM    4  N3  UNL     1      27.157   1.517  52.879  1.00  0.00    -0.046 NA
HETATM    5  C12 UNL     1      26.757   0.517  53.681  1.00  0.00     0.724 A 
HETATM    6  N5  UNL     1      25.478   0.109  53.588  1.00  0.00    -0.046 NA
ENDROOT
BRANCH   1   7
HETATM    7  N1  UNL     1      23.230   0.207  52.649  1.00  0.00    -0.365 N 
HETATM    8  H5  UNL     1      23.038  -0.676  52.170  1.00  0.00     0.161 HD
BRANCH   7   9
HETATM    9  C3  UNL     1      22.222   1.055  53.254  1.00  0.00     0.119 C 
BRANCH   9  10
HETATM   10  C2  UNL     1      21.402   0.252  54.170  1.00  0.00    -0.011 C 
HETATM   11  C1  UNL     1      21.777  -0.951  54.588  1.00  0.00     0.009 C 
ENDBRANCH   9  10
BRANCH   9  12
HETATM   12  C13 UNL     1      21.430   1.776  52.185  1.00  0.00     0.091 C 
HETATM   13  C14 UNL     1      21.850   3.192  52.201  1.00  0.00    -0.017 C 
HETATM   14  C15 UNL     1      21.835   4.284  51.432  1.00  0.00    -0.026 C 
HETATM   15  C16 UNL     1      21.319   4.557  50.066  1.00  0.00     0.054 C 
HETATM   16  C17 UNL     1      22.018   3.742  49.026  1.00  0.00    -0.023 C 
HETATM   17  C18 UNL     1      22.172   2.422  48.837  1.00  0.00    -0.001 C 
HETATM   18  C19 UNL     1      21.712   1.256  49.582  1.00  0.00     0.032 C 
HETATM   19  C20 UNL     1      21.453   1.115  50.891  1.00  0.00     0.053 C 
BRANCH  19  20
HETATM   20  O1  UNL     1      21.037  -0.216  51.080  1.00  0.00    -0.364 OA
HETATM   21  H22 UNL     1      21.404  -0.741  51.861  1.00  0.00     0.217 HD
ENDBRANCH  19  20
ENDBRANCH   9  12
ENDBRANCH   7   9
ENDBRANCH   1   7
BRANCH   3  22
HETATM   22  N2  UNL     1      26.840   3.171  51.185  1.00  0.00    -0.363 N 
HETATM   23  H7  UNL     1      27.700   3.691  51.457  1.00  0.00     0.162 HD
BRANCH  22  24
HETATM   24  C7  UNL     1      26.162   3.543  49.957  1.00  0.00     0.130 A 
HETATM   25  C8  UNL     1      25.272   4.733  50.199  1.00  0.00     0.003 A 
HETATM   26  C9  UNL     1      25.715   5.843  49.592  1.00  0.00     0.017 A 
HETATM   27  C10 UNL     1      26.929   5.451  48.912  1.00  0.00     0.009 A 
HETATM   28 BR1  UNL     1      27.885   6.783  47.908  1.00  0.00    -0.051 Br
HETATM   29  C11 UNL     1      27.215   4.172  49.091  1.00  0.00     0.021 A 
ENDBRANCH  22  24
ENDBRANCH   3  22
BRANCH   5  30
HETATM   30  N4  UNL     1      27.626  -0.130  54.625  1.00  0.00    -0.231 N 
HETATM   31  H12 UNL     1      27.759  -1.135  54.937  1.00  0.00     0.174 HD
HETATM   32  H13 UNL     1      28.225   0.616  55.057  1.00  0.00     0.174 HD
ENDBRANCH   5  30
TORSDOF 8
ENDMDL
MODEL 5
REMARK VINA RESULT:      -8.1      2.298      3.482
REMARK  8 active torsions:
REMARK  status: ('A' for Active; 'I' for Inactive)
REMARK    1  A    between atoms: C2_2  and  C3_3 
REMARK    2  A    between atoms: C3_3  and  N1_4 
REMARK    3  A    between atoms: C3_3  and  C13_19 
REMARK    4  A    between atoms: N1_4  and  C4_5 
REMARK    5  A    between atoms: C6_7  and  N2_8 
REMARK    6  A    between atoms: N2_8  and  C7_9 
REMARK    7  A    between atoms: C12_16  and  N4_17 
REMARK    8  A    between atoms: C20_26  and  O1_27 
ROOT
HETATM    1  C4  UNL     1      25.159   2.461  51.914  1.00  0.00     0.146 A 
HETATM    2  C5  UNL     1      23.852   2.830  51.578  1.00  0.00     0.101 A 
HETATM    3  C6  UNL     1      23.596   3.565  50.466  1.00  0.00     0.147 A 
HETATM    4  N3  UNL     1      24.637   3.928  49.697  1.00  0.00    -0.046 NA
HETATM    5  C12 UNL     1      25.907   3.597  49.981  1.00  0.00     0.724 A 
HETATM    6  N5  UNL     1      26.135   2.868  51.088  1.00  0.00    -0.046 NA
ENDROOT
BRANCH   1   7
HETATM    7  N1  UNL     1      25.416   1.683  53.095  1.00  0.00    -0.365 N 
HETATM    8  H5  UNL     1      25.852   2.147  53.895  1.00  0.00     0.161 HD
BRANCH   7   9
HETATM    9  C3  UNL     1      25.032   0.286  53.056  1.00  0.00     0.119 C 
BRANCH   9  10
HETATM   10  C2  UNL     1      23.687   0.140  53.629  1.00  0.00    -0.011 C 
HETATM   11  C1  UNL     1      22.849  -0.812  53.238  1.00  0.00     0.009 C 
ENDBRANCH   9  10
BRANCH   9  12
HETATM   12  C13 UNL     1      26.086  -0.568  53.726  1.00  0.00     0.091 C 
HETATM   13  C14 UNL     1      26.561  -1.548  52.728  1.00  0.00    -0.017 C 
HETATM   14  C15 UNL     1      27.593  -2.361  52.487  1.00  0.00    -0.026 C 
HETATM   15  C16 UNL     1      28.852  -2.650  53.222  1.00  0.00     0.054 C 
HETATM   16  C17 UNL     1      29.728  -1.445  53.334  1.00  0.00    -0.023 C 
HETATM   17  C18 UNL     1      29.556  -0.224  53.864  1.00  0.00    -0.001 C 
HETATM   18  C19 UNL     1      28.432   0.409  54.542  1.00  0.00     0.032 C 
HETATM   19  C20 UNL     1      27.113   0.197  54.412  1.00  0.00     0.053 C 
BRANCH  19  20
HETATM   20  O1  UNL     1      26.471   1.077  55.303  1.00  0.00    -0.364 OA
HETATM   21  H22 UNL     1      26.225   2.005  54.989  1.00  0.00     0.217 HD
ENDBRANCH  19  20
ENDBRANCH   9  12
ENDBRANCH   7   9
ENDBRANCH   1   7
BRANCH   3  22
HETATM   22  N2  UNL     1      22.282   3.954  50.098  1.00  0.00    -0.363 N 
HETATM   23  H7  UNL     1      21.884   4.858  50.427  1.00  0.00     0.162 HD
BRANCH  22  24
HETATM   24  C7  UNL     1      21.466   3.101  49.254  1.00  0.00     0.130 A 
HETATM   25  C8  UNL     1      22.111   1.749  49.108  1.00  0.00     0.003 A 
HETATM   26  C9  UNL     1      21.429   0.780  49.733  1.00  0.00     0.017 A 
HETATM   27  C10 UNL     1      20.287   1.436  50.331  1.00  0.00     0.009 A 
HETATM   28 BR1  UNL     1      19.041   0.370  51.333  1.00  0.00    -0.051 Br
HETATM   29  C11 UNL     1      20.272   2.737  50.086  1.00  0.00     0.021 A 
ENDBRANCH  22  24
ENDBRANCH   3  22
BRANCH   5  30
HETATM   30  N4  UNL     1      27.023   3.984  49.162  1.00  0.00    -0.231 N 
HETATM   31  H12 UNL     1      27.956   3.537  48.926  1.00  0.00     0.174 HD
HETATM   32  H13 UNL     1      26.790   4.918  48.742  1.00  0.00     0.174 HD
ENDBRANCH   5  30
TORSDOF 8
ENDMDL
MODEL 6
REMARK VINA RESULT:      -8.0      4.321      7.202
REMARK  8 active torsions:
REMARK  status: ('A' for Active; 'I' for Inactive)
REMARK    1  A    between atoms: C2_2  and  C3_3 
REMARK    2  A    between atoms: C3_3  and  N1_4 
REMARK    3  A    between atoms: C3_3  and  C13_19 
REMARK    4  A    between atoms: N1_4  and  C4_5 
REMARK    5  A    between atoms: C6_7  and  N2_8 
REMARK    6  A    between atoms: N2_8  and  C7_9 
REMARK    7  A    between atoms: C12_16  and  N4_17 
REMARK    8  A    between atoms: C20_26  and  O1_27 
ROOT
HETATM    1  C4  UNL     1      22.826   5.423  51.349  1.00  0.00     0.146 A 
HETATM    2  C5  UNL     1      24.074   6.055  51.316  1.00  0.00     0.101 A 
HETATM    3  C6  UNL     1      24.195   7.347  50.917  1.00  0.00     0.147 A 
HETATM    4  N3  UNL     1      23.078   8.001  50.555  1.00  0.00    -0.046 NA
HETATM    5  C12 UNL     1      21.860   7.436  50.570  1.00  0.00     0.724 A 
HETATM    6  N5  UNL     1      21.767   6.154  50.969  1.00  0.00    -0.046 NA
ENDROOT
BRANCH   1   7
HETATM    7  N1  UNL     1      22.712   4.055  51.774  1.00  0.00    -0.365 N 
HETATM    8  H5  UNL     1      21.998   3.821  52.467  1.00  0.00     0.161 HD
BRANCH   7   9
HETATM    9  C3  UNL     1      23.629   3.105  51.177  1.00  0.00     0.119 C 
BRANCH   9  10
HETATM   10  C2  UNL     1      22.875   2.180  50.320  1.00  0.00    -0.011 C 
HETATM   11  C1  UNL     1      22.723   2.383  49.017  1.00  0.00     0.009 C 
ENDBRANCH   9  10
BRANCH   9  12
HETATM   12  C13 UNL     1      24.452   2.424  52.248  1.00  0.00     0.091 C 
HETATM   13  C14 UNL     1      23.668   1.276  52.747  1.00  0.00    -0.017 C 
HETATM   14  C15 UNL     1      23.824   0.127  53.410  1.00  0.00    -0.026 C 
HETATM   15  C16 UNL     1      25.007  -0.556  53.996  1.00  0.00     0.054 C 
HETATM   16  C17 UNL     1      26.013  -0.931  52.956  1.00  0.00    -0.023 C 
HETATM   17  C18 UNL     1      26.713  -0.228  52.052  1.00  0.00    -0.001 C 
HETATM   18  C19 UNL     1      26.763   1.193  51.728  1.00  0.00     0.032 C 
HETATM   19  C20 UNL     1      25.819   2.140  51.845  1.00  0.00     0.053 C 
BRANCH  19  20
HETATM   20  O1  UNL     1      26.393   3.341  51.392  1.00  0.00    -0.364 OA
HETATM   21  H22 UNL     1      27.228   3.689  51.840  1.00  0.00     0.217 HD
ENDBRANCH  19  20
ENDBRANCH   9  12
ENDBRANCH   7   9
ENDBRANCH   1   7
BRANCH   3  22
HETATM   22  N2  UNL     1      25.446   8.015  50.873  1.00  0.00    -0.363 N 
HETATM   23  H7  UNL     1      26.045   8.079  51.723  1.00  0.00     0.162 HD
BRANCH  22  24
HETATM   24  C7  UNL     1      25.917   8.622  49.643  1.00  0.00     0.130 A 
HETATM   25  C8  UNL     1      27.164   9.422  49.906  1.00  0.00     0.003 A 
HETATM   26  C9  UNL     1      28.257   8.874  49.358  1.00  0.00     0.017 A 
HETATM   27  C10 UNL     1      27.795   7.674  48.696  1.00  0.00     0.009 A 
HETATM   28 BR1  UNL     1      29.082   6.585  47.773  1.00  0.00    -0.051 Br
HETATM   29  C11 UNL     1      26.490   7.497  48.832  1.00  0.00     0.021 A 
ENDBRANCH  22  24
ENDBRANCH   3  22
BRANCH   5  30
HETATM   30  N4  UNL     1      20.665   8.132  50.182  1.00  0.00    -0.231 N 
HETATM   31  H12 UNL     1      19.628   7.948  50.313  1.00  0.00     0.174 HD
HETATM   32  H13 UNL     1      20.963   8.995  49.663  1.00  0.00     0.174 HD
ENDBRANCH   5  30
TORSDOF 8
ENDMDL
MODEL 7
REMARK VINA RESULT:      -8.0      3.598      6.812
REMARK  8 active torsions:
REMARK  status: ('A' for Active; 'I' for Inactive)
REMARK    1  A    between atoms: C2_2  and  C3_3 
REMARK    2  A    between atoms: C3_3  and  N1_4 
REMARK    3  A    between atoms: C3_3  and  C13_19 
REMARK    4  A    between atoms: N1_4  and  C4_5 
REMARK    5  A    between atoms: C6_7  and  N2_8 
REMARK    6  A    between atoms: N2_8  and  C7_9 
REMARK    7  A    between atoms: C12_16  and  N4_17 
REMARK    8  A    between atoms: C20_26  and  O1_27 
ROOT
HETATM    1  C4  UNL     1      21.801   1.352  52.836  1.00  0.00     0.146 A 
HETATM    2  C5  UNL     1      23.144   0.968  52.910  1.00  0.00     0.101 A 
HETATM    3  C6  UNL     1      23.499  -0.243  53.410  1.00  0.00     0.147 A 
HETATM    4  N3  UNL     1      22.520  -1.063  53.832  1.00  0.00    -0.046 NA
HETATM    5  C12 UNL     1      21.219  -0.735  53.779  1.00  0.00     0.724 A 
HETATM    6  N5  UNL     1      20.893   0.470  53.280  1.00  0.00    -0.046 NA
ENDROOT
BRANCH   1   7
HETATM    7  N1  UNL     1      21.439   2.638  52.305  1.00  0.00    -0.365 N 
HETATM    8  H5  UNL     1      20.807   3.228  52.851  1.00  0.00     0.161 HD
BRANCH   7   9
HETATM    9  C3  UNL     1      22.006   3.001  51.021  1.00  0.00     0.119 C 
BRANCH   9  10
HETATM   10  C2  UNL     1      21.901   1.856  50.106  1.00  0.00    -0.011 C 
HETATM   11  C1  UNL     1      20.840   1.661  49.334  1.00  0.00     0.009 C 
ENDBRANCH   9  10
BRANCH   9  12
HETATM   12  C13 UNL     1      23.414   3.525  51.197  1.00  0.00     0.091 C 
HETATM   13  C14 UNL     1      24.199   3.090  50.024  1.00  0.00    -0.017 C 
HETATM   14  C15 UNL     1      25.323   3.383  49.365  1.00  0.00    -0.026 C 
HETATM   15  C16 UNL     1      26.385   4.402  49.571  1.00  0.00     0.054 C 
HETATM   16  C17 UNL     1      25.860   5.796  49.450  1.00  0.00    -0.023 C 
HETATM   17  C18 UNL     1      24.905   6.483  50.097  1.00  0.00    -0.001 C 
HETATM   18  C19 UNL     1      23.998   6.130  51.182  1.00  0.00     0.032 C 
HETATM   19  C20 UNL     1      23.477   4.940  51.521  1.00  0.00     0.053 C 
BRANCH  19  20
HETATM   20  O1  UNL     1      22.664   5.161  52.648  1.00  0.00    -0.364 OA
HETATM   21  H22 UNL     1      21.928   4.502  52.861  1.00  0.00     0.217 HD
ENDBRANCH  19  20
ENDBRANCH   9  12
ENDBRANCH   7   9
ENDBRANCH   1   7
BRANCH   3  22
HETATM   22  N2  UNL     1      24.852  -0.662  53.499  1.00  0.00    -0.363 N 
HETATM   23  H7  UNL     1      25.088  -1.651  53.724  1.00  0.00     0.162 HD
BRANCH  22  24
HETATM   24  C7  UNL     1      25.934   0.278  53.279  1.00  0.00     0.130 A 
HETATM   25  C8  UNL     1      26.525   0.705  54.596  1.00  0.00     0.003 A 
HETATM   26  C9  UNL     1      27.765   0.233  54.785  1.00  0.00     0.017 A 
HETATM   27  C10 UNL     1      28.069  -0.537  53.599  1.00  0.00     0.009 A 
HETATM   28 BR1  UNL     1      29.786  -1.392  53.479  1.00  0.00    -0.051 Br
HETATM   29  C11 UNL     1      27.070  -0.536  52.731  1.00  0.00     0.021 A 
ENDBRANCH  22  24
ENDBRANCH   3  22
BRANCH   5  30
HETATM   30  N4  UNL     1      20.170  -1.608  54.229  1.00  0.00    -0.231 N 
HETATM   31  H12 UNL     1      19.348  -1.494  54.890  1.00  0.00     0.174 HD
HETATM   32  H13 UNL     1      20.318  -2.537  53.763  1.00  0.00     0.174 HD
ENDBRANCH   5  30
TORSDOF 8
ENDMDL
MODEL 8
REMARK VINA RESULT:      -8.0      7.859     10.327
REMARK  8 active torsions:
REMARK  status: ('A' for Active; 'I' for Inactive)
REMARK    1  A    between atoms: C2_2  and  C3_3 
REMARK    2  A    between atoms: C3_3  and  N1_4 
REMARK    3  A    between atoms: C3_3  and  C13_19 
REMARK    4  A    between atoms: N1_4  and  C4_5 
REMARK    5  A    between atoms: C6_7  and  N2_8 
REMARK    6  A    between atoms: N2_8  and  C7_9 
REMARK    7  A    between atoms: C12_16  and  N4_17 
REMARK    8  A    between atoms: C20_26  and  O1_27 
ROOT
HETATM    1  C4  UNL     1      31.070   8.772  48.121  1.00  0.00     0.146 A 
HETATM    2  C5  UNL     1      30.005   7.911  48.408  1.00  0.00     0.101 A 
HETATM    3  C6  UNL     1      28.869   8.372  48.991  1.00  0.00     0.147 A 
HETATM    4  N3  UNL     1      28.799   9.682  49.284  1.00  0.00    -0.046 NA
HETATM    5  C12 UNL     1      29.795  10.544  49.027  1.00  0.00     0.724 A 
HETATM    6  N5  UNL     1      30.911  10.063  48.449  1.00  0.00    -0.046 NA
ENDROOT
BRANCH   1   7
HETATM    7  N1  UNL     1      32.268   8.270  47.504  1.00  0.00    -0.365 N 
HETATM    8  H5  UNL     1      32.641   8.770  46.694  1.00  0.00     0.161 HD
BRANCH   7   9
HETATM    9  C3  UNL     1      32.858   7.082  48.087  1.00  0.00     0.119 C 
BRANCH   9  10
HETATM   10  C2  UNL     1      34.216   7.396  48.552  1.00  0.00    -0.011 C 
HETATM   11  C1  UNL     1      34.859   8.493  48.172  1.00  0.00     0.009 C 
ENDBRANCH   9  10
BRANCH   9  12
HETATM   12  C13 UNL     1      32.789   5.928  47.112  1.00  0.00     0.091 C 
HETATM   13  C14 UNL     1      33.466   6.356  45.871  1.00  0.00    -0.017 C 
HETATM   14  C15 UNL     1      34.029   5.847  44.772  1.00  0.00    -0.026 C 
HETATM   15  C16 UNL     1      34.231   4.458  44.283  1.00  0.00     0.054 C 
HETATM   16  C17 UNL     1      35.109   3.662  45.194  1.00  0.00    -0.023 C 
HETATM   17  C18 UNL     1      35.030   3.325  46.491  1.00  0.00    -0.001 C 
HETATM   18  C19 UNL     1      34.046   3.609  47.528  1.00  0.00     0.032 C 
HETATM   19  C20 UNL     1      33.222   4.659  47.673  1.00  0.00     0.053 C 
BRANCH  19  20
HETATM   20  O1  UNL     1      32.479   4.432  48.846  1.00  0.00    -0.364 OA
HETATM   21  H22 UNL     1      32.113   5.221  49.359  1.00  0.00     0.217 HD
ENDBRANCH  19  20
ENDBRANCH   9  12
ENDBRANCH   7   9
ENDBRANCH   1   7
BRANCH   3  22
HETATM   22  N2  UNL     1      27.773   7.525  49.294  1.00  0.00    -0.363 N 
HETATM   23  H7  UNL     1      27.286   7.593  50.212  1.00  0.00     0.162 HD
BRANCH  22  24
HETATM   24  C7  UNL     1      27.305   6.546  48.331  1.00  0.00     0.130 A 
HETATM   25  C8  UNL     1      27.941   5.209  48.602  1.00  0.00     0.003 A 
HETATM   26  C9  UNL     1      27.066   4.302  49.059  1.00  0.00     0.017 A 
HETATM   27  C10 UNL     1      25.794   4.989  49.117  1.00  0.00     0.009 A 
HETATM   28 BR1  UNL     1      24.256   4.015  49.732  1.00  0.00    -0.051 Br
HETATM   29  C11 UNL     1      25.886   6.248  48.717  1.00  0.00     0.021 A 
ENDBRANCH  22  24
ENDBRANCH   3  22
BRANCH   5  30
HETATM   30  N4  UNL     1      29.724  11.945  49.340  1.00  0.00    -0.231 N 
HETATM   31  H12 UNL     1      29.337  12.500  50.157  1.00  0.00     0.174 HD
HETATM   32  H13 UNL     1      30.167  12.464  48.542  1.00  0.00     0.174 HD
ENDBRANCH   5  30
TORSDOF 8
ENDMDL
MODEL 9
REMARK VINA RESULT:      -8.0      4.030      7.086
REMARK  8 active torsions:
REMARK  status: ('A' for Active; 'I' for Inactive)
REMARK    1  A    between atoms: C2_2  and  C3_3 
REMARK    2  A    between atoms: C3_3  and  N1_4 
REMARK    3  A    between atoms: C3_3  and  C13_19 
REMARK    4  A    between atoms: N1_4  and  C4_5 
REMARK    5  A    between atoms: C6_7  and  N2_8 
REMARK    6  A    between atoms: N2_8  and  C7_9 
REMARK    7  A    between atoms: C12_16  and  N4_17 
REMARK    8  A    between atoms: C20_26  and  O1_27 
ROOT
HETATM    1  C4  UNL     1      23.724   3.718  51.089  1.00  0.00     0.146 A 
HETATM    2  C5  UNL     1      24.799   3.283  51.871  1.00  0.00     0.101 A 
HETATM    3  C6  UNL     1      24.620   2.374  52.864  1.00  0.00     0.147 A 
HETATM    4  N3  UNL     1      23.377   1.905  53.072  1.00  0.00    -0.046 NA
HETATM    5  C12 UNL     1      22.317   2.295  52.346  1.00  0.00     0.724 A 
HETATM    6  N5  UNL     1      22.520   3.196  51.369  1.00  0.00    -0.046 NA
ENDROOT
BRANCH   1   7
HETATM    7  N1  UNL     1      23.928   4.681  50.041  1.00  0.00    -0.365 N 
HETATM    8  H5  UNL     1      23.261   4.702  49.266  1.00  0.00     0.161 HD
BRANCH   7   9
HETATM    9  C3  UNL     1      25.075   5.557  50.169  1.00  0.00     0.119 C 
BRANCH   9  10
HETATM   10  C2  UNL     1      24.645   6.832  50.758  1.00  0.00    -0.011 C 
HETATM   11  C1  UNL     1      23.370   7.196  50.809  1.00  0.00     0.009 C 
ENDBRANCH   9  10
BRANCH   9  12
HETATM   12  C13 UNL     1      25.781   5.697  48.838  1.00  0.00     0.091 C 
HETATM   13  C14 UNL     1      25.807   7.135  48.500  1.00  0.00    -0.017 C 
HETATM   14  C15 UNL     1      26.454   8.001  47.717  1.00  0.00    -0.026 C 
HETATM   15  C16 UNL     1      27.560   7.853  46.735  1.00  0.00     0.054 C 
HETATM   16  C17 UNL     1      28.822   7.372  47.376  1.00  0.00    -0.023 C 
HETATM   17  C18 UNL     1      29.139   6.275  48.082  1.00  0.00    -0.001 C 
HETATM   18  C19 UNL     1      28.364   5.115  48.505  1.00  0.00     0.032 C 
HETATM   19  C20 UNL     1      27.054   5.001  48.773  1.00  0.00     0.053 C 
BRANCH  19  20
HETATM   20  O1  UNL     1      26.831   3.660  49.138  1.00  0.00    -0.364 OA
HETATM   21  H22 UNL     1      26.697   2.968  48.415  1.00  0.00     0.217 HD
ENDBRANCH  19  20
ENDBRANCH   9  12
ENDBRANCH   7   9
ENDBRANCH   1   7
BRANCH   3  22
HETATM   22  N2  UNL     1      25.689   1.913  53.674  1.00  0.00    -0.363 N 
HETATM   23  H7  UNL     1      26.378   2.582  54.077  1.00  0.00     0.162 HD
BRANCH  22  24
HETATM   24  C7  UNL     1      25.846   0.499  53.959  1.00  0.00     0.130 A 
HETATM   25  C8  UNL     1      25.924  -0.281  52.674  1.00  0.00     0.003 A 
HETATM   26  C9  UNL     1      27.141  -0.796  52.454  1.00  0.00     0.017 A 
HETATM   27  C10 UNL     1      27.943  -0.386  53.586  1.00  0.00     0.009 A 
HETATM   28 BR1  UNL     1      29.784  -0.934  53.648  1.00  0.00    -0.051 Br
HETATM   29  C11 UNL     1      27.255   0.342  54.451  1.00  0.00     0.021 A 
ENDBRANCH  22  24
ENDBRANCH   3  22
BRANCH   5  30
HETATM   30  N4  UNL     1      20.987   1.796  52.566  1.00  0.00    -0.231 N 
HETATM   31  H12 UNL     1      20.523   1.254  53.351  1.00  0.00     0.174 HD
HETATM   32  H13 UNL     1      20.413   2.064  51.729  1.00  0.00     0.174 HD
ENDBRANCH   5  30
TORSDOF 8
ENDMDL
