MODEL 1
REMARK VINA RESULT:      -6.9      0.000      0.000
REMARK  4 active torsions:
REMARK  status: ('A' for Active; 'I' for Inactive)
REMARK    1  A    between atoms: C2_2  and  C3_4 
REMARK    2  A    between atoms: C4_5  and  C5_6 
REMARK    3  A    between atoms: N1_7  and  C6_8 
REMARK    4  A    between atoms: C11_14  and  O1_15 
ROOT
HETATM    1  C6  UNL     1      21.365   1.939  52.693  1.00  0.00     0.035 A 
HETATM    2  C7  UNL     1      21.472   0.755  53.259  1.00  0.00     0.120 A 
HETATM    3  N2  UNL     1      22.781   0.262  53.197  1.00  0.00    -0.320 N 
HETATM    4  C8  UNL     1      23.140  -0.979  53.739  1.00  0.00     0.136 C 
HETATM    5  C9  UNL     1      24.025  -1.009  54.947  1.00  0.00     0.050 C 
HETATM    6  C10 UNL     1      25.355  -0.408  54.785  1.00  0.00     0.011 C 
HETATM    7  C11 UNL     1      26.454   0.174  54.382  1.00  0.00     0.066 C 
HETATM    8  C13 UNL     1      26.831   0.728  53.112  1.00  0.00     0.061 C 
HETATM    9  C14 UNL     1      26.297   0.877  51.923  1.00  0.00     0.148 C 
HETATM   10  O2  UNL     1      25.284   0.237  52.620  1.00  0.00    -0.290 OA
HETATM   11  C15 UNL     1      23.997   0.704  52.692  1.00  0.00     0.248 A 
HETATM   12  N3  UNL     1      23.771   1.787  52.205  1.00  0.00    -0.244 NA
HETATM   13  C16 UNL     1      22.584   2.543  52.108  1.00  0.00     0.210 A 
ENDROOT
BRANCH   1  14
HETATM   14  N1  UNL     1      20.094   2.553  52.687  1.00  0.00    -0.389 NA
HETATM   15  C5  UNL     1      19.182   2.279  51.838  1.00  0.00     0.284 C 
BRANCH  15  16
HETATM   16  C4  UNL     1      19.030   1.394  50.708  1.00  0.00     0.020 C 
HETATM   17  C3  UNL     1      18.279   0.316  50.581  1.00  0.00     0.019 C 
BRANCH  17  18
HETATM   18  C2  UNL     1      17.453  -0.117  51.687  1.00  0.00     0.001 C 
HETATM   19  C1  UNL     1      16.198   0.263  51.659  1.00  0.00     0.032 C 
HETATM   20 BR1  UNL     1      18.112  -1.177  53.112  1.00  0.00    -0.052 Br
ENDBRANCH  17  18
ENDBRANCH  15  16
ENDBRANCH   1  14
BRANCH   7  21
HETATM   21  O1  UNL     1      27.678   0.487  54.996  1.00  0.00    -0.356 OA
HETATM   22  C12 UNL     1      28.908  -0.010  54.517  1.00  0.00     0.210 C 
ENDBRANCH   7  21
TORSDOF 4
ENDMDL
MODEL 2
REMARK VINA RESULT:      -6.6      5.183      7.651
REMARK  4 active torsions:
REMARK  status: ('A' for Active; 'I' for Inactive)
REMARK    1  A    between atoms: C2_2  and  C3_4 
REMARK    2  A    between atoms: C4_5  and  C5_6 
REMARK    3  A    between atoms: N1_7  and  C6_8 
REMARK    4  A    between atoms: C11_14  and  O1_15 
ROOT
HETATM    1  C6  UNL     1      26.243   3.279  50.026  1.00  0.00     0.035 A 
HETATM    2  C7  UNL     1      26.704   2.876  51.191  1.00  0.00     0.120 A 
HETATM    3  N2  UNL     1      25.676   2.440  52.037  1.00  0.00    -0.320 N 
HETATM    4  C8  UNL     1      25.923   1.958  53.329  1.00  0.00     0.136 C 
HETATM    5  C9  UNL     1      25.702   0.503  53.610  1.00  0.00     0.050 C 
HETATM    6  C10 UNL     1      24.333   0.011  53.412  1.00  0.00     0.011 C 
HETATM    7  C11 UNL     1      23.060  -0.165  53.167  1.00  0.00     0.066 C 
HETATM    8  C13 UNL     1      22.035   0.746  52.743  1.00  0.00     0.061 C 
HETATM    9  C14 UNL     1      21.932   2.020  52.447  1.00  0.00     0.148 C 
HETATM   10  O2  UNL     1      23.274   1.903  52.773  1.00  0.00    -0.290 OA
HETATM   11  C15 UNL     1      24.294   2.324  51.959  1.00  0.00     0.248 A 
HETATM   12  N3  UNL     1      23.997   2.720  50.856  1.00  0.00    -0.244 NA
HETATM   13  C16 UNL     1      24.783   3.214  49.794  1.00  0.00     0.210 A 
ENDROOT
BRANCH   1  14
HETATM   14  N1  UNL     1      27.177   3.746  49.075  1.00  0.00    -0.389 NA
HETATM   15  C5  UNL     1      27.268   4.966  48.715  1.00  0.00     0.284 C 
BRANCH  15  16
HETATM   16  C4  UNL     1      26.606   6.208  49.032  1.00  0.00     0.020 C 
HETATM   17  C3  UNL     1      26.909   7.439  48.665  1.00  0.00     0.019 C 
BRANCH  17  18
HETATM   18  C2  UNL     1      28.059   7.673  47.819  1.00  0.00     0.001 C 
HETATM   19  C1  UNL     1      27.808   7.971  46.567  1.00  0.00     0.032 C 
HETATM   20 BR1  UNL     1      29.841   7.565  48.451  1.00  0.00    -0.052 Br
ENDBRANCH  17  18
ENDBRANCH  15  16
ENDBRANCH   1  14
BRANCH   7  21
HETATM   21  O1  UNL     1      22.198  -1.272  53.215  1.00  0.00    -0.356 OA
HETATM   22  C12 UNL     1      21.454  -1.597  54.369  1.00  0.00     0.210 C 
ENDBRANCH   7  21
TORSDOF 4
ENDMDL
MODEL 3
REMARK VINA RESULT:      -6.5      2.995      7.358
REMARK  4 active torsions:
REMARK  status: ('A' for Active; 'I' for Inactive)
REMARK    1  A    between atoms: C2_2  and  C3_4 
REMARK    2  A    between atoms: C4_5  and  C5_6 
REMARK    3  A    between atoms: N1_7  and  C6_8 
REMARK    4  A    between atoms: C11_14  and  O1_15 
ROOT
HETATM    1  C6  UNL     1      25.565   2.213  52.031  1.00  0.00     0.035 A 
HETATM    2  C7  UNL     1      25.134   1.169  52.707  1.00  0.00     0.120 A 
HETATM    3  N2  UNL     1      23.746   1.202  52.892  1.00  0.00    -0.320 N 
HETATM    4  C8  UNL     1      23.057   0.193  53.577  1.00  0.00     0.136 C 
HETATM    5  C9  UNL     1      22.141  -0.707  52.805  1.00  0.00     0.050 C 
HETATM    6  C10 UNL     1      21.019  -0.050  52.124  1.00  0.00     0.011 C 
HETATM    7  C11 UNL     1      20.124   0.765  51.629  1.00  0.00     0.066 C 
HETATM    8  C13 UNL     1      19.959   2.187  51.746  1.00  0.00     0.061 C 
HETATM    9  C14 UNL     1      20.566   3.188  52.339  1.00  0.00     0.148 C 
HETATM   10  O2  UNL     1      21.348   2.107  52.715  1.00  0.00    -0.290 OA
HETATM   11  C15 UNL     1      22.707   2.056  52.543  1.00  0.00     0.248 A 
HETATM   12  N3  UNL     1      23.225   2.964  51.934  1.00  0.00    -0.244 NA
HETATM   13  C16 UNL     1      24.569   3.215  51.588  1.00  0.00     0.210 A 
ENDROOT
BRANCH   1  14
HETATM   14  N1  UNL     1      26.950   2.304  51.774  1.00  0.00    -0.389 NA
HETATM   15  C5  UNL     1      27.848   2.043  52.642  1.00  0.00     0.284 C 
BRANCH  15  16
HETATM   16  C4  UNL     1      27.885   1.616  54.020  1.00  0.00     0.020 C 
HETATM   17  C3  UNL     1      28.175   0.431  54.524  1.00  0.00     0.019 C 
BRANCH  17  18
HETATM   18  C2  UNL     1      28.517  -0.661  53.639  1.00  0.00     0.001 C 
HETATM   19  C1  UNL     1      29.797  -0.912  53.494  1.00  0.00     0.032 C 
HETATM   20 BR1  UNL     1      27.218  -1.692  52.725  1.00  0.00    -0.052 Br
ENDBRANCH  17  18
ENDBRANCH  15  16
ENDBRANCH   1  14
BRANCH   7  21
HETATM   21  O1  UNL     1      18.995   0.600  50.810  1.00  0.00    -0.356 OA
HETATM   22  C12 UNL     1      17.704   0.397  51.341  1.00  0.00     0.210 C 
ENDBRANCH   7  21
TORSDOF 4
ENDMDL
MODEL 4
REMARK VINA RESULT:      -6.5      2.411      2.727
REMARK  4 active torsions:
REMARK  status: ('A' for Active; 'I' for Inactive)
REMARK    1  A    between atoms: C2_2  and  C3_4 
REMARK    2  A    between atoms: C4_5  and  C5_6 
REMARK    3  A    between atoms: N1_7  and  C6_8 
REMARK    4  A    between atoms: C11_14  and  O1_15 
ROOT
HETATM    1  C6  UNL     1      22.427   3.161  51.893  1.00  0.00     0.035 A 
HETATM    2  C7  UNL     1      22.037   1.979  52.324  1.00  0.00     0.120 A 
HETATM    3  N2  UNL     1      23.106   1.080  52.426  1.00  0.00    -0.320 N 
HETATM    4  C8  UNL     1      22.937  -0.238  52.868  1.00  0.00     0.136 C 
HETATM    5  C9  UNL     1      23.507  -0.631  54.197  1.00  0.00     0.050 C 
HETATM    6  C10 UNL     1      24.963  -0.501  54.335  1.00  0.00     0.011 C 
HETATM    7  C11 UNL     1      26.248  -0.298  54.197  1.00  0.00     0.066 C 
HETATM    8  C13 UNL     1      27.026   0.169  53.084  1.00  0.00     0.061 C 
HETATM    9  C14 UNL     1      26.815   0.556  51.849  1.00  0.00     0.148 C 
HETATM   10  O2  UNL     1      25.534   0.252  52.283  1.00  0.00    -0.290 OA
HETATM   11  C15 UNL     1      24.475   1.118  52.190  1.00  0.00     0.248 A 
HETATM   12  N3  UNL     1      24.707   2.241  51.805  1.00  0.00    -0.244 NA
HETATM   13  C16 UNL     1      23.865   3.354  51.600  1.00  0.00     0.210 A 
ENDROOT
BRANCH   1  14
HETATM   14  N1  UNL     1      21.445   4.164  51.745  1.00  0.00    -0.389 NA
HETATM   15  C5  UNL     1      21.138   4.690  50.624  1.00  0.00     0.284 C 
BRANCH  15  16
HETATM   16  C4  UNL     1      21.551   4.550  49.248  1.00  0.00     0.020 C 
HETATM   17  C3  UNL     1      21.274   3.594  48.381  1.00  0.00     0.019 C 
BRANCH  17  18
HETATM   18  C2  UNL     1      20.440   2.482  48.782  1.00  0.00     0.001 C 
HETATM   19  C1  UNL     1      21.042   1.325  48.923  1.00  0.00     0.032 C 
HETATM   20 BR1  UNL     1      18.580   2.651  49.096  1.00  0.00    -0.052 Br
ENDBRANCH  17  18
ENDBRANCH  15  16
ENDBRANCH   1  14
BRANCH   7  21
HETATM   21  O1  UNL     1      27.359  -0.448  55.042  1.00  0.00    -0.356 OA
HETATM   22  C12 UNL     1      28.564   0.255  54.832  1.00  0.00     0.210 C 
ENDBRANCH   7  21
TORSDOF 4
ENDMDL
MODEL 5
REMARK VINA RESULT:      -6.5      3.095      4.131
REMARK  4 active torsions:
REMARK  status: ('A' for Active; 'I' for Inactive)
REMARK    1  A    between atoms: C2_2  and  C3_4 
REMARK    2  A    between atoms: C4_5  and  C5_6 
REMARK    3  A    between atoms: N1_7  and  C6_8 
REMARK    4  A    between atoms: C11_14  and  O1_15 
ROOT
HETATM    1  C6  UNL     1      21.977   1.430  51.311  1.00  0.00     0.035 A 
HETATM    2  C7  UNL     1      23.038   2.204  51.214  1.00  0.00     0.120 A 
HETATM    3  N2  UNL     1      24.070   1.785  52.061  1.00  0.00    -0.320 N 
HETATM    4  C8  UNL     1      25.301   2.449  52.127  1.00  0.00     0.136 C 
HETATM    5  C9  UNL     1      26.521   1.761  51.596  1.00  0.00     0.050 C 
HETATM    6  C10 UNL     1      26.881   0.496  52.248  1.00  0.00     0.011 C 
HETATM    7  C11 UNL     1      26.979  -0.580  52.985  1.00  0.00     0.066 C 
HETATM    8  C13 UNL     1      26.177  -1.069  54.072  1.00  0.00     0.061 C 
HETATM    9  C14 UNL     1      25.109  -0.693  54.734  1.00  0.00     0.148 C 
HETATM   10  O2  UNL     1      25.261   0.334  53.816  1.00  0.00    -0.290 OA
HETATM   11  C15 UNL     1      24.262   0.759  52.979  1.00  0.00     0.248 A 
HETATM   12  N3  UNL     1      23.232   0.126  52.977  1.00  0.00    -0.244 NA
HETATM   13  C16 UNL     1      22.032   0.289  52.252  1.00  0.00     0.210 A 
ENDROOT
BRANCH   1  14
HETATM   14  N1  UNL     1      20.859   1.742  50.507  1.00  0.00    -0.389 NA
HETATM   15  C5  UNL     1      20.874   1.704  49.232  1.00  0.00     0.284 C 
BRANCH  15  16
HETATM   16  C4  UNL     1      21.833   1.391  48.201  1.00  0.00     0.020 C 
HETATM   17  C3  UNL     1      22.435   2.192  47.342  1.00  0.00     0.019 C 
BRANCH  17  18
HETATM   18  C2  UNL     1      22.153   3.611  47.365  1.00  0.00     0.001 C 
HETATM   19  C1  UNL     1      21.230   4.033  46.534  1.00  0.00     0.032 C 
HETATM   20 BR1  UNL     1      23.044   4.820  48.519  1.00  0.00    -0.052 Br
ENDBRANCH  17  18
ENDBRANCH  15  16
ENDBRANCH   1  14
BRANCH   7  21
HETATM   21  O1  UNL     1      27.873  -1.662  53.023  1.00  0.00    -0.356 OA
HETATM   22  C12 UNL     1      29.230  -1.505  53.374  1.00  0.00     0.210 C 
ENDBRANCH   7  21
TORSDOF 4
ENDMDL
MODEL 6
REMARK VINA RESULT:      -6.4      1.719      2.727
REMARK  4 active torsions:
REMARK  status: ('A' for Active; 'I' for Inactive)
REMARK    1  A    between atoms: C2_2  and  C3_4 
REMARK    2  A    between atoms: C4_5  and  C5_6 
REMARK    3  A    between atoms: N1_7  and  C6_8 
REMARK    4  A    between atoms: C11_14  and  O1_15 
ROOT
HETATM    1  C6  UNL     1      22.075   1.340  50.414  1.00  0.00     0.035 A 
HETATM    2  C7  UNL     1      23.135   2.122  50.414  1.00  0.00     0.120 A 
HETATM    3  N2  UNL     1      24.023   1.799  51.447  1.00  0.00    -0.320 N 
HETATM    4  C8  UNL     1      25.225   2.490  51.645  1.00  0.00     0.136 C 
HETATM    5  C9  UNL     1      26.517   1.781  51.376  1.00  0.00     0.050 C 
HETATM    6  C10 UNL     1      26.775   0.585  52.187  1.00  0.00     0.011 C 
HETATM    7  C11 UNL     1      26.761  -0.420  53.024  1.00  0.00     0.066 C 
HETATM    8  C13 UNL     1      25.800  -0.827  54.011  1.00  0.00     0.061 C 
HETATM    9  C14 UNL     1      24.640  -0.414  54.462  1.00  0.00     0.148 C 
HETATM   10  O2  UNL     1      24.929   0.531  53.490  1.00  0.00    -0.290 OA
HETATM   11  C15 UNL     1      24.073   0.862  52.472  1.00  0.00     0.248 A 
HETATM   12  N3  UNL     1      23.058   0.212  52.365  1.00  0.00    -0.244 NA
HETATM   13  C16 UNL     1      21.987   0.287  51.450  1.00  0.00     0.210 A 
ENDROOT
BRANCH   1  14
HETATM   14  N1  UNL     1      21.097   1.558  49.420  1.00  0.00    -0.389 NA
HETATM   15  C5  UNL     1      19.947   2.057  49.659  1.00  0.00     0.284 C 
BRANCH  15  16
HETATM   16  C4  UNL     1      19.232   2.543  50.814  1.00  0.00     0.020 C 
HETATM   17  C3  UNL     1      18.359   1.921  51.585  1.00  0.00     0.019 C 
BRANCH  17  18
HETATM   18  C2  UNL     1      18.008   0.545  51.305  1.00  0.00     0.001 C 
HETATM   19  C1  UNL     1      18.508  -0.358  52.114  1.00  0.00     0.032 C 
HETATM   20 BR1  UNL     1      16.890   0.041  49.862  1.00  0.00    -0.052 Br
ENDBRANCH  17  18
ENDBRANCH  15  16
ENDBRANCH   1  14
BRANCH   7  21
HETATM   21  O1  UNL     1      27.643  -1.477  53.299  1.00  0.00    -0.356 OA
HETATM   22  C12 UNL     1      29.041  -1.298  53.344  1.00  0.00     0.210 C 
ENDBRANCH   7  21
TORSDOF 4
ENDMDL
MODEL 7
REMARK VINA RESULT:      -6.4      3.407      4.365
REMARK  4 active torsions:
REMARK  status: ('A' for Active; 'I' for Inactive)
REMARK    1  A    between atoms: C2_2  and  C3_4 
REMARK    2  A    between atoms: C4_5  and  C5_6 
REMARK    3  A    between atoms: N1_7  and  C6_8 
REMARK    4  A    between atoms: C11_14  and  O1_15 
ROOT
HETATM    1  C6  UNL     1      22.330   3.553  52.078  1.00  0.00     0.035 A 
HETATM    2  C7  UNL     1      21.948   2.318  52.332  1.00  0.00     0.120 A 
HETATM    3  N2  UNL     1      23.033   1.434  52.374  1.00  0.00    -0.320 N 
HETATM    4  C8  UNL     1      22.875   0.067  52.634  1.00  0.00     0.136 C 
HETATM    5  C9  UNL     1      23.388  -0.484  53.929  1.00  0.00     0.050 C 
HETATM    6  C10 UNL     1      24.832  -0.347  54.159  1.00  0.00     0.011 C 
HETATM    7  C11 UNL     1      26.116  -0.105  54.115  1.00  0.00     0.066 C 
HETATM    8  C13 UNL     1      26.937   0.517  53.114  1.00  0.00     0.061 C 
HETATM    9  C14 UNL     1      26.778   1.056  51.929  1.00  0.00     0.148 C 
HETATM   10  O2  UNL     1      25.485   0.676  52.253  1.00  0.00    -0.290 OA
HETATM   11  C15 UNL     1      24.411   1.527  52.217  1.00  0.00     0.248 A 
HETATM   12  N3  UNL     1      24.633   2.694  51.992  1.00  0.00    -0.244 NA
HETATM   13  C16 UNL     1      23.775   3.809  51.887  1.00  0.00     0.210 A 
ENDROOT
BRANCH   1  14
HETATM   14  N1  UNL     1      21.332   4.549  52.008  1.00  0.00    -0.389 NA
HETATM   15  C5  UNL     1      21.049   5.190  50.943  1.00  0.00     0.284 C 
BRANCH  15  16
HETATM   16  C4  UNL     1      21.507   5.211  49.575  1.00  0.00     0.020 C 
HETATM   17  C3  UNL     1      22.162   6.153  48.922  1.00  0.00     0.019 C 
BRANCH  17  18
HETATM   18  C2  UNL     1      22.516   7.381  49.600  1.00  0.00     0.001 C 
HETATM   19  C1  UNL     1      21.765   8.424  49.342  1.00  0.00     0.032 C 
HETATM   20 BR1  UNL     1      23.975   7.511  50.802  1.00  0.00    -0.052 Br
ENDBRANCH  17  18
ENDBRANCH  15  16
ENDBRANCH   1  14
BRANCH   7  21
HETATM   21  O1  UNL     1      27.188  -0.343  54.991  1.00  0.00    -0.356 OA
HETATM   22  C12 UNL     1      28.517  -0.004  54.662  1.00  0.00     0.210 C 
ENDBRANCH   7  21
TORSDOF 4
ENDMDL
MODEL 8
REMARK VINA RESULT:      -6.3      2.161      3.360
REMARK  4 active torsions:
REMARK  status: ('A' for Active; 'I' for Inactive)
REMARK    1  A    between atoms: C2_2  and  C3_4 
REMARK    2  A    between atoms: C4_5  and  C5_6 
REMARK    3  A    between atoms: N1_7  and  C6_8 
REMARK    4  A    between atoms: C11_14  and  O1_15 
ROOT
HETATM    1  C6  UNL     1      22.004   0.492  51.786  1.00  0.00     0.035 A 
HETATM    2  C7  UNL     1      22.832   1.415  51.342  1.00  0.00     0.120 A 
HETATM    3  N2  UNL     1      24.031   1.434  52.065  1.00  0.00    -0.320 N 
HETATM    4  C8  UNL     1      25.069   2.328  51.771  1.00  0.00     0.136 C 
HETATM    5  C9  UNL     1      26.342   1.789  51.193  1.00  0.00     0.050 C 
HETATM    6  C10 UNL     1      27.067   0.822  52.025  1.00  0.00     0.011 C 
HETATM    7  C11 UNL     1      27.507   0.004  52.945  1.00  0.00     0.066 C 
HETATM    8  C13 UNL     1      26.985  -0.353  54.235  1.00  0.00     0.061 C 
HETATM    9  C14 UNL     1      25.948  -0.048  54.979  1.00  0.00     0.148 C 
HETATM   10  O2  UNL     1      25.738   0.730  53.851  1.00  0.00    -0.290 OA
HETATM   11  C15 UNL     1      24.572   0.726  53.131  1.00  0.00     0.248 A 
HETATM   12  N3  UNL     1      23.728  -0.081  53.444  1.00  0.00    -0.244 NA
HETATM   13  C16 UNL     1      22.444  -0.347  52.924  1.00  0.00     0.210 A 
ENDROOT
BRANCH   1  14
HETATM   14  N1  UNL     1      20.754   0.365  51.144  1.00  0.00    -0.389 NA
HETATM   15  C5  UNL     1      19.790   1.184  51.308  1.00  0.00     0.284 C 
BRANCH  15  16
HETATM   16  C4  UNL     1      19.550   2.388  52.067  1.00  0.00     0.020 C 
HETATM   17  C3  UNL     1      19.563   3.647  51.671  1.00  0.00     0.019 C 
BRANCH  17  18
HETATM   18  C2  UNL     1      19.850   3.961  50.288  1.00  0.00     0.001 C 
HETATM   19  C1  UNL     1      21.060   4.398  50.031  1.00  0.00     0.032 C 
HETATM   20 BR1  UNL     1      18.576   3.763  48.901  1.00  0.00    -0.052 Br
ENDBRANCH  17  18
ENDBRANCH  15  16
ENDBRANCH   1  14
BRANCH   7  21
HETATM   21  O1  UNL     1      28.629  -0.834  53.056  1.00  0.00    -0.356 OA
HETATM   22  C12 UNL     1      29.785  -0.452  53.769  1.00  0.00     0.210 C 
ENDBRANCH   7  21
TORSDOF 4
ENDMDL
MODEL 9
REMARK VINA RESULT:      -6.2      3.864      7.576
REMARK  4 active torsions:
REMARK  status: ('A' for Active; 'I' for Inactive)
REMARK    1  A    between atoms: C2_2  and  C3_4 
REMARK    2  A    between atoms: C4_5  and  C5_6 
REMARK    3  A    between atoms: N1_7  and  C6_8 
REMARK    4  A    between atoms: C11_14  and  O1_15 
ROOT
HETATM    1  C6  UNL     1      25.197   2.592  51.356  1.00  0.00     0.035 A 
HETATM    2  C7  UNL     1      24.499   1.519  51.668  1.00  0.00     0.120 A 
HETATM    3  N2  UNL     1      23.121   1.766  51.639  1.00  0.00    -0.320 N 
HETATM    4  C8  UNL     1      22.177   0.774  51.929  1.00  0.00     0.136 C 
HETATM    5  C9  UNL     1      21.310   0.256  50.821  1.00  0.00     0.050 C 
HETATM    6  C10 UNL     1      20.446   1.246  50.166  1.00  0.00     0.011 C 
HETATM    7  C11 UNL     1      19.790   2.302  49.763  1.00  0.00     0.066 C 
HETATM    8  C13 UNL     1      19.807   3.667  50.213  1.00  0.00     0.061 C 
HETATM    9  C14 UNL     1      20.423   4.377  51.128  1.00  0.00     0.148 C 
HETATM   10  O2  UNL     1      20.956   3.114  51.331  1.00  0.00    -0.290 OA
HETATM   11  C15 UNL     1      22.301   2.853  51.364  1.00  0.00     0.248 A 
HETATM   12  N3  UNL     1      23.051   3.763  51.094  1.00  0.00    -0.244 NA
HETATM   13  C16 UNL     1      24.459   3.834  51.036  1.00  0.00     0.210 A 
ENDROOT
BRANCH   1  14
HETATM   14  N1  UNL     1      26.604   2.481  51.348  1.00  0.00    -0.389 NA
HETATM   15  C5  UNL     1      27.291   2.129  52.364  1.00  0.00     0.284 C 
BRANCH  15  16
HETATM   16  C4  UNL     1      27.027   1.749  53.730  1.00  0.00     0.020 C 
HETATM   17  C3  UNL     1      27.209   0.587  54.330  1.00  0.00     0.019 C 
BRANCH  17  18
HETATM   18  C2  UNL     1      27.749  -0.528  53.582  1.00  0.00     0.001 C 
HETATM   19  C1  UNL     1      26.883  -1.258  52.922  1.00  0.00     0.032 C 
HETATM   20 BR1  UNL     1      29.598  -0.938  53.536  1.00  0.00    -0.052 Br
ENDBRANCH  17  18
ENDBRANCH  15  16
ENDBRANCH   1  14
BRANCH   7  21
HETATM   21  O1  UNL     1      18.830   2.538  48.765  1.00  0.00    -0.356 OA
HETATM   22  C12 UNL     1      19.105   3.326  47.628  1.00  0.00     0.210 C 
ENDBRANCH   7  21
TORSDOF 4
ENDMDL
