MODEL 1
REMARK VINA RESULT:      -7.4      0.000      0.000
REMARK  5 active torsions:
REMARK  status: ('A' for Active; 'I' for Inactive)
REMARK    1  A    between atoms: C2_2  and  C3_3 
REMARK    2  A    between atoms: C3_3  and  C4_4 
REMARK    3  A    between atoms: C9_10  and  N1_11 
REMARK    4  A    between atoms: N1_11  and  C10_12 
REMARK    5  A    between atoms: C10_12  and  C11_13 
ROOT
HETATM    1  C4  UNL     1      22.692   0.669  52.453  1.00  0.00     0.018 C 
HETATM    2  C5  UNL     1      21.950   1.765  52.377  1.00  0.00    -0.020 C 
HETATM    3  C6  UNL     1      20.535   1.883  52.804  1.00  0.00     0.216 C 
HETATM    4  O1  UNL     1      20.297   3.263  52.786  1.00  0.00    -0.329 OA
HETATM    5  C7  UNL     1      21.332   3.952  52.123  1.00  0.00     0.173 A 
HETATM    6  C8  UNL     1      22.302   3.089  51.879  1.00  0.00     0.041 A 
HETATM    7  C9  UNL     1      23.461   3.710  51.174  1.00  0.00     0.299 A 
HETATM    8  C16 UNL     1      22.911   5.122  51.082  1.00  0.00     0.133 A 
HETATM    9  N3  UNL     1      21.726   5.225  51.617  1.00  0.00    -0.238 NA
ENDROOT
BRANCH   7  10
HETATM   10  N1  UNL     1      24.656   3.670  51.936  1.00  0.00     0.101 N 
HETATM   11  H8  UNL     1      25.029   4.644  51.997  1.00  0.00     0.317 HD
BRANCH  10  12
HETATM   12  C10 UNL     1      25.647   2.768  51.468  1.00  0.00     0.311 C 
BRANCH  12  13
HETATM   13  C11 UNL     1      26.043   1.697  52.401  1.00  0.00    -0.013 A 
HETATM   14  C12 UNL     1      26.330   0.395  52.050  1.00  0.00     0.012 A 
HETATM   15  C13 UNL     1      26.715  -0.533  53.007  1.00  0.00     0.020 A 
HETATM   16  C14 UNL     1      26.791  -0.087  54.299  1.00  0.00     0.116 A 
HETATM   17  N2  UNL     1      26.515   1.175  54.651  1.00  0.00    -0.273 NA
HETATM   18  C15 UNL     1      26.134   2.111  53.734  1.00  0.00     0.125 A 
ENDBRANCH  12  13
ENDBRANCH  10  12
ENDBRANCH   7  10
BRANCH   1  19
HETATM   19  C3  UNL     1      22.085  -0.531  52.999  1.00  0.00     0.051 C 
BRANCH  19  20
HETATM   20  C2  UNL     1      22.543  -1.044  54.108  1.00  0.00    -0.155 C 
HETATM   21  C1  UNL     1      22.999  -1.320  55.322  1.00  0.00     0.096 C 
ENDBRANCH  19  20
ENDBRANCH   1  19
TORSDOF 5
ENDMDL
MODEL 2
REMARK VINA RESULT:      -7.4      2.854      5.304
REMARK  5 active torsions:
REMARK  status: ('A' for Active; 'I' for Inactive)
REMARK    1  A    between atoms: C2_2  and  C3_3 
REMARK    2  A    between atoms: C3_3  and  C4_4 
REMARK    3  A    between atoms: C9_10  and  N1_11 
REMARK    4  A    between atoms: N1_11  and  C10_12 
REMARK    5  A    between atoms: C10_12  and  C11_13 
ROOT
HETATM    1  C4  UNL     1      24.063   0.306  52.982  1.00  0.00     0.018 C 
HETATM    2  C5  UNL     1      25.166   0.249  53.716  1.00  0.00    -0.020 C 
HETATM    3  C6  UNL     1      25.412  -0.689  54.837  1.00  0.00     0.216 C 
HETATM    4  O1  UNL     1      26.782  -0.547  55.093  1.00  0.00    -0.329 OA
HETATM    5  C7  UNL     1      27.313   0.579  54.433  1.00  0.00     0.173 A 
HETATM    6  C8  UNL     1      26.379   1.053  53.627  1.00  0.00     0.041 A 
HETATM    7  C9  UNL     1      26.830   2.257  52.870  1.00  0.00     0.299 A 
HETATM    8  C16 UNL     1      28.234   2.343  53.442  1.00  0.00     0.133 A 
HETATM    9  N3  UNL     1      28.472   1.398  54.309  1.00  0.00    -0.238 NA
ENDROOT
BRANCH   7  10
HETATM   10  N1  UNL     1      26.856   2.049  51.467  1.00  0.00     0.101 N 
HETATM   11  H8  UNL     1      27.783   2.375  51.113  1.00  0.00     0.317 HD
BRANCH  10  12
HETATM   12  C10 UNL     1      25.790   2.643  50.744  1.00  0.00     0.311 C 
BRANCH  12  13
HETATM   13  C11 UNL     1      26.099   3.908  50.053  1.00  0.00    -0.013 A 
HETATM   14  C12 UNL     1      27.146   4.109  49.179  1.00  0.00     0.012 A 
HETATM   15  C13 UNL     1      27.336   5.340  48.566  1.00  0.00     0.020 A 
HETATM   16  C14 UNL     1      26.438   6.325  48.874  1.00  0.00     0.116 A 
HETATM   17  N2  UNL     1      25.417   6.141  49.721  1.00  0.00    -0.273 NA
HETATM   18  C15 UNL     1      25.203   4.944  50.341  1.00  0.00     0.125 A 
ENDBRANCH  12  13
ENDBRANCH  10  12
ENDBRANCH   7  10
BRANCH   1  19
HETATM   19  C3  UNL     1      22.991  -0.624  53.287  1.00  0.00     0.051 C 
BRANCH  19  20
HETATM   20  C2  UNL     1      21.843  -0.174  53.713  1.00  0.00    -0.155 C 
HETATM   21  C1  UNL     1      20.782   0.252  54.383  1.00  0.00     0.096 C 
ENDBRANCH  19  20
ENDBRANCH   1  19
TORSDOF 5
ENDMDL
MODEL 3
REMARK VINA RESULT:      -7.4      2.926      4.477
REMARK  5 active torsions:
REMARK  status: ('A' for Active; 'I' for Inactive)
REMARK    1  A    between atoms: C2_2  and  C3_3 
REMARK    2  A    between atoms: C3_3  and  C4_4 
REMARK    3  A    between atoms: C9_10  and  N1_11 
REMARK    4  A    between atoms: N1_11  and  C10_12 
REMARK    5  A    between atoms: C10_12  and  C11_13 
ROOT
HETATM    1  C4  UNL     1      22.228   0.586  51.659  1.00  0.00     0.018 C 
HETATM    2  C5  UNL     1      21.928  -0.064  52.775  1.00  0.00    -0.020 C 
HETATM    3  C6  UNL     1      20.570  -0.484  53.194  1.00  0.00     0.216 C 
HETATM    4  O1  UNL     1      20.807  -1.355  54.265  1.00  0.00    -0.329 OA
HETATM    5  C7  UNL     1      22.144  -1.273  54.705  1.00  0.00     0.173 A 
HETATM    6  C8  UNL     1      22.808  -0.522  53.843  1.00  0.00     0.041 A 
HETATM    7  C9  UNL     1      24.246  -0.363  54.209  1.00  0.00     0.299 A 
HETATM    8  C16 UNL     1      24.228  -1.201  55.475  1.00  0.00     0.133 A 
HETATM    9  N3  UNL     1      23.046  -1.692  55.724  1.00  0.00    -0.238 NA
ENDROOT
BRANCH   7  10
HETATM   10  N1  UNL     1      25.125  -0.910  53.240  1.00  0.00     0.101 N 
HETATM   11  H8  UNL     1      25.750  -1.592  53.725  1.00  0.00     0.317 HD
BRANCH  10  12
HETATM   12  C10 UNL     1      25.875   0.037  52.495  1.00  0.00     0.311 C 
BRANCH  12  13
HETATM   13  C11 UNL     1      27.118   0.521  53.124  1.00  0.00    -0.013 A 
HETATM   14  C12 UNL     1      28.231  -0.247  53.394  1.00  0.00     0.012 A 
HETATM   15  C13 UNL     1      29.361   0.315  53.972  1.00  0.00     0.020 A 
HETATM   16  C14 UNL     1      29.306   1.652  54.255  1.00  0.00     0.116 A 
HETATM   17  N2  UNL     1      28.230   2.408  53.997  1.00  0.00    -0.273 NA
HETATM   18  C15 UNL     1      27.104   1.886  53.429  1.00  0.00     0.125 A 
ENDBRANCH  12  13
ENDBRANCH  10  12
ENDBRANCH   7  10
BRANCH   1  19
HETATM   19  C3  UNL     1      21.144   0.926  50.755  1.00  0.00     0.051 C 
BRANCH  19  20
HETATM   20  C2  UNL     1      21.410   1.282  49.528  1.00  0.00    -0.155 C 
HETATM   21  C1  UNL     1      21.423   1.623  48.247  1.00  0.00     0.096 C 
ENDBRANCH  19  20
ENDBRANCH   1  19
TORSDOF 5
ENDMDL
MODEL 4
REMARK VINA RESULT:      -7.4      2.523      5.794
REMARK  5 active torsions:
REMARK  status: ('A' for Active; 'I' for Inactive)
REMARK    1  A    between atoms: C2_2  and  C3_3 
REMARK    2  A    between atoms: C3_3  and  C4_4 
REMARK    3  A    between atoms: C9_10  and  N1_11 
REMARK    4  A    between atoms: N1_11  and  C10_12 
REMARK    5  A    between atoms: C10_12  and  C11_13 
ROOT
HETATM    1  C4  UNL     1      25.081   0.861  52.147  1.00  0.00     0.018 C 
HETATM    2  C5  UNL     1      24.999   0.113  53.238  1.00  0.00    -0.020 C 
HETATM    3  C6  UNL     1      26.132  -0.264  54.117  1.00  0.00     0.216 C 
HETATM    4  O1  UNL     1      25.509  -0.801  55.250  1.00  0.00    -0.329 OA
HETATM    5  C7  UNL     1      24.140  -1.041  55.017  1.00  0.00     0.173 A 
HETATM    6  C8  UNL     1      23.831  -0.512  53.846  1.00  0.00     0.041 A 
HETATM    7  C9  UNL     1      22.394  -0.706  53.489  1.00  0.00     0.299 A 
HETATM    8  C16 UNL     1      21.976  -1.466  54.735  1.00  0.00     0.133 A 
HETATM    9  N3  UNL     1      22.967  -1.637  55.565  1.00  0.00    -0.238 NA
ENDROOT
BRANCH   7  10
HETATM   10  N1  UNL     1      21.686   0.517  53.367  1.00  0.00     0.101 N 
HETATM   11  H8  UNL     1      20.976   0.552  54.133  1.00  0.00     0.317 HD
BRANCH  10  12
HETATM   12  C10 UNL     1      21.092   0.752  52.101  1.00  0.00     0.311 C 
BRANCH  12  13
HETATM   13  C11 UNL     1      21.774   1.729  51.233  1.00  0.00    -0.013 A 
HETATM   14  C12 UNL     1      22.185   1.500  49.937  1.00  0.00     0.012 A 
HETATM   15  C13 UNL     1      22.804   2.499  49.198  1.00  0.00     0.020 A 
HETATM   16  C14 UNL     1      22.979   3.705  49.821  1.00  0.00     0.116 A 
HETATM   17  N2  UNL     1      22.583   3.939  51.080  1.00  0.00    -0.273 NA
HETATM   18  C15 UNL     1      21.973   2.978  51.832  1.00  0.00     0.125 A 
ENDBRANCH  12  13
ENDBRANCH  10  12
ENDBRANCH   7  10
BRANCH   1  19
HETATM   19  C3  UNL     1      26.387   1.364  51.761  1.00  0.00     0.051 C 
BRANCH  19  20
HETATM   20  C2  UNL     1      26.477   2.365  50.929  1.00  0.00    -0.155 C 
HETATM   21  C1  UNL     1      26.562   3.197  49.900  1.00  0.00     0.096 C 
ENDBRANCH  19  20
ENDBRANCH   1  19
TORSDOF 5
ENDMDL
MODEL 5
REMARK VINA RESULT:      -7.1      2.950      5.173
REMARK  5 active torsions:
REMARK  status: ('A' for Active; 'I' for Inactive)
REMARK    1  A    between atoms: C2_2  and  C3_3 
REMARK    2  A    between atoms: C3_3  and  C4_4 
REMARK    3  A    between atoms: C9_10  and  N1_11 
REMARK    4  A    between atoms: N1_11  and  C10_12 
REMARK    5  A    between atoms: C10_12  and  C11_13 
ROOT
HETATM    1  C4  UNL     1      26.648   0.068  52.170  1.00  0.00     0.018 C 
HETATM    2  C5  UNL     1      25.402   0.361  52.516  1.00  0.00    -0.020 C 
HETATM    3  C6  UNL     1      24.603  -0.339  53.551  1.00  0.00     0.216 C 
HETATM    4  O1  UNL     1      23.494   0.496  53.735  1.00  0.00    -0.329 OA
HETATM    5  C7  UNL     1      23.411   1.469  52.719  1.00  0.00     0.173 A 
HETATM    6  C8  UNL     1      24.518   1.400  52.001  1.00  0.00     0.041 A 
HETATM    7  C9  UNL     1      24.543   2.391  50.886  1.00  0.00     0.299 A 
HETATM    8  C16 UNL     1      23.191   3.029  51.150  1.00  0.00     0.133 A 
HETATM    9  N3  UNL     1      22.586   2.495  52.175  1.00  0.00    -0.238 NA
ENDROOT
BRANCH   7  10
HETATM   10  N1  UNL     1      25.594   3.336  51.010  1.00  0.00     0.101 N 
HETATM   11  H8  UNL     1      25.162   4.277  51.146  1.00  0.00     0.317 HD
BRANCH  10  12
HETATM   12  C10 UNL     1      26.531   3.347  49.946  1.00  0.00     0.311 C 
BRANCH  12  13
HETATM   13  C11 UNL     1      26.783   4.656  49.316  1.00  0.00    -0.013 A 
HETATM   14  C12 UNL     1      27.916   5.000  48.609  1.00  0.00     0.012 A 
HETATM   15  C13 UNL     1      28.046   6.258  48.037  1.00  0.00     0.020 A 
HETATM   16  C14 UNL     1      27.000   7.123  48.214  1.00  0.00     0.116 A 
HETATM   17  N2  UNL     1      25.894   6.800  48.899  1.00  0.00    -0.273 NA
HETATM   18  C15 UNL     1      25.737   5.572  49.473  1.00  0.00     0.125 A 
ENDBRANCH  12  13
ENDBRANCH  10  12
ENDBRANCH   7  10
BRANCH   1  19
HETATM   19  C3  UNL     1      27.305  -1.031  52.853  1.00  0.00     0.051 C 
BRANCH  19  20
HETATM   20  C2  UNL     1      28.557  -0.921  53.205  1.00  0.00    -0.155 C 
HETATM   21  C1  UNL     1      29.778  -1.014  53.714  1.00  0.00     0.096 C 
ENDBRANCH  19  20
ENDBRANCH   1  19
TORSDOF 5
ENDMDL
MODEL 6
REMARK VINA RESULT:      -7.1      2.511      4.640
REMARK  5 active torsions:
REMARK  status: ('A' for Active; 'I' for Inactive)
REMARK    1  A    between atoms: C2_2  and  C3_3 
REMARK    2  A    between atoms: C3_3  and  C4_4 
REMARK    3  A    between atoms: C9_10  and  N1_11 
REMARK    4  A    between atoms: N1_11  and  C10_12 
REMARK    5  A    between atoms: C10_12  and  C11_13 
ROOT
HETATM    1  C4  UNL     1      24.965   2.888  50.608  1.00  0.00     0.018 C 
HETATM    2  C5  UNL     1      23.763   2.347  50.751  1.00  0.00    -0.020 C 
HETATM    3  C6  UNL     1      22.584   2.617  49.894  1.00  0.00     0.216 C 
HETATM    4  O1  UNL     1      21.669   1.623  50.265  1.00  0.00    -0.329 OA
HETATM    5  C7  UNL     1      22.073   0.971  51.448  1.00  0.00     0.173 A 
HETATM    6  C8  UNL     1      23.293   1.385  51.741  1.00  0.00     0.041 A 
HETATM    7  C9  UNL     1      23.829   0.758  52.985  1.00  0.00     0.299 A 
HETATM    8  C16 UNL     1      22.623  -0.103  53.315  1.00  0.00     0.133 A 
HETATM    9  N3  UNL     1      21.664   0.038  52.443  1.00  0.00    -0.238 NA
ENDROOT
BRANCH   7  10
HETATM   10  N1  UNL     1      24.982  -0.035  52.750  1.00  0.00     0.101 N 
HETATM   11  H8  UNL     1      24.812  -0.976  53.170  1.00  0.00     0.317 HD
BRANCH  10  12
HETATM   12  C10 UNL     1      26.205   0.520  53.204  1.00  0.00     0.311 C 
BRANCH  12  13
HETATM   13  C11 UNL     1      27.361  -0.395  53.238  1.00  0.00    -0.013 A 
HETATM   14  C12 UNL     1      28.656  -0.038  53.548  1.00  0.00     0.012 A 
HETATM   15  C13 UNL     1      29.671  -0.985  53.571  1.00  0.00     0.020 A 
HETATM   16  C14 UNL     1      29.316  -2.272  53.272  1.00  0.00     0.116 A 
HETATM   17  N2  UNL     1      28.061  -2.631  52.970  1.00  0.00    -0.273 NA
HETATM   18  C15 UNL     1      27.042  -1.723  52.939  1.00  0.00     0.125 A 
ENDBRANCH  12  13
ENDBRANCH  10  12
ENDBRANCH   7  10
BRANCH   1  19
HETATM   19  C3  UNL     1      25.164   3.830  49.521  1.00  0.00     0.051 C 
BRANCH  19  20
HETATM   20  C2  UNL     1      26.362   4.278  49.263  1.00  0.00    -0.155 C 
HETATM   21  C1  UNL     1      27.542   4.623  48.766  1.00  0.00     0.096 C 
ENDBRANCH  19  20
ENDBRANCH   1  19
TORSDOF 5
ENDMDL
MODEL 7
REMARK VINA RESULT:      -7.1      2.319      4.932
REMARK  5 active torsions:
REMARK  status: ('A' for Active; 'I' for Inactive)
REMARK    1  A    between atoms: C2_2  and  C3_3 
REMARK    2  A    between atoms: C3_3  and  C4_4 
REMARK    3  A    between atoms: C9_10  and  N1_11 
REMARK    4  A    between atoms: N1_11  and  C10_12 
REMARK    5  A    between atoms: C10_12  and  C11_13 
ROOT
HETATM    1  C4  UNL     1      23.972   0.125  53.113  1.00  0.00     0.018 C 
HETATM    2  C5  UNL     1      25.088   0.134  53.828  1.00  0.00    -0.020 C 
HETATM    3  C6  UNL     1      25.373  -0.730  54.999  1.00  0.00     0.216 C 
HETATM    4  O1  UNL     1      26.744  -0.546  55.220  1.00  0.00    -0.329 OA
HETATM    5  C7  UNL     1      27.240   0.549  54.485  1.00  0.00     0.173 A 
HETATM    6  C8  UNL     1      26.282   0.954  53.669  1.00  0.00     0.041 A 
HETATM    7  C9  UNL     1      26.695   2.119  52.832  1.00  0.00     0.299 A 
HETATM    8  C16 UNL     1      28.106   2.268  53.372  1.00  0.00     0.133 A 
HETATM    9  N3  UNL     1      28.379   1.381  54.289  1.00  0.00    -0.238 NA
ENDROOT
BRANCH   7  10
HETATM   10  N1  UNL     1      26.701   1.828  51.444  1.00  0.00     0.101 N 
HETATM   11  H8  UNL     1      27.671   1.539  51.183  1.00  0.00     0.317 HD
BRANCH  10  12
HETATM   12  C10 UNL     1      26.227   2.866  50.602  1.00  0.00     0.311 C 
BRANCH  12  13
HETATM   13  C11 UNL     1      24.787   3.170  50.692  1.00  0.00    -0.013 A 
HETATM   14  C12 UNL     1      23.765   2.263  50.508  1.00  0.00     0.012 A 
HETATM   15  C13 UNL     1      22.437   2.650  50.635  1.00  0.00     0.020 A 
HETATM   16  C14 UNL     1      22.208   3.962  50.948  1.00  0.00     0.116 A 
HETATM   17  N2  UNL     1      23.193   4.852  51.130  1.00  0.00    -0.273 NA
HETATM   18  C15 UNL     1      24.508   4.502  51.011  1.00  0.00     0.125 A 
ENDBRANCH  12  13
ENDBRANCH  10  12
ENDBRANCH   7  10
BRANCH   1  19
HETATM   19  C3  UNL     1      22.925  -0.806  53.493  1.00  0.00     0.051 C 
BRANCH  19  20
HETATM   20  C2  UNL     1      21.798  -0.355  53.972  1.00  0.00    -0.155 C 
HETATM   21  C1  UNL     1      20.675   0.283  54.271  1.00  0.00     0.096 C 
ENDBRANCH  19  20
ENDBRANCH   1  19
TORSDOF 5
ENDMDL
MODEL 8
REMARK VINA RESULT:      -7.0      2.488      4.398
REMARK  5 active torsions:
REMARK  status: ('A' for Active; 'I' for Inactive)
REMARK    1  A    between atoms: C2_2  and  C3_3 
REMARK    2  A    between atoms: C3_3  and  C4_4 
REMARK    3  A    between atoms: C9_10  and  N1_11 
REMARK    4  A    between atoms: N1_11  and  C10_12 
REMARK    5  A    between atoms: C10_12  and  C11_13 
ROOT
HETATM    1  C4  UNL     1      23.936   2.064  51.214  1.00  0.00     0.018 C 
HETATM    2  C5  UNL     1      22.847   1.358  51.485  1.00  0.00    -0.020 C 
HETATM    3  C6  UNL     1      21.584   1.383  50.710  1.00  0.00     0.216 C 
HETATM    4  O1  UNL     1      20.865   0.291  51.212  1.00  0.00    -0.329 OA
HETATM    5  C7  UNL     1      21.447  -0.206  52.395  1.00  0.00     0.173 A 
HETATM    6  C8  UNL     1      22.604   0.409  52.565  1.00  0.00     0.041 A 
HETATM    7  C9  UNL     1      23.318  -0.039  53.797  1.00  0.00     0.299 A 
HETATM    8  C16 UNL     1      22.288  -1.048  54.273  1.00  0.00     0.133 A 
HETATM    9  N3  UNL     1      21.260  -1.118  53.473  1.00  0.00    -0.238 NA
ENDROOT
BRANCH   7  10
HETATM   10  N1  UNL     1      24.561  -0.662  53.518  1.00  0.00     0.101 N 
HETATM   11  H8  UNL     1      24.378  -1.674  53.336  1.00  0.00     0.317 HD
BRANCH  10  12
HETATM   12  C10 UNL     1      25.563  -0.489  54.508  1.00  0.00     0.311 C 
BRANCH  12  13
HETATM   13  C11 UNL     1      26.649   0.451  54.176  1.00  0.00    -0.013 A 
HETATM   14  C12 UNL     1      26.568   1.477  53.258  1.00  0.00     0.012 A 
HETATM   15  C13 UNL     1      27.647   2.321  53.035  1.00  0.00     0.020 A 
HETATM   16  C14 UNL     1      28.778   2.079  53.767  1.00  0.00     0.116 A 
HETATM   17  N2  UNL     1      28.868   1.086  54.661  1.00  0.00    -0.273 NA
HETATM   18  C15 UNL     1      27.825   0.239  54.903  1.00  0.00     0.125 A 
ENDBRANCH  12  13
ENDBRANCH  10  12
ENDBRANCH   7  10
BRANCH   1  19
HETATM   19  C3  UNL     1      23.909   2.946  50.061  1.00  0.00     0.051 C 
BRANCH  19  20
HETATM   20  C2  UNL     1      25.016   3.487  49.631  1.00  0.00    -0.155 C 
HETATM   21  C1  UNL     1      26.233   3.969  49.428  1.00  0.00     0.096 C 
ENDBRANCH  19  20
ENDBRANCH   1  19
TORSDOF 5
ENDMDL
MODEL 9
REMARK VINA RESULT:      -6.9      2.439      4.734
REMARK  5 active torsions:
REMARK  status: ('A' for Active; 'I' for Inactive)
REMARK    1  A    between atoms: C2_2  and  C3_3 
REMARK    2  A    between atoms: C3_3  and  C4_4 
REMARK    3  A    between atoms: C9_10  and  N1_11 
REMARK    4  A    between atoms: N1_11  and  C10_12 
REMARK    5  A    between atoms: C10_12  and  C11_13 
ROOT
HETATM    1  C4  UNL     1      23.673   0.551  52.874  1.00  0.00     0.018 C 
HETATM    2  C5  UNL     1      24.889   0.973  52.559  1.00  0.00    -0.020 C 
HETATM    3  C6  UNL     1      26.161   0.407  53.071  1.00  0.00     0.216 C 
HETATM    4  O1  UNL     1      27.136   0.990  52.251  1.00  0.00    -0.329 OA
HETATM    5  C7  UNL     1      26.603   2.054  51.496  1.00  0.00     0.173 A 
HETATM    6  C8  UNL     1      25.293   2.054  51.669  1.00  0.00     0.041 A 
HETATM    7  C9  UNL     1      24.614   3.147  50.912  1.00  0.00     0.299 A 
HETATM    8  C16 UNL     1      25.852   3.755  50.277  1.00  0.00     0.133 A 
HETATM    9  N3  UNL     1      26.941   3.126  50.622  1.00  0.00    -0.238 NA
ENDROOT
BRANCH   7  10
HETATM   10  N1  UNL     1      23.715   2.661  49.928  1.00  0.00     0.101 N 
HETATM   11  H8  UNL     1      24.146   2.827  48.991  1.00  0.00     0.317 HD
BRANCH  10  12
HETATM   12  C10 UNL     1      22.400   3.188  49.992  1.00  0.00     0.311 C 
BRANCH  12  13
HETATM   13  C11 UNL     1      21.425   2.413  50.781  1.00  0.00    -0.013 A 
HETATM   14  C12 UNL     1      21.041   1.114  50.526  1.00  0.00     0.012 A 
HETATM   15  C13 UNL     1      20.127   0.466  51.347  1.00  0.00     0.020 A 
HETATM   16  C14 UNL     1      19.639   1.182  52.406  1.00  0.00     0.116 A 
HETATM   17  N2  UNL     1      20.006   2.444  52.664  1.00  0.00    -0.273 NA
HETATM   18  C15 UNL     1      20.901   3.108  51.876  1.00  0.00     0.125 A 
ENDBRANCH  12  13
ENDBRANCH  10  12
ENDBRANCH   7  10
BRANCH   1  19
HETATM   19  C3  UNL     1      23.554  -0.562  53.799  1.00  0.00     0.051 C 
BRANCH  19  20
HETATM   20  C2  UNL     1      22.374  -0.951  54.198  1.00  0.00    -0.155 C 
HETATM   21  C1  UNL     1      21.188  -1.507  54.399  1.00  0.00     0.096 C 
ENDBRANCH  19  20
ENDBRANCH   1  19
TORSDOF 5
ENDMDL
