MODEL 1
REMARK VINA RESULT:      -8.0      0.000      0.000
REMARK  9 active torsions:
REMARK  status: ('A' for Active; 'I' for Inactive)
REMARK    1  A    between atoms: C5_6  and  N1_7 
REMARK    2  A    between atoms: N1_7  and  C6_8 
REMARK    3  A    between atoms: C10_14  and  O1_15 
REMARK    4  A    between atoms: C12_17  and  O2_18 
REMARK    5  A    between atoms: O2_18  and  C13_19 
REMARK    6  A    between atoms: C13_19  and  C14_20 
REMARK    7  A    between atoms: C14_20  and  C16_22 
REMARK    8  A    between atoms: C16_22  and  N4_23 
REMARK    9  A    between atoms: N4_23  and  C17_24 
ROOT
HETATM    1  C6  UNL     1      24.190  -0.313  53.550  1.00  0.00     0.142 A 
HETATM    2  N2  UNL     1      24.637  -0.886  54.660  1.00  0.00    -0.224 NA
HETATM    3  C7  UNL     1      23.773  -1.421  55.571  1.00  0.00     0.236 A 
HETATM    4  N3  UNL     1      22.452  -1.357  55.320  1.00  0.00    -0.241 NA
HETATM    5  C8  UNL     1      21.981  -0.784  54.207  1.00  0.00     0.075 A 
HETATM    6  C9  UNL     1      20.631  -0.725  53.965  1.00  0.00     0.072 A 
HETATM    7  C10 UNL     1      20.167  -0.126  52.805  1.00  0.00     0.103 A 
HETATM    8  C12 UNL     1      21.032   0.418  51.880  1.00  0.00     0.103 A 
HETATM    9  C19 UNL     1      22.393   0.372  52.101  1.00  0.00     0.057 A 
HETATM   10  C20 UNL     1      22.844  -0.227  53.257  1.00  0.00     0.042 A 
ENDROOT
BRANCH   1  11
HETATM   11  N1  UNL     1      25.173   0.215  52.668  1.00  0.00    -0.338 N 
HETATM   12  H4  UNL     1      25.100   0.648  51.735  1.00  0.00     0.167 HD
BRANCH  11  13
HETATM   13  C5  UNL     1      26.542   0.185  53.056  1.00  0.00     0.075 A 
HETATM   14  C4  UNL     1      27.224   1.322  53.669  1.00  0.00     0.057 A 
HETATM   15  C3  UNL     1      28.495   1.066  53.947  1.00  0.00     0.048 A 
HETATM   16  C2  UNL     1      28.667  -0.310  53.496  1.00  0.00     0.017 A 
HETATM   17 CL1  UNL     1      29.689   2.103  54.673  1.00  0.00    -0.083 Cl
HETATM   18  C1  UNL     1      29.766  -1.045  53.549  1.00  0.00     0.028 C 
HETATM   19  C21 UNL     1      27.420  -0.827  52.945  1.00  0.00     0.154 A 
HETATM   20  F1  UNL     1      27.088  -2.013  52.416  1.00  0.00    -0.203 F 
ENDBRANCH  11  13
ENDBRANCH   1  11
BRANCH   8  21
HETATM   21  O2  UNL     1      20.497   1.000  50.746  1.00  0.00    -0.348 OA
BRANCH  21  22
HETATM   22  C13 UNL     1      21.069   0.858  49.461  1.00  0.00     0.181 C 
BRANCH  22  23
HETATM   23  C14 UNL     1      21.897   2.104  49.228  1.00  0.00     0.034 C 
HETATM   24  C15 UNL     1      22.410   2.075  47.797  1.00  0.00     0.014 C 
BRANCH  23  25
HETATM   25  C16 UNL     1      21.116   3.375  49.483  1.00  0.00     0.275 C 
BRANCH  25  26
HETATM   26  N4  UNL     1      21.405   3.827  50.830  1.00  0.00     0.083 N 
HETATM   27  H18 UNL     1      21.002   4.800  50.984  1.00  0.00     0.315 HD
BRANCH  26  28
HETATM   28  C17 UNL     1      22.859   4.044  50.891  1.00  0.00     0.265 C 
HETATM   29  C18 UNL     1      23.257   3.925  52.340  1.00  0.00     0.037 C 
ENDBRANCH  26  28
ENDBRANCH  25  26
ENDBRANCH  23  25
ENDBRANCH  22  23
ENDBRANCH  21  22
ENDBRANCH   8  21
BRANCH   7  30
HETATM   30  O1  UNL     1      18.800  -0.068  52.564  1.00  0.00    -0.353 OA
HETATM   31  C11 UNL     1      17.895  -1.059  52.937  1.00  0.00     0.210 C 
ENDBRANCH   7  30
TORSDOF 9
ENDMDL
MODEL 2
REMARK VINA RESULT:      -7.9      1.751      2.279
REMARK  9 active torsions:
REMARK  status: ('A' for Active; 'I' for Inactive)
REMARK    1  A    between atoms: C5_6  and  N1_7 
REMARK    2  A    between atoms: N1_7  and  C6_8 
REMARK    3  A    between atoms: C10_14  and  O1_15 
REMARK    4  A    between atoms: C12_17  and  O2_18 
REMARK    5  A    between atoms: O2_18  and  C13_19 
REMARK    6  A    between atoms: C13_19  and  C14_20 
REMARK    7  A    between atoms: C14_20  and  C16_22 
REMARK    8  A    between atoms: C16_22  and  N4_23 
REMARK    9  A    between atoms: N4_23  and  C17_24 
ROOT
HETATM    1  C6  UNL     1      24.103  -0.334  53.630  1.00  0.00     0.142 A 
HETATM    2  N2  UNL     1      24.589  -0.877  54.738  1.00  0.00    -0.224 NA
HETATM    3  C7  UNL     1      23.760  -1.430  55.671  1.00  0.00     0.236 A 
HETATM    4  N3  UNL     1      22.434  -1.414  55.443  1.00  0.00    -0.241 NA
HETATM    5  C8  UNL     1      21.923  -0.872  54.332  1.00  0.00     0.075 A 
HETATM    6  C9  UNL     1      20.568  -0.862  54.114  1.00  0.00     0.072 A 
HETATM    7  C10 UNL     1      20.063  -0.295  52.956  1.00  0.00     0.103 A 
HETATM    8  C12 UNL     1      20.892   0.267  52.008  1.00  0.00     0.103 A 
HETATM    9  C19 UNL     1      22.258   0.270  52.205  1.00  0.00     0.057 A 
HETATM   10  C20 UNL     1      22.750  -0.298  53.360  1.00  0.00     0.042 A 
ENDROOT
BRANCH   1  11
HETATM   11  N1  UNL     1      25.051   0.216  52.723  1.00  0.00    -0.338 N 
HETATM   12  H4  UNL     1      24.943   0.665  51.802  1.00  0.00     0.167 HD
BRANCH  11  13
HETATM   13  C5  UNL     1      26.433   0.188  53.063  1.00  0.00     0.075 A 
HETATM   14  C4  UNL     1      27.125   1.312  53.689  1.00  0.00     0.057 A 
HETATM   15  C3  UNL     1      28.408   1.061  53.914  1.00  0.00     0.048 A 
HETATM   16  C2  UNL     1      28.577  -0.298  53.413  1.00  0.00     0.017 A 
HETATM   17 CL1  UNL     1      29.616   2.086  54.632  1.00  0.00    -0.083 Cl
HETATM   18  C1  UNL     1      29.684  -1.023  53.404  1.00  0.00     0.028 C 
HETATM   19  C21 UNL     1      27.316  -0.811  52.888  1.00  0.00     0.154 A 
HETATM   20  F1  UNL     1      26.977  -1.982  52.333  1.00  0.00    -0.203 F 
ENDBRANCH  11  13
ENDBRANCH   1  11
BRANCH   8  21
HETATM   21  O2  UNL     1      20.317   0.815  50.877  1.00  0.00    -0.348 OA
BRANCH  21  22
HETATM   22  C13 UNL     1      20.546   2.146  50.461  1.00  0.00     0.181 C 
BRANCH  22  23
HETATM   23  C14 UNL     1      20.155   3.026  51.630  1.00  0.00     0.034 C 
HETATM   24  C15 UNL     1      21.135   4.186  51.703  1.00  0.00     0.014 C 
BRANCH  23  25
HETATM   25  C16 UNL     1      18.736   3.540  51.519  1.00  0.00     0.275 C 
BRANCH  25  26
HETATM   26  N4  UNL     1      17.834   2.406  51.562  1.00  0.00     0.083 N 
HETATM   27  H18 UNL     1      18.097   1.700  50.810  1.00  0.00     0.315 HD
BRANCH  26  28
HETATM   28  C17 UNL     1      16.522   2.905  51.120  1.00  0.00     0.265 C 
HETATM   29  C18 UNL     1      16.257   4.174  51.891  1.00  0.00     0.037 C 
ENDBRANCH  26  28
ENDBRANCH  25  26
ENDBRANCH  23  25
ENDBRANCH  22  23
ENDBRANCH  21  22
ENDBRANCH   8  21
BRANCH   7  30
HETATM   30  O1  UNL     1      18.691  -0.288  52.739  1.00  0.00    -0.353 OA
HETATM   31  C11 UNL     1      17.826  -1.301  53.147  1.00  0.00     0.210 C 
ENDBRANCH   7  30
TORSDOF 9
ENDMDL
MODEL 3
REMARK VINA RESULT:      -7.8      2.510      4.828
REMARK  9 active torsions:
REMARK  status: ('A' for Active; 'I' for Inactive)
REMARK    1  A    between atoms: C5_6  and  N1_7 
REMARK    2  A    between atoms: N1_7  and  C6_8 
REMARK    3  A    between atoms: C10_14  and  O1_15 
REMARK    4  A    between atoms: C12_17  and  O2_18 
REMARK    5  A    between atoms: O2_18  and  C13_19 
REMARK    6  A    between atoms: C13_19  and  C14_20 
REMARK    7  A    between atoms: C14_20  and  C16_22 
REMARK    8  A    between atoms: C16_22  and  N4_23 
REMARK    9  A    between atoms: N4_23  and  C17_24 
ROOT
HETATM    1  C6  UNL     1      25.970   2.719  51.717  1.00  0.00     0.142 A 
HETATM    2  N2  UNL     1      26.844   3.157  50.821  1.00  0.00    -0.224 NA
HETATM    3  C7  UNL     1      26.442   3.516  49.566  1.00  0.00     0.236 A 
HETATM    4  N3  UNL     1      25.137   3.418  49.256  1.00  0.00    -0.241 NA
HETATM    5  C8  UNL     1      24.239   2.978  50.145  1.00  0.00     0.075 A 
HETATM    6  C9  UNL     1      22.910   2.882  49.813  1.00  0.00     0.072 A 
HETATM    7  C10 UNL     1      22.000   2.424  50.751  1.00  0.00     0.103 A 
HETATM    8  C12 UNL     1      22.396   2.058  52.020  1.00  0.00     0.103 A 
HETATM    9  C19 UNL     1      23.726   2.145  52.377  1.00  0.00     0.057 A 
HETATM   10  C20 UNL     1      24.623   2.603  51.437  1.00  0.00     0.042 A 
ENDROOT
BRANCH   1  11
HETATM   11  N1  UNL     1      26.491   2.369  52.994  1.00  0.00    -0.338 N 
HETATM   12  H4  UNL     1      26.397   2.811  53.921  1.00  0.00     0.167 HD
BRANCH  11  13
HETATM   13  C5  UNL     1      27.306   1.209  53.116  1.00  0.00     0.075 A 
HETATM   14  C4  UNL     1      26.851  -0.130  52.747  1.00  0.00     0.057 A 
HETATM   15  C3  UNL     1      27.778  -1.057  52.946  1.00  0.00     0.048 A 
HETATM   16  C2  UNL     1      28.906  -0.298  53.473  1.00  0.00     0.017 A 
HETATM   17 CL1  UNL     1      27.695  -2.770  52.655  1.00  0.00    -0.083 Cl
HETATM   18  C1  UNL     1      30.091  -0.759  53.837  1.00  0.00     0.028 C 
HETATM   19  C21 UNL     1      28.570   1.119  53.564  1.00  0.00     0.154 A 
HETATM   20  F1  UNL     1      29.264   2.188  53.980  1.00  0.00    -0.203 F 
ENDBRANCH  11  13
ENDBRANCH   1  11
BRANCH   8  21
HETATM   21  O2  UNL     1      21.432   1.610  52.903  1.00  0.00    -0.348 OA
BRANCH  21  22
HETATM   22  C13 UNL     1      21.672   0.601  53.864  1.00  0.00     0.181 C 
BRANCH  22  23
HETATM   23  C14 UNL     1      20.947  -0.633  53.370  1.00  0.00     0.034 C 
HETATM   24  C15 UNL     1      21.343  -1.805  54.254  1.00  0.00     0.014 C 
BRANCH  23  25
HETATM   25  C16 UNL     1      19.444  -0.459  53.364  1.00  0.00     0.275 C 
BRANCH  25  26
HETATM   26  N4  UNL     1      19.073   0.287  52.178  1.00  0.00     0.083 N 
HETATM   27  H18 UNL     1      18.558   1.177  52.452  1.00  0.00     0.315 HD
BRANCH  26  28
HETATM   28  C17 UNL     1      18.043  -0.509  51.494  1.00  0.00     0.265 C 
HETATM   29  C18 UNL     1      17.314   0.427  50.564  1.00  0.00     0.037 C 
ENDBRANCH  26  28
ENDBRANCH  25  26
ENDBRANCH  23  25
ENDBRANCH  22  23
ENDBRANCH  21  22
ENDBRANCH   8  21
BRANCH   7  30
HETATM   30  O1  UNL     1      20.657   2.329  50.412  1.00  0.00    -0.353 OA
HETATM   31  C11 UNL     1      19.796   3.418  50.300  1.00  0.00     0.210 C 
ENDBRANCH   7  30
TORSDOF 9
ENDMDL
MODEL 4
REMARK VINA RESULT:      -7.6      1.480      1.817
REMARK  9 active torsions:
REMARK  status: ('A' for Active; 'I' for Inactive)
REMARK    1  A    between atoms: C5_6  and  N1_7 
REMARK    2  A    between atoms: N1_7  and  C6_8 
REMARK    3  A    between atoms: C10_14  and  O1_15 
REMARK    4  A    between atoms: C12_17  and  O2_18 
REMARK    5  A    between atoms: O2_18  and  C13_19 
REMARK    6  A    between atoms: C13_19  and  C14_20 
REMARK    7  A    between atoms: C14_20  and  C16_22 
REMARK    8  A    between atoms: C16_22  and  N4_23 
REMARK    9  A    between atoms: N4_23  and  C17_24 
ROOT
HETATM    1  C6  UNL     1      23.920  -0.267  53.501  1.00  0.00     0.142 A 
HETATM    2  N2  UNL     1      24.335  -0.838  54.623  1.00  0.00    -0.224 NA
HETATM    3  C7  UNL     1      23.444  -1.381  55.505  1.00  0.00     0.236 A 
HETATM    4  N3  UNL     1      22.133  -1.326  55.211  1.00  0.00    -0.241 NA
HETATM    5  C8  UNL     1      21.694  -0.754  54.083  1.00  0.00     0.075 A 
HETATM    6  C9  UNL     1      20.352  -0.704  53.797  1.00  0.00     0.072 A 
HETATM    7  C10 UNL     1      19.922  -0.107  52.624  1.00  0.00     0.103 A 
HETATM    8  C12 UNL     1      20.814   0.444  51.728  1.00  0.00     0.103 A 
HETATM    9  C19 UNL     1      22.167   0.407  51.993  1.00  0.00     0.057 A 
HETATM   10  C20 UNL     1      22.584  -0.190  53.164  1.00  0.00     0.042 A 
ENDROOT
BRANCH   1  11
HETATM   11  N1  UNL     1      24.928   0.269  52.651  1.00  0.00    -0.338 N 
HETATM   12  H4  UNL     1      24.884   0.692  51.712  1.00  0.00     0.167 HD
BRANCH  11  13
HETATM   13  C5  UNL     1      26.281   0.264  53.092  1.00  0.00     0.075 A 
HETATM   14  C4  UNL     1      27.171  -0.883  52.925  1.00  0.00     0.057 A 
HETATM   15  C3  UNL     1      28.386  -0.661  53.411  1.00  0.00     0.048 A 
HETATM   16  C2  UNL     1      28.298   0.700  53.926  1.00  0.00     0.017 A 
HETATM   17 CL1  UNL     1      29.765  -1.720  53.438  1.00  0.00    -0.083 Cl
HETATM   18  C1  UNL     1      29.251   1.402  54.518  1.00  0.00     0.028 C 
HETATM   19  C21 UNL     1      26.963   1.245  53.706  1.00  0.00     0.154 A 
HETATM   20  F1  UNL     1      26.411   2.431  54.000  1.00  0.00    -0.203 F 
ENDBRANCH  11  13
ENDBRANCH   1  11
BRANCH   8  21
HETATM   21  O2  UNL     1      20.312   1.023  50.577  1.00  0.00    -0.348 OA
BRANCH  21  22
HETATM   22  C13 UNL     1      20.937   0.903  49.315  1.00  0.00     0.181 C 
BRANCH  22  23
HETATM   23  C14 UNL     1      20.674   2.205  48.588  1.00  0.00     0.034 C 
HETATM   24  C15 UNL     1      19.302   2.714  49.004  1.00  0.00     0.014 C 
BRANCH  23  25
HETATM   25  C16 UNL     1      21.732   3.250  48.869  1.00  0.00     0.275 C 
BRANCH  25  26
HETATM   26  N4  UNL     1      22.939   2.575  49.304  1.00  0.00     0.083 N 
HETATM   27  H18 UNL     1      22.701   1.830  50.026  1.00  0.00     0.315 HD
BRANCH  26  28
HETATM   28  C17 UNL     1      23.712   3.563  50.070  1.00  0.00     0.265 C 
HETATM   29  C18 UNL     1      25.149   3.426  49.634  1.00  0.00     0.037 C 
ENDBRANCH  26  28
ENDBRANCH  25  26
ENDBRANCH  23  25
ENDBRANCH  22  23
ENDBRANCH  21  22
ENDBRANCH   8  21
BRANCH   7  30
HETATM   30  O1  UNL     1      18.564  -0.059  52.338  1.00  0.00    -0.353 OA
HETATM   31  C11 UNL     1      17.635  -0.998  52.780  1.00  0.00     0.210 C 
ENDBRANCH   7  30
TORSDOF 9
ENDMDL
MODEL 5
REMARK VINA RESULT:      -7.5      1.688      2.389
REMARK  9 active torsions:
REMARK  status: ('A' for Active; 'I' for Inactive)
REMARK    1  A    between atoms: C5_6  and  N1_7 
REMARK    2  A    between atoms: N1_7  and  C6_8 
REMARK    3  A    between atoms: C10_14  and  O1_15 
REMARK    4  A    between atoms: C12_17  and  O2_18 
REMARK    5  A    between atoms: O2_18  and  C13_19 
REMARK    6  A    between atoms: C13_19  and  C14_20 
REMARK    7  A    between atoms: C14_20  and  C16_22 
REMARK    8  A    between atoms: C16_22  and  N4_23 
REMARK    9  A    between atoms: N4_23  and  C17_24 
ROOT
HETATM    1  C6  UNL     1      24.354  -0.446  53.725  1.00  0.00     0.142 A 
HETATM    2  N2  UNL     1      24.842  -0.979  54.837  1.00  0.00    -0.224 NA
HETATM    3  C7  UNL     1      24.013  -1.498  55.789  1.00  0.00     0.236 A 
HETATM    4  N3  UNL     1      22.685  -1.458  55.578  1.00  0.00    -0.241 NA
HETATM    5  C8  UNL     1      22.172  -0.925  54.463  1.00  0.00     0.075 A 
HETATM    6  C9  UNL     1      20.815  -0.890  54.261  1.00  0.00     0.072 A 
HETATM    7  C10 UNL     1      20.308  -0.332  53.099  1.00  0.00     0.103 A 
HETATM    8  C12 UNL     1      21.137   0.195  52.131  1.00  0.00     0.103 A 
HETATM    9  C19 UNL     1      22.505   0.172  52.312  1.00  0.00     0.057 A 
HETATM   10  C20 UNL     1      22.999  -0.385  53.471  1.00  0.00     0.042 A 
ENDROOT
BRANCH   1  11
HETATM   11  N1  UNL     1      25.302   0.068  52.797  1.00  0.00    -0.338 N 
HETATM   12  H4  UNL     1      25.222   0.326  51.802  1.00  0.00     0.167 HD
BRANCH  11  13
HETATM   13  C5  UNL     1      26.638   0.303  53.229  1.00  0.00     0.075 A 
HETATM   14  C4  UNL     1      27.688  -0.711  53.164  1.00  0.00     0.057 A 
HETATM   15  C3  UNL     1      28.853  -0.270  53.620  1.00  0.00     0.048 A 
HETATM   16  C2  UNL     1      28.563   1.106  54.008  1.00  0.00     0.017 A 
HETATM   17 CL1  UNL     1      30.373  -1.108  53.737  1.00  0.00    -0.083 Cl
HETATM   18  C1  UNL     1      29.397   1.991  54.528  1.00  0.00     0.028 C 
HETATM   19  C21 UNL     1      27.164   1.426  53.747  1.00  0.00     0.154 A 
HETATM   20  F1  UNL     1      26.441   2.539  53.933  1.00  0.00    -0.203 F 
ENDBRANCH  11  13
ENDBRANCH   1  11
BRANCH   8  21
HETATM   21  O2  UNL     1      20.559   0.735  50.998  1.00  0.00    -0.348 OA
BRANCH  21  22
HETATM   22  C13 UNL     1      21.222   0.805  49.751  1.00  0.00     0.181 C 
BRANCH  22  23
HETATM   23  C14 UNL     1      21.474   2.275  49.489  1.00  0.00     0.034 C 
HETATM   24  C15 UNL     1      22.581   2.392  48.454  1.00  0.00     0.014 C 
BRANCH  23  25
HETATM   25  C16 UNL     1      20.232   3.001  49.019  1.00  0.00     0.275 C 
BRANCH  25  26
HETATM   26  N4  UNL     1      19.241   2.013  48.638  1.00  0.00     0.083 N 
HETATM   27  H18 UNL     1      19.291   1.830  47.590  1.00  0.00     0.315 HD
BRANCH  26  28
HETATM   28  C17 UNL     1      17.930   2.656  48.812  1.00  0.00     0.265 C 
HETATM   29  C18 UNL     1      17.470   3.087  47.442  1.00  0.00     0.037 C 
ENDBRANCH  26  28
ENDBRANCH  25  26
ENDBRANCH  23  25
ENDBRANCH  22  23
ENDBRANCH  21  22
ENDBRANCH   8  21
BRANCH   7  30
HETATM   30  O1  UNL     1      18.934  -0.300  52.898  1.00  0.00    -0.353 OA
HETATM   31  C11 UNL     1      18.066  -1.335  53.236  1.00  0.00     0.210 C 
ENDBRANCH   7  30
TORSDOF 9
ENDMDL
MODEL 6
REMARK VINA RESULT:      -7.5      2.085      4.793
REMARK  9 active torsions:
REMARK  status: ('A' for Active; 'I' for Inactive)
REMARK    1  A    between atoms: C5_6  and  N1_7 
REMARK    2  A    between atoms: N1_7  and  C6_8 
REMARK    3  A    between atoms: C10_14  and  O1_15 
REMARK    4  A    between atoms: C12_17  and  O2_18 
REMARK    5  A    between atoms: O2_18  and  C13_19 
REMARK    6  A    between atoms: C13_19  and  C14_20 
REMARK    7  A    between atoms: C14_20  and  C16_22 
REMARK    8  A    between atoms: C16_22  and  N4_23 
REMARK    9  A    between atoms: N4_23  and  C17_24 
ROOT
HETATM    1  C6  UNL     1      25.550   2.706  51.699  1.00  0.00     0.142 A 
HETATM    2  N2  UNL     1      26.422   3.193  50.827  1.00  0.00    -0.224 NA
HETATM    3  C7  UNL     1      26.015   3.641  49.603  1.00  0.00     0.236 A 
HETATM    4  N3  UNL     1      24.706   3.581  49.299  1.00  0.00    -0.241 NA
HETATM    5  C8  UNL     1      23.810   3.095  50.165  1.00  0.00     0.075 A 
HETATM    6  C9  UNL     1      22.477   3.038  49.840  1.00  0.00     0.072 A 
HETATM    7  C10 UNL     1      21.569   2.530  50.753  1.00  0.00     0.103 A 
HETATM    8  C12 UNL     1      21.970   2.074  51.991  1.00  0.00     0.103 A 
HETATM    9  C19 UNL     1      23.304   2.120  52.340  1.00  0.00     0.057 A 
HETATM   10  C20 UNL     1      24.200   2.627  51.425  1.00  0.00     0.042 A 
ENDROOT
BRANCH   1  11
HETATM   11  N1  UNL     1      26.076   2.265  52.945  1.00  0.00    -0.338 N 
HETATM   12  H4  UNL     1      26.047   2.676  53.890  1.00  0.00     0.167 HD
BRANCH  11  13
HETATM   13  C5  UNL     1      26.793   1.037  52.998  1.00  0.00     0.075 A 
HETATM   14  C4  UNL     1      28.206   0.951  53.363  1.00  0.00     0.057 A 
HETATM   15  C3  UNL     1      28.664  -0.294  53.345  1.00  0.00     0.048 A 
HETATM   16  C2  UNL     1      27.498  -1.075  52.950  1.00  0.00     0.017 A 
HETATM   17 CL1  UNL     1      30.262  -0.878  53.704  1.00  0.00    -0.083 Cl
HETATM   18  C1  UNL     1      27.423  -2.385  52.784  1.00  0.00     0.028 C 
HETATM   19  C21 UNL     1      26.345  -0.205  52.742  1.00  0.00     0.154 A 
HETATM   20  F1  UNL     1      25.080  -0.452  52.379  1.00  0.00    -0.203 F 
ENDBRANCH  11  13
ENDBRANCH   1  11
BRANCH   8  21
HETATM   21  O2  UNL     1      21.007   1.580  52.851  1.00  0.00    -0.348 OA
BRANCH  21  22
HETATM   22  C13 UNL     1      21.313   0.790  53.982  1.00  0.00     0.181 C 
BRANCH  22  23
HETATM   23  C14 UNL     1      21.042  -0.645  53.580  1.00  0.00     0.034 C 
HETATM   24  C15 UNL     1      21.915  -1.551  54.433  1.00  0.00     0.014 C 
BRANCH  23  25
HETATM   25  C16 UNL     1      19.585  -1.023  53.728  1.00  0.00     0.275 C 
BRANCH  25  26
HETATM   26  N4  UNL     1      18.861  -0.518  52.577  1.00  0.00     0.083 N 
HETATM   27  H18 UNL     1      18.767   0.540  52.640  1.00  0.00     0.315 HD
BRANCH  26  28
HETATM   28  C17 UNL     1      17.477  -0.996  52.717  1.00  0.00     0.265 C 
HETATM   29  C18 UNL     1      17.549  -2.355  53.367  1.00  0.00     0.037 C 
ENDBRANCH  26  28
ENDBRANCH  25  26
ENDBRANCH  23  25
ENDBRANCH  22  23
ENDBRANCH  21  22
ENDBRANCH   8  21
BRANCH   7  30
HETATM   30  O1  UNL     1      20.221   2.476  50.420  1.00  0.00    -0.353 OA
HETATM   31  C11 UNL     1      19.676   1.589  49.494  1.00  0.00     0.210 C 
ENDBRANCH   7  30
TORSDOF 9
ENDMDL
MODEL 7
REMARK VINA RESULT:      -7.5      2.307      2.775
REMARK  9 active torsions:
REMARK  status: ('A' for Active; 'I' for Inactive)
REMARK    1  A    between atoms: C5_6  and  N1_7 
REMARK    2  A    between atoms: N1_7  and  C6_8 
REMARK    3  A    between atoms: C10_14  and  O1_15 
REMARK    4  A    between atoms: C12_17  and  O2_18 
REMARK    5  A    between atoms: O2_18  and  C13_19 
REMARK    6  A    between atoms: C13_19  and  C14_20 
REMARK    7  A    between atoms: C14_20  and  C16_22 
REMARK    8  A    between atoms: C16_22  and  N4_23 
REMARK    9  A    between atoms: N4_23  and  C17_24 
ROOT
HETATM    1  C6  UNL     1      23.751   0.495  52.704  1.00  0.00     0.142 A 
HETATM    2  N2  UNL     1      23.722  -0.575  53.487  1.00  0.00    -0.224 NA
HETATM    3  C7  UNL     1      22.589  -0.915  54.169  1.00  0.00     0.236 A 
HETATM    4  N3  UNL     1      21.497  -0.141  54.030  1.00  0.00    -0.241 NA
HETATM    5  C8  UNL     1      21.506   0.942  53.245  1.00  0.00     0.075 A 
HETATM    6  C9  UNL     1      20.384   1.723  53.113  1.00  0.00     0.072 A 
HETATM    7  C10 UNL     1      20.417   2.839  52.295  1.00  0.00     0.103 A 
HETATM    8  C12 UNL     1      21.556   3.191  51.602  1.00  0.00     0.103 A 
HETATM    9  C19 UNL     1      22.696   2.423  51.719  1.00  0.00     0.057 A 
HETATM   10  C20 UNL     1      22.653   1.314  52.535  1.00  0.00     0.042 A 
ENDROOT
BRANCH   1  11
HETATM   11  N1  UNL     1      24.980   0.763  52.039  1.00  0.00    -0.338 N 
HETATM   12  H4  UNL     1      25.188   1.168  51.114  1.00  0.00     0.167 HD
BRANCH  11  13
HETATM   13  C5  UNL     1      26.204   0.447  52.691  1.00  0.00     0.075 A 
HETATM   14  C4  UNL     1      26.945  -0.789  52.445  1.00  0.00     0.057 A 
HETATM   15  C3  UNL     1      28.057  -0.870  53.164  1.00  0.00     0.048 A 
HETATM   16  C2  UNL     1      28.056   0.374  53.926  1.00  0.00     0.017 A 
HETATM   17 CL1  UNL     1      29.245  -2.139  53.205  1.00  0.00    -0.083 Cl
HETATM   18  C1  UNL     1      28.958   0.785  54.801  1.00  0.00     0.028 C 
HETATM   19  C21 UNL     1      26.878   1.172  53.601  1.00  0.00     0.154 A 
HETATM   20  F1  UNL     1      26.446   2.363  54.034  1.00  0.00    -0.203 F 
ENDBRANCH  11  13
ENDBRANCH   1  11
BRANCH   8  21
HETATM   21  O2  UNL     1      21.515   4.319  50.804  1.00  0.00    -0.348 OA
BRANCH  21  22
HETATM   22  C13 UNL     1      21.264   4.273  49.414  1.00  0.00     0.181 C 
BRANCH  22  23
HETATM   23  C14 UNL     1      22.561   3.834  48.766  1.00  0.00     0.034 C 
HETATM   24  C15 UNL     1      22.226   3.104  47.475  1.00  0.00     0.014 C 
BRANCH  23  25
HETATM   25  C16 UNL     1      23.492   4.995  48.489  1.00  0.00     0.275 C 
BRANCH  25  26
HETATM   26  N4  UNL     1      24.008   5.479  49.755  1.00  0.00     0.083 N 
HETATM   27  H18 UNL     1      24.402   6.461  49.637  1.00  0.00     0.315 HD
BRANCH  26  28
HETATM   28  C17 UNL     1      25.196   4.666  50.056  1.00  0.00     0.265 C 
HETATM   29  C18 UNL     1      26.275   5.097  49.095  1.00  0.00     0.037 C 
ENDBRANCH  26  28
ENDBRANCH  25  26
ENDBRANCH  23  25
ENDBRANCH  22  23
ENDBRANCH  21  22
ENDBRANCH   8  21
BRANCH   7  30
HETATM   30  O1  UNL     1      19.280   3.626  52.164  1.00  0.00    -0.353 OA
HETATM   31  C11 UNL     1      18.138   3.246  51.462  1.00  0.00     0.210 C 
ENDBRANCH   7  30
TORSDOF 9
ENDMDL
MODEL 8
REMARK VINA RESULT:      -7.4      3.665      4.901
REMARK  9 active torsions:
REMARK  status: ('A' for Active; 'I' for Inactive)
REMARK    1  A    between atoms: C5_6  and  N1_7 
REMARK    2  A    between atoms: N1_7  and  C6_8 
REMARK    3  A    between atoms: C10_14  and  O1_15 
REMARK    4  A    between atoms: C12_17  and  O2_18 
REMARK    5  A    between atoms: O2_18  and  C13_19 
REMARK    6  A    between atoms: C13_19  and  C14_20 
REMARK    7  A    between atoms: C14_20  and  C16_22 
REMARK    8  A    between atoms: C16_22  and  N4_23 
REMARK    9  A    between atoms: N4_23  and  C17_24 
ROOT
HETATM    1  C6  UNL     1      24.103   1.268  52.816  1.00  0.00     0.142 A 
HETATM    2  N2  UNL     1      23.318   0.345  53.353  1.00  0.00    -0.224 NA
HETATM    3  C7  UNL     1      22.189  -0.076  52.711  1.00  0.00     0.236 A 
HETATM    4  N3  UNL     1      21.888   0.465  51.516  1.00  0.00    -0.241 NA
HETATM    5  C8  UNL     1      22.668   1.398  50.957  1.00  0.00     0.075 A 
HETATM    6  C9  UNL     1      22.347   1.942  49.738  1.00  0.00     0.072 A 
HETATM    7  C10 UNL     1      23.170   2.906  49.180  1.00  0.00     0.103 A 
HETATM    8  C12 UNL     1      24.312   3.338  49.821  1.00  0.00     0.103 A 
HETATM    9  C19 UNL     1      24.654   2.806  51.047  1.00  0.00     0.057 A 
HETATM   10  C20 UNL     1      23.829   1.848  51.594  1.00  0.00     0.042 A 
ENDROOT
BRANCH   1  11
HETATM   11  N1  UNL     1      25.254   1.637  53.566  1.00  0.00    -0.338 N 
HETATM   12  H4  UNL     1      25.430   2.416  54.219  1.00  0.00     0.167 HD
BRANCH  11  13
HETATM   13  C5  UNL     1      26.433   0.847  53.463  1.00  0.00     0.075 A 
HETATM   14  C4  UNL     1      26.412  -0.581  53.154  1.00  0.00     0.057 A 
HETATM   15  C3  UNL     1      27.627  -1.112  53.109  1.00  0.00     0.048 A 
HETATM   16  C2  UNL     1      28.499   0.020  53.402  1.00  0.00     0.017 A 
HETATM   17 CL1  UNL     1      28.094  -2.755  52.781  1.00  0.00    -0.083 Cl
HETATM   18  C1  UNL     1      29.820   0.023  53.477  1.00  0.00     0.028 C 
HETATM   19  C21 UNL     1      27.712   1.229  53.617  1.00  0.00     0.154 A 
HETATM   20  F1  UNL     1      28.056   2.491  53.909  1.00  0.00    -0.203 F 
ENDBRANCH  11  13
ENDBRANCH   1  11
BRANCH   8  21
HETATM   21  O2  UNL     1      25.084   4.303  49.203  1.00  0.00    -0.348 OA
BRANCH  21  22
HETATM   22  C13 UNL     1      25.466   5.509  49.834  1.00  0.00     0.181 C 
BRANCH  22  23
HETATM   23  C14 UNL     1      25.896   6.448  48.726  1.00  0.00     0.034 C 
HETATM   24  C15 UNL     1      24.650   6.930  48.000  1.00  0.00     0.014 C 
BRANCH  23  25
HETATM   25  C16 UNL     1      26.697   7.624  49.241  1.00  0.00     0.275 C 
BRANCH  25  26
HETATM   26  N4  UNL     1      28.104   7.278  49.190  1.00  0.00     0.083 N 
HETATM   27  H18 UNL     1      28.691   8.154  49.045  1.00  0.00     0.315 HD
BRANCH  26  28
HETATM   28  C17 UNL     1      28.299   6.523  47.943  1.00  0.00     0.265 C 
HETATM   29  C18 UNL     1      29.458   5.587  48.177  1.00  0.00     0.037 C 
ENDBRANCH  26  28
ENDBRANCH  25  26
ENDBRANCH  23  25
ENDBRANCH  22  23
ENDBRANCH  21  22
ENDBRANCH   8  21
BRANCH   7  30
HETATM   30  O1  UNL     1      22.843   3.454  47.946  1.00  0.00    -0.353 OA
HETATM   31  C11 UNL     1      21.714   3.106  47.206  1.00  0.00     0.210 C 
ENDBRANCH   7  30
TORSDOF 9
ENDMDL
MODEL 9
REMARK VINA RESULT:      -7.4      3.486      5.122
REMARK  9 active torsions:
REMARK  status: ('A' for Active; 'I' for Inactive)
REMARK    1  A    between atoms: C5_6  and  N1_7 
REMARK    2  A    between atoms: N1_7  and  C6_8 
REMARK    3  A    between atoms: C10_14  and  O1_15 
REMARK    4  A    between atoms: C12_17  and  O2_18 
REMARK    5  A    between atoms: O2_18  and  C13_19 
REMARK    6  A    between atoms: C13_19  and  C14_20 
REMARK    7  A    between atoms: C14_20  and  C16_22 
REMARK    8  A    between atoms: C16_22  and  N4_23 
REMARK    9  A    between atoms: N4_23  and  C17_24 
ROOT
HETATM    1  C6  UNL     1      26.149   2.455  51.096  1.00  0.00     0.142 A 
HETATM    2  N2  UNL     1      27.356   2.617  51.621  1.00  0.00    -0.224 NA
HETATM    3  C7  UNL     1      27.650   2.137  52.865  1.00  0.00     0.236 A 
HETATM    4  N3  UNL     1      26.689   1.493  53.550  1.00  0.00    -0.241 NA
HETATM    5  C8  UNL     1      25.465   1.318  53.038  1.00  0.00     0.075 A 
HETATM    6  C9  UNL     1      24.493   0.659  53.750  1.00  0.00     0.072 A 
HETATM    7  C10 UNL     1      23.234   0.492  53.198  1.00  0.00     0.103 A 
HETATM    8  C12 UNL     1      22.927   0.973  51.943  1.00  0.00     0.103 A 
HETATM    9  C19 UNL     1      23.886   1.640  51.209  1.00  0.00     0.057 A 
HETATM   10  C20 UNL     1      25.136   1.801  51.767  1.00  0.00     0.042 A 
ENDROOT
BRANCH   1  11
HETATM   11  N1  UNL     1      25.945   2.994  49.795  1.00  0.00    -0.338 N 
HETATM   12  H4  UNL     1      25.702   2.551  48.896  1.00  0.00     0.167 HD
BRANCH  11  13
HETATM   13  C5  UNL     1      26.078   4.397  49.596  1.00  0.00     0.075 A 
HETATM   14  C4  UNL     1      25.147   5.375  50.154  1.00  0.00     0.057 A 
HETATM   15  C3  UNL     1      25.468   6.623  49.840  1.00  0.00     0.048 A 
HETATM   16  C2  UNL     1      26.673   6.467  49.033  1.00  0.00     0.017 A 
HETATM   17 CL1  UNL     1      24.665   8.104  50.274  1.00  0.00    -0.083 Cl
HETATM   18  C1  UNL     1      27.396   7.421  48.469  1.00  0.00     0.028 C 
HETATM   19  C21 UNL     1      27.023   5.057  48.904  1.00  0.00     0.154 A 
HETATM   20  F1  UNL     1      28.023   4.428  48.272  1.00  0.00    -0.203 F 
ENDBRANCH  11  13
ENDBRANCH   1  11
BRANCH   8  21
HETATM   21  O2  UNL     1      21.649   0.769  51.458  1.00  0.00    -0.348 OA
BRANCH  21  22
HETATM   22  C13 UNL     1      21.324   0.834  50.084  1.00  0.00     0.181 C 
BRANCH  22  23
HETATM   23  C14 UNL     1      19.837   1.114  50.015  1.00  0.00     0.034 C 
HETATM   24  C15 UNL     1      19.166   0.415  51.187  1.00  0.00     0.014 C 
BRANCH  23  25
HETATM   25  C16 UNL     1      19.524   2.594  50.033  1.00  0.00     0.275 C 
BRANCH  25  26
HETATM   26  N4  UNL     1      20.752   3.319  50.293  1.00  0.00     0.083 N 
HETATM   27  H18 UNL     1      21.525   2.641  50.570  1.00  0.00     0.315 HD
BRANCH  26  28
HETATM   28  C17 UNL     1      20.521   4.097  51.519  1.00  0.00     0.265 C 
HETATM   29  C18 UNL     1      21.856   4.664  51.933  1.00  0.00     0.037 C 
ENDBRANCH  26  28
ENDBRANCH  25  26
ENDBRANCH  23  25
ENDBRANCH  22  23
ENDBRANCH  21  22
ENDBRANCH   8  21
BRANCH   7  30
HETATM   30  O1  UNL     1      22.254  -0.176  53.921  1.00  0.00    -0.353 OA
HETATM   31  C11 UNL     1      22.513  -1.159  54.874  1.00  0.00     0.210 C 
ENDBRANCH   7  30
TORSDOF 9
ENDMDL
