MODEL 1
REMARK VINA RESULT:     -10.7      0.000      0.000
REMARK  5 active torsions:
REMARK  status: ('A' for Active; 'I' for Inactive)
REMARK    1  A    between atoms: C8_10  and  O1_11 
REMARK    2  A    between atoms: C10_13  and  C11_14 
REMARK    3  A    between atoms: C11_14  and  C12_15 
REMARK    4  A    between atoms: C12_15  and  C13_16 
REMARK    5  A    between atoms: N3_32  and  N4_33 
ROOT
HETATM    1  C1  UNL     1      18.585  -0.892  52.388  1.00  0.00     0.071 C 
HETATM    2  C2  UNL     1      18.589   0.514  51.959  1.00  0.00     0.042 A 
HETATM    3  N1  UNL     1      17.323   0.964  51.958  1.00  0.00    -0.246 NA
HETATM    4  C3  UNL     1      17.041   2.221  51.574  1.00  0.00     0.235 A 
HETATM    5  N2  UNL     1      18.080   2.989  51.197  1.00  0.00    -0.223 NA
HETATM    6  C4  UNL     1      19.345   2.538  51.199  1.00  0.00     0.149 A 
HETATM    7  C5  UNL     1      19.688   1.258  51.585  1.00  0.00     0.014 A 
HETATM    8  C6  UNL     1      21.017   0.662  51.633  1.00  0.00     0.060 C 
HETATM    9  C7  UNL     1      21.852   0.993  52.845  1.00  0.00     0.076 A 
HETATM   10  C8  UNL     1      21.515   0.140  54.030  1.00  0.00     0.052 A 
HETATM   11  C9  UNL     1      22.593  -0.558  54.436  1.00  0.00     0.040 A 
HETATM   12  C10 UNL     1      23.729  -0.235  53.575  1.00  0.00    -0.052 A 
HETATM   13  C19 UNL     1      23.293   0.644  52.686  1.00  0.00    -0.063 A 
HETATM   14  C20 UNL     1      24.060   1.358  51.583  1.00  0.00     0.036 C 
HETATM   15  C21 UNL     1      24.237   2.757  52.057  1.00  0.00     0.009 C 
HETATM   16  C22 UNL     1      24.825   3.759  51.163  1.00  0.00    -0.010 C 
HETATM   17  C23 UNL     1      25.030   3.492  49.717  1.00  0.00     0.005 C 
HETATM   18  C24 UNL     1      24.682   4.974  49.495  1.00  0.00     0.005 C 
HETATM   19  C25 UNL     1      23.784   4.824  50.725  1.00  0.00    -0.009 C 
HETATM   20  C26 UNL     1      22.510   4.187  50.305  1.00  0.00     0.026 C 
HETATM   21  C27 UNL     1      21.305   4.456  51.170  1.00  0.00     0.145 C 
HETATM   22  N3  UNL     1      20.178   3.615  50.705  1.00  0.00    -0.298 N 
ENDROOT
BRANCH  12  23
HETATM   23  C11 UNL     1      25.133  -0.776  53.654  1.00  0.00     0.042 C 
BRANCH  23  24
HETATM   24  C12 UNL     1      25.892   0.065  54.642  1.00  0.00     0.042 C 
BRANCH  24  25
HETATM   25  C13 UNL     1      27.242   0.437  54.154  1.00  0.00     0.062 C 
HETATM   26  C14 UNL     1      27.283   1.805  53.504  1.00  0.00     0.040 C 
HETATM   27  C15 UNL     1      28.703   2.249  53.780  1.00  0.00     0.035 C 
HETATM   28  C16 UNL     1      29.275   1.013  54.440  1.00  0.00     0.122 C 
HETATM   29  C17 UNL     1      29.404  -0.110  53.457  1.00  0.00     0.035 C 
HETATM   30  O2  UNL     1      28.170   0.608  55.199  1.00  0.00    -0.375 OA
HETATM   31  C18 UNL     1      27.945  -0.569  53.310  1.00  0.00     0.040 C 
ENDBRANCH  24  25
ENDBRANCH  23  24
ENDBRANCH  12  23
BRANCH  10  32
HETATM   32  O1  UNL     1      20.417  -0.141  54.839  1.00  0.00    -0.364 OA
HETATM   33  H8  UNL     1      19.649  -0.730  54.573  1.00  0.00     0.217 HD
ENDBRANCH  10  32
BRANCH  22  34
HETATM   34  N4  UNL     1      19.891   4.022  49.373  1.00  0.00    -0.246 NA
HETATM   35  H37 UNL     1      20.692   3.759  48.792  1.00  0.00     0.143 HD
HETATM   36  H38 UNL     1      19.560   4.990  49.335  1.00  0.00     0.143 HD
ENDBRANCH  22  34
TORSDOF 5
ENDMDL
MODEL 2
REMARK VINA RESULT:     -10.0      1.586      2.142
REMARK  5 active torsions:
REMARK  status: ('A' for Active; 'I' for Inactive)
REMARK    1  A    between atoms: C8_10  and  O1_11 
REMARK    2  A    between atoms: C10_13  and  C11_14 
REMARK    3  A    between atoms: C11_14  and  C12_15 
REMARK    4  A    between atoms: C12_15  and  C13_16 
REMARK    5  A    between atoms: N3_32  and  N4_33 
ROOT
HETATM    1  C1  UNL     1      18.548  -1.838  53.519  1.00  0.00     0.071 C 
HETATM    2  C2  UNL     1      17.950  -0.751  52.729  1.00  0.00     0.042 A 
HETATM    3  N1  UNL     1      16.637  -0.693  53.008  1.00  0.00    -0.246 NA
HETATM    4  C3  UNL     1      15.844   0.201  52.394  1.00  0.00     0.235 A 
HETATM    5  N2  UNL     1      16.429   1.019  51.498  1.00  0.00    -0.223 NA
HETATM    6  C4  UNL     1      17.741   0.959  51.220  1.00  0.00     0.149 A 
HETATM    7  C5  UNL     1      18.599   0.062  51.824  1.00  0.00     0.014 A 
HETATM    8  C6  UNL     1      20.032  -0.093  51.608  1.00  0.00     0.060 C 
HETATM    9  C7  UNL     1      20.923   0.881  52.338  1.00  0.00     0.076 A 
HETATM   10  C8  UNL     1      21.177   0.482  53.759  1.00  0.00     0.052 A 
HETATM   11  C9  UNL     1      22.494   0.304  53.976  1.00  0.00     0.040 A 
HETATM   12  C10 UNL     1      23.227   0.570  52.740  1.00  0.00    -0.052 A 
HETATM   13  C19 UNL     1      22.325   0.898  51.828  1.00  0.00    -0.063 A 
HETATM   14  C20 UNL     1      22.531   1.321  50.381  1.00  0.00     0.036 C 
HETATM   15  C21 UNL     1      22.282   2.787  50.352  1.00  0.00     0.009 C 
HETATM   16  C22 UNL     1      22.264   3.496  49.069  1.00  0.00    -0.010 C 
HETATM   17  C23 UNL     1      22.243   2.771  47.774  1.00  0.00     0.005 C 
HETATM   18  C24 UNL     1      21.342   3.907  47.263  1.00  0.00     0.005 C 
HETATM   19  C25 UNL     1      20.839   3.998  48.705  1.00  0.00    -0.009 C 
HETATM   20  C26 UNL     1      19.826   2.933  48.921  1.00  0.00     0.026 C 
HETATM   21  C27 UNL     1      18.817   3.174  50.014  1.00  0.00     0.145 C 
HETATM   22  N3  UNL     1      18.002   1.951  50.199  1.00  0.00    -0.298 N 
ENDROOT
BRANCH  12  23
HETATM   23  C11 UNL     1      24.715   0.497  52.512  1.00  0.00     0.042 C 
BRANCH  23  24
HETATM   24  C12 UNL     1      25.349   0.006  53.784  1.00  0.00     0.042 C 
BRANCH  24  25
HETATM   25  C13 UNL     1      26.830   0.015  53.721  1.00  0.00     0.062 C 
HETATM   26  C14 UNL     1      27.402   1.367  53.344  1.00  0.00     0.040 C 
HETATM   27  C15 UNL     1      28.745   1.351  54.039  1.00  0.00     0.035 C 
HETATM   28  C16 UNL     1      28.772  -0.054  54.601  1.00  0.00     0.122 C 
HETATM   29  C17 UNL     1      28.889  -1.068  53.505  1.00  0.00     0.035 C 
HETATM   30  O2  UNL     1      27.429  -0.190  54.978  1.00  0.00    -0.375 OA
HETATM   31  C18 UNL     1      27.469  -1.068  52.921  1.00  0.00     0.040 C 
ENDBRANCH  24  25
ENDBRANCH  23  24
ENDBRANCH  12  23
BRANCH  10  32
HETATM   32  O1  UNL     1      20.452   0.243  54.923  1.00  0.00    -0.364 OA
HETATM   33  H8  UNL     1      20.548   0.769  55.773  1.00  0.00     0.217 HD
ENDBRANCH  10  32
BRANCH  22  34
HETATM   34  N4  UNL     1      17.314   1.733  48.972  1.00  0.00    -0.246 NA
HETATM   35  H37 UNL     1      17.667   0.859  48.573  1.00  0.00     0.143 HD
HETATM   36  H38 UNL     1      17.313   2.570  48.384  1.00  0.00     0.143 HD
ENDBRANCH  22  34
TORSDOF 5
ENDMDL
MODEL 3
REMARK VINA RESULT:      -9.9      3.363      6.460
REMARK  5 active torsions:
REMARK  status: ('A' for Active; 'I' for Inactive)
REMARK    1  A    between atoms: C8_10  and  O1_11 
REMARK    2  A    between atoms: C10_13  and  C11_14 
REMARK    3  A    between atoms: C11_14  and  C12_15 
REMARK    4  A    between atoms: C12_15  and  C13_16 
REMARK    5  A    between atoms: N3_32  and  N4_33 
ROOT
HETATM    1  C1  UNL     1      20.339   1.692  52.706  1.00  0.00     0.071 C 
HETATM    2  C2  UNL     1      21.127   0.580  53.259  1.00  0.00     0.042 A 
HETATM    3  N1  UNL     1      20.284  -0.394  53.640  1.00  0.00    -0.246 NA
HETATM    4  C3  UNL     1      20.747  -1.519  54.210  1.00  0.00     0.235 A 
HETATM    5  N2  UNL     1      22.080  -1.613  54.376  1.00  0.00    -0.223 NA
HETATM    6  C4  UNL     1      22.921  -0.639  53.996  1.00  0.00     0.149 A 
HETATM    7  C5  UNL     1      22.498   0.535  53.404  1.00  0.00     0.014 A 
HETATM    8  C6  UNL     1      23.312   1.653  52.947  1.00  0.00     0.060 C 
HETATM    9  C7  UNL     1      23.968   1.492  51.599  1.00  0.00     0.076 A 
HETATM   10  C8  UNL     1      23.042   1.808  50.464  1.00  0.00     0.052 A 
HETATM   11  C9  UNL     1      23.529   2.820  49.720  1.00  0.00     0.040 A 
HETATM   12  C10 UNL     1      24.805   3.259  50.279  1.00  0.00    -0.052 A 
HETATM   13  C19 UNL     1      25.039   2.496  51.337  1.00  0.00    -0.063 A 
HETATM   14  C20 UNL     1      26.244   2.483  52.265  1.00  0.00     0.036 C 
HETATM   15  C21 UNL     1      27.013   1.261  51.906  1.00  0.00     0.009 C 
HETATM   16  C22 UNL     1      28.174   0.870  52.711  1.00  0.00    -0.010 C 
HETATM   17  C23 UNL     1      28.472   1.510  54.016  1.00  0.00     0.005 C 
HETATM   18  C24 UNL     1      28.963   0.125  54.472  1.00  0.00     0.005 C 
HETATM   19  C25 UNL     1      27.909  -0.433  53.513  1.00  0.00    -0.009 C 
HETATM   20  C26 UNL     1      26.586  -0.387  54.187  1.00  0.00     0.026 C 
HETATM   21  C27 UNL     1      25.548  -1.366  53.702  1.00  0.00     0.145 C 
HETATM   22  N3  UNL     1      24.255  -1.067  54.359  1.00  0.00    -0.298 N 
ENDROOT
BRANCH  12  23
HETATM   23  C11 UNL     1      25.707   4.359  49.779  1.00  0.00     0.042 C 
BRANCH  23  24
HETATM   24  C12 UNL     1      24.833   5.440  49.207  1.00  0.00     0.042 C 
BRANCH  24  25
HETATM   25  C13 UNL     1      25.575   6.701  48.964  1.00  0.00     0.062 C 
HETATM   26  C14 UNL     1      25.483   7.677  50.120  1.00  0.00     0.040 C 
HETATM   27  C15 UNL     1      26.791   8.430  50.006  1.00  0.00     0.035 C 
HETATM   28  C16 UNL     1      27.362   7.843  48.735  1.00  0.00     0.122 C 
HETATM   29  C17 UNL     1      26.564   8.268  47.541  1.00  0.00     0.035 C 
HETATM   30  O2  UNL     1      26.967   6.507  48.884  1.00  0.00    -0.375 OA
HETATM   31  C18 UNL     1      25.310   7.391  47.670  1.00  0.00     0.040 C 
ENDBRANCH  24  25
ENDBRANCH  23  24
ENDBRANCH  12  23
BRANCH  10  32
HETATM   32  O1  UNL     1      21.828   1.363  49.949  1.00  0.00    -0.364 OA
HETATM   33  H8  UNL     1      21.068   1.011  50.502  1.00  0.00     0.217 HD
ENDBRANCH  10  32
BRANCH  22  34
HETATM   34  N4  UNL     1      24.456  -1.259  55.755  1.00  0.00    -0.246 NA
HETATM   35  H37 UNL     1      23.846  -0.599  56.246  1.00  0.00     0.143 HD
HETATM   36  H38 UNL     1      25.450  -1.273  55.996  1.00  0.00     0.143 HD
ENDBRANCH  22  34
TORSDOF 5
ENDMDL
MODEL 4
REMARK VINA RESULT:      -9.8      2.979      5.844
REMARK  5 active torsions:
REMARK  status: ('A' for Active; 'I' for Inactive)
REMARK    1  A    between atoms: C8_10  and  O1_11 
REMARK    2  A    between atoms: C10_13  and  C11_14 
REMARK    3  A    between atoms: C11_14  and  C12_15 
REMARK    4  A    between atoms: C12_15  and  C13_16 
REMARK    5  A    between atoms: N3_32  and  N4_33 
ROOT
HETATM    1  C1  UNL     1      18.643   2.293  50.789  1.00  0.00     0.071 C 
HETATM    2  C2  UNL     1      19.068   1.182  51.654  1.00  0.00     0.042 A 
HETATM    3  N1  UNL     1      18.003   0.400  51.899  1.00  0.00    -0.246 NA
HETATM    4  C3  UNL     1      18.111  -0.679  52.693  1.00  0.00     0.235 A 
HETATM    5  N2  UNL     1      19.325  -0.926  53.220  1.00  0.00    -0.223 NA
HETATM    6  C4  UNL     1      20.388  -0.143  52.975  1.00  0.00     0.149 A 
HETATM    7  C5  UNL     1      20.331   0.974  52.166  1.00  0.00     0.014 A 
HETATM    8  C6  UNL     1      21.411   1.890  51.825  1.00  0.00     0.060 C 
HETATM    9  C7  UNL     1      22.344   1.440  50.729  1.00  0.00     0.076 A 
HETATM   10  C8  UNL     1      21.797   1.703  49.359  1.00  0.00     0.052 A 
HETATM   11  C9  UNL     1      22.619   2.516  48.667  1.00  0.00     0.040 A 
HETATM   12  C10 UNL     1      23.772   2.857  49.497  1.00  0.00    -0.052 A 
HETATM   13  C19 UNL     1      23.602   2.238  50.655  1.00  0.00    -0.063 A 
HETATM   14  C20 UNL     1      24.518   2.202  51.870  1.00  0.00     0.036 C 
HETATM   15  C21 UNL     1      25.132   0.847  51.868  1.00  0.00     0.009 C 
HETATM   16  C22 UNL     1      25.973   0.428  52.993  1.00  0.00    -0.010 C 
HETATM   17  C23 UNL     1      26.042   1.212  54.252  1.00  0.00     0.005 C 
HETATM   18  C24 UNL     1      26.161  -0.142  54.972  1.00  0.00     0.005 C 
HETATM   19  C25 UNL     1      25.299  -0.691  53.833  1.00  0.00    -0.009 C 
HETATM   20  C26 UNL     1      23.878  -0.364  54.117  1.00  0.00     0.026 C 
HETATM   21  C27 UNL     1      22.842  -1.256  53.481  1.00  0.00     0.145 C 
HETATM   22  N3  UNL     1      21.497  -0.689  53.729  1.00  0.00    -0.298 N 
ENDROOT
BRANCH  12  23
HETATM   23  C11 UNL     1      24.943   3.737  49.139  1.00  0.00     0.042 C 
BRANCH  23  24
HETATM   24  C12 UNL     1      24.434   5.146  49.013  1.00  0.00     0.042 C 
BRANCH  24  25
HETATM   25  C13 UNL     1      25.524   6.150  49.066  1.00  0.00     0.062 C 
HETATM   26  C14 UNL     1      26.896   5.552  48.829  1.00  0.00     0.040 C 
HETATM   27  C15 UNL     1      27.646   6.709  48.207  1.00  0.00     0.035 C 
HETATM   28  C16 UNL     1      26.616   7.813  48.299  1.00  0.00     0.122 C 
HETATM   29  C17 UNL     1      26.389   8.219  49.722  1.00  0.00     0.035 C 
HETATM   30  O2  UNL     1      25.453   7.086  48.017  1.00  0.00    -0.375 OA
HETATM   31  C18 UNL     1      25.540   7.053  50.252  1.00  0.00     0.040 C 
ENDBRANCH  24  25
ENDBRANCH  23  24
ENDBRANCH  12  23
BRANCH  10  32
HETATM   32  O1  UNL     1      20.692   1.354  48.589  1.00  0.00    -0.364 OA
HETATM   33  H8  UNL     1      19.752   1.656  48.770  1.00  0.00     0.217 HD
ENDBRANCH  10  32
BRANCH  22  34
HETATM   34  N4  UNL     1      21.309  -0.693  55.140  1.00  0.00    -0.246 NA
HETATM   35  H37 UNL     1      21.052  -1.646  55.412  1.00  0.00     0.143 HD
HETATM   36  H38 UNL     1      20.709   0.078  55.444  1.00  0.00     0.143 HD
ENDBRANCH  22  34
TORSDOF 5
ENDMDL
MODEL 5
REMARK VINA RESULT:      -9.5      3.304      6.618
REMARK  5 active torsions:
REMARK  status: ('A' for Active; 'I' for Inactive)
REMARK    1  A    between atoms: C8_10  and  O1_11 
REMARK    2  A    between atoms: C10_13  and  C11_14 
REMARK    3  A    between atoms: C11_14  and  C12_15 
REMARK    4  A    between atoms: C12_15  and  C13_16 
REMARK    5  A    between atoms: N3_32  and  N4_33 
ROOT
HETATM    1  C1  UNL     1      26.544  -0.598  53.766  1.00  0.00     0.071 C 
HETATM    2  C2  UNL     1      25.184  -0.725  54.313  1.00  0.00     0.042 A 
HETATM    3  N1  UNL     1      25.267  -1.272  55.538  1.00  0.00    -0.246 NA
HETATM    4  C3  UNL     1      24.157  -1.526  56.252  1.00  0.00     0.235 A 
HETATM    5  N2  UNL     1      22.980  -1.209  55.681  1.00  0.00    -0.223 NA
HETATM    6  C4  UNL     1      22.899  -0.664  54.457  1.00  0.00     0.149 A 
HETATM    7  C5  UNL     1      24.007  -0.381  53.683  1.00  0.00     0.014 A 
HETATM    8  C6  UNL     1      24.044   0.210  52.352  1.00  0.00     0.060 C 
HETATM    9  C7  UNL     1      23.914   1.712  52.287  1.00  0.00     0.076 A 
HETATM   10  C8  UNL     1      25.211   2.416  52.547  1.00  0.00     0.052 A 
HETATM   11  C9  UNL     1      25.561   3.174  51.490  1.00  0.00     0.040 A 
HETATM   12  C10 UNL     1      24.544   3.048  50.449  1.00  0.00    -0.052 A 
HETATM   13  C19 UNL     1      23.621   2.223  50.917  1.00  0.00    -0.063 A 
HETATM   14  C20 UNL     1      22.316   1.776  50.275  1.00  0.00     0.036 C 
HETATM   15  C21 UNL     1      21.241   2.504  51.003  1.00  0.00     0.009 C 
HETATM   16  C22 UNL     1      19.836   2.196  50.721  1.00  0.00    -0.010 C 
HETATM   17  C23 UNL     1      19.440   1.016  49.913  1.00  0.00     0.005 C 
HETATM   18  C24 UNL     1      18.225   0.905  50.850  1.00  0.00     0.005 C 
HETATM   19  C25 UNL     1      19.147   1.492  51.921  1.00  0.00    -0.009 C 
HETATM   20  C26 UNL     1      19.998   0.401  52.462  1.00  0.00     0.026 C 
HETATM   21  C27 UNL     1      20.540   0.596  53.855  1.00  0.00     0.145 C 
HETATM   22  N3  UNL     1      21.492  -0.496  54.161  1.00  0.00    -0.298 N 
ENDROOT
BRANCH  12  23
HETATM   23  C11 UNL     1      24.518   3.713  49.096  1.00  0.00     0.042 C 
BRANCH  23  24
HETATM   24  C12 UNL     1      24.096   5.142  49.297  1.00  0.00     0.042 C 
BRANCH  24  25
HETATM   25  C13 UNL     1      25.240   6.084  49.250  1.00  0.00     0.062 C 
HETATM   26  C14 UNL     1      26.543   5.418  48.857  1.00  0.00     0.040 C 
HETATM   27  C15 UNL     1      27.287   6.547  48.178  1.00  0.00     0.035 C 
HETATM   28  C16 UNL     1      26.336   7.703  48.398  1.00  0.00     0.122 C 
HETATM   29  C17 UNL     1      26.284   8.088  49.844  1.00  0.00     0.035 C 
HETATM   30  O2  UNL     1      25.111   7.046  48.230  1.00  0.00    -0.375 OA
HETATM   31  C18 UNL     1      25.432   6.957  50.441  1.00  0.00     0.040 C 
ENDBRANCH  24  25
ENDBRANCH  23  24
ENDBRANCH  12  23
BRANCH  10  32
HETATM   32  O1  UNL     1      26.158   2.522  53.561  1.00  0.00    -0.364 OA
HETATM   33  H8  UNL     1      26.798   1.794  53.822  1.00  0.00     0.217 HD
ENDBRANCH  10  32
BRANCH  22  34
HETATM   34  N4  UNL     1      20.748  -1.708  54.119  1.00  0.00    -0.246 NA
HETATM   35  H37 UNL     1      20.365  -1.866  55.056  1.00  0.00     0.143 HD
HETATM   36  H38 UNL     1      21.278  -2.463  53.677  1.00  0.00     0.143 HD
ENDBRANCH  22  34
TORSDOF 5
ENDMDL
MODEL 6
REMARK VINA RESULT:      -9.4      3.073      6.972
REMARK  5 active torsions:
REMARK  status: ('A' for Active; 'I' for Inactive)
REMARK    1  A    between atoms: C8_10  and  O1_11 
REMARK    2  A    between atoms: C10_13  and  C11_14 
REMARK    3  A    between atoms: C11_14  and  C12_15 
REMARK    4  A    between atoms: C12_15  and  C13_16 
REMARK    5  A    between atoms: N3_32  and  N4_33 
ROOT
HETATM    1  C1  UNL     1      26.460  -0.523  53.627  1.00  0.00     0.071 C 
HETATM    2  C2  UNL     1      25.133  -0.704  54.236  1.00  0.00     0.042 A 
HETATM    3  N1  UNL     1      25.294  -1.231  55.461  1.00  0.00    -0.246 NA
HETATM    4  C3  UNL     1      24.231  -1.526  56.227  1.00  0.00     0.235 A 
HETATM    5  N2  UNL     1      23.016  -1.268  55.707  1.00  0.00    -0.223 NA
HETATM    6  C4  UNL     1      22.856  -0.743  54.482  1.00  0.00     0.149 A 
HETATM    7  C5  UNL     1      23.915  -0.420  53.656  1.00  0.00     0.014 A 
HETATM    8  C6  UNL     1      23.866   0.156  52.319  1.00  0.00     0.060 C 
HETATM    9  C7  UNL     1      23.666   1.649  52.245  1.00  0.00     0.076 A 
HETATM   10  C8  UNL     1      24.939   2.414  52.439  1.00  0.00     0.052 A 
HETATM   11  C9  UNL     1      25.208   3.173  51.359  1.00  0.00     0.040 A 
HETATM   12  C10 UNL     1      24.153   2.990  50.366  1.00  0.00    -0.052 A 
HETATM   13  C19 UNL     1      23.289   2.130  50.884  1.00  0.00    -0.063 A 
HETATM   14  C20 UNL     1      21.978   1.618  50.306  1.00  0.00     0.036 C 
HETATM   15  C21 UNL     1      20.905   2.306  51.074  1.00  0.00     0.009 C 
HETATM   16  C22 UNL     1      19.504   1.933  50.859  1.00  0.00    -0.010 C 
HETATM   17  C23 UNL     1      19.126   0.726  50.082  1.00  0.00     0.005 C 
HETATM   18  C24 UNL     1      17.960   0.574  51.074  1.00  0.00     0.005 C 
HETATM   19  C25 UNL     1      18.902   1.214  52.097  1.00  0.00    -0.009 C 
HETATM   20  C26 UNL     1      19.824   0.168  52.609  1.00  0.00     0.026 C 
HETATM   21  C27 UNL     1      20.418   0.404  53.974  1.00  0.00     0.145 C 
HETATM   22  N3  UNL     1      21.431  -0.641  54.248  1.00  0.00    -0.298 N 
ENDROOT
BRANCH  12  23
HETATM   23  C11 UNL     1      24.036   3.636  49.009  1.00  0.00     0.042 C 
BRANCH  23  24
HETATM   24  C12 UNL     1      24.352   5.097  49.170  1.00  0.00     0.042 C 
BRANCH  24  25
HETATM   25  C13 UNL     1      23.152   5.906  49.492  1.00  0.00     0.062 C 
HETATM   26  C14 UNL     1      21.868   5.304  48.956  1.00  0.00     0.040 C 
HETATM   27  C15 UNL     1      20.844   5.794  49.957  1.00  0.00     0.035 C 
HETATM   28  C16 UNL     1      21.691   6.692  50.832  1.00  0.00     0.122 C 
HETATM   29  C17 UNL     1      22.122   7.917  50.087  1.00  0.00     0.035 C 
HETATM   30  O2  UNL     1      22.877   5.946  50.871  1.00  0.00    -0.375 OA
HETATM   31  C18 UNL     1      23.225   7.360  49.173  1.00  0.00     0.040 C 
ENDBRANCH  24  25
ENDBRANCH  23  24
ENDBRANCH  12  23
BRANCH  10  32
HETATM   32  O1  UNL     1      25.926   2.574  53.407  1.00  0.00    -0.364 OA
HETATM   33  H8  UNL     1      26.896   2.354  53.276  1.00  0.00     0.217 HD
ENDBRANCH  10  32
BRANCH  22  34
HETATM   34  N4  UNL     1      20.741  -1.885  54.252  1.00  0.00    -0.246 NA
HETATM   35  H37 UNL     1      21.307  -2.552  53.721  1.00  0.00     0.143 HD
HETATM   36  H38 UNL     1      19.756  -1.773  53.998  1.00  0.00     0.143 HD
ENDBRANCH  22  34
TORSDOF 5
ENDMDL
MODEL 7
REMARK VINA RESULT:      -8.9      3.412      7.210
REMARK  5 active torsions:
REMARK  status: ('A' for Active; 'I' for Inactive)
REMARK    1  A    between atoms: C8_10  and  O1_11 
REMARK    2  A    between atoms: C10_13  and  C11_14 
REMARK    3  A    between atoms: C11_14  and  C12_15 
REMARK    4  A    between atoms: C12_15  and  C13_16 
REMARK    5  A    between atoms: N3_32  and  N4_33 
ROOT
HETATM    1  C1  UNL     1      24.327  -0.885  55.033  1.00  0.00     0.071 C 
HETATM    2  C2  UNL     1      25.339  -0.378  54.093  1.00  0.00     0.042 A 
HETATM    3  N1  UNL     1      26.437  -1.147  54.192  1.00  0.00    -0.246 NA
HETATM    4  C3  UNL     1      27.530  -0.882  53.457  1.00  0.00     0.235 A 
HETATM    5  N2  UNL     1      27.465   0.179  52.631  1.00  0.00    -0.223 NA
HETATM    6  C4  UNL     1      26.367   0.947  52.533  1.00  0.00     0.149 A 
HETATM    7  C5  UNL     1      25.219   0.716  53.264  1.00  0.00     0.014 A 
HETATM    8  C6  UNL     1      23.974   1.473  53.239  1.00  0.00     0.060 C 
HETATM    9  C7  UNL     1      23.028   1.160  52.106  1.00  0.00     0.076 A 
HETATM   10  C8  UNL     1      22.190  -0.054  52.370  1.00  0.00     0.052 A 
HETATM   11  C9  UNL     1      20.881   0.258  52.353  1.00  0.00     0.040 A 
HETATM   12  C10 UNL     1      20.728   1.685  52.077  1.00  0.00    -0.052 A 
HETATM   13  C19 UNL     1      21.950   2.177  51.936  1.00  0.00    -0.063 A 
HETATM   14  C20 UNL     1      22.382   3.594  51.590  1.00  0.00     0.036 C 
HETATM   15  C21 UNL     1      22.841   3.539  50.176  1.00  0.00     0.009 C 
HETATM   16  C22 UNL     1      23.457   4.721  49.565  1.00  0.00    -0.010 C 
HETATM   17  C23 UNL     1      23.864   5.897  50.374  1.00  0.00     0.005 C 
HETATM   18  C24 UNL     1      25.052   6.027  49.406  1.00  0.00     0.005 C 
HETATM   19  C25 UNL     1      24.969   4.504  49.286  1.00  0.00    -0.009 C 
HETATM   20  C26 UNL     1      25.649   3.899  50.460  1.00  0.00     0.026 C 
HETATM   21  C27 UNL     1      26.185   2.501  50.282  1.00  0.00     0.145 C 
HETATM   22  N3  UNL     1      26.672   2.000  51.588  1.00  0.00    -0.298 N 
ENDROOT
BRANCH  12  23
HETATM   23  C11 UNL     1      19.450   2.475  51.965  1.00  0.00     0.042 C 
BRANCH  23  24
HETATM   24  C12 UNL     1      18.666   1.916  50.811  1.00  0.00     0.042 C 
BRANCH  24  25
HETATM   25  C13 UNL     1      18.732   2.779  49.607  1.00  0.00     0.062 C 
HETATM   26  C14 UNL     1      19.029   4.229  49.930  1.00  0.00     0.040 C 
HETATM   27  C15 UNL     1      19.754   4.693  48.685  1.00  0.00     0.035 C 
HETATM   28  C16 UNL     1      19.648   3.466  47.807  1.00  0.00     0.122 C 
HETATM   29  C17 UNL     1      18.233   3.238  47.371  1.00  0.00     0.035 C 
HETATM   30  O2  UNL     1      19.818   2.462  48.769  1.00  0.00    -0.375 OA
HETATM   31  C18 UNL     1      17.595   2.675  48.650  1.00  0.00     0.040 C 
ENDBRANCH  24  25
ENDBRANCH  23  24
ENDBRANCH  12  23
BRANCH  10  32
HETATM   32  O1  UNL     1      22.366  -1.411  52.624  1.00  0.00    -0.364 OA
HETATM   33  H8  UNL     1      22.614  -2.094  51.931  1.00  0.00     0.217 HD
ENDBRANCH  10  32
BRANCH  22  34
HETATM   34  N4  UNL     1      27.737   2.858  51.980  1.00  0.00    -0.246 NA
HETATM   35  H37 UNL     1      27.338   3.785  52.150  1.00  0.00     0.143 HD
HETATM   36  H38 UNL     1      28.537   2.782  51.346  1.00  0.00     0.143 HD
ENDBRANCH  22  34
TORSDOF 5
ENDMDL
MODEL 8
REMARK VINA RESULT:      -8.8      1.952      2.785
REMARK  5 active torsions:
REMARK  status: ('A' for Active; 'I' for Inactive)
REMARK    1  A    between atoms: C8_10  and  O1_11 
REMARK    2  A    between atoms: C10_13  and  C11_14 
REMARK    3  A    between atoms: C11_14  and  C12_15 
REMARK    4  A    between atoms: C12_15  and  C13_16 
REMARK    5  A    between atoms: N3_32  and  N4_33 
ROOT
HETATM    1  C1  UNL     1      18.452   1.822  49.666  1.00  0.00     0.071 C 
HETATM    2  C2  UNL     1      19.138   3.039  49.204  1.00  0.00     0.042 A 
HETATM    3  N1  UNL     1      18.219   3.884  48.707  1.00  0.00    -0.246 NA
HETATM    4  C3  UNL     1      18.585   5.068  48.187  1.00  0.00     0.235 A 
HETATM    5  N2  UNL     1      19.901   5.353  48.191  1.00  0.00    -0.223 NA
HETATM    6  C4  UNL     1      20.818   4.506  48.687  1.00  0.00     0.149 A 
HETATM    7  C5  UNL     1      20.494   3.281  49.234  1.00  0.00     0.014 A 
HETATM    8  C6  UNL     1      21.395   2.287  49.803  1.00  0.00     0.060 C 
HETATM    9  C7  UNL     1      21.844   2.531  51.222  1.00  0.00     0.076 A 
HETATM   10  C8  UNL     1      20.836   2.079  52.234  1.00  0.00     0.052 A 
HETATM   11  C9  UNL     1      21.364   1.142  53.046  1.00  0.00     0.040 A 
HETATM   12  C10 UNL     1      22.751   0.894  52.658  1.00  0.00    -0.052 A 
HETATM   13  C19 UNL     1      23.005   1.689  51.630  1.00  0.00    -0.063 A 
HETATM   14  C20 UNL     1      24.305   1.881  50.862  1.00  0.00     0.036 C 
HETATM   15  C21 UNL     1      24.839   3.199  51.301  1.00  0.00     0.009 C 
HETATM   16  C22 UNL     1      26.026   3.757  50.646  1.00  0.00    -0.010 C 
HETATM   17  C23 UNL     1      26.576   3.175  49.396  1.00  0.00     0.005 C 
HETATM   18  C24 UNL     1      26.918   4.618  48.991  1.00  0.00     0.005 C 
HETATM   19  C25 UNL     1      25.682   5.014  49.801  1.00  0.00    -0.009 C 
HETATM   20  C26 UNL     1      24.476   4.783  48.966  1.00  0.00     0.026 C 
HETATM   21  C27 UNL     1      23.255   5.601  49.304  1.00  0.00     0.145 C 
HETATM   22  N3  UNL     1      22.113   5.124  48.491  1.00  0.00    -0.298 N 
ENDROOT
BRANCH  12  23
HETATM   23  C11 UNL     1      23.728  -0.069  53.282  1.00  0.00     0.042 C 
BRANCH  23  24
HETATM   24  C12 UNL     1      24.731   0.738  54.059  1.00  0.00     0.042 C 
BRANCH  24  25
HETATM   25  C13 UNL     1      26.107   0.197  53.945  1.00  0.00     0.062 C 
HETATM   26  C14 UNL     1      26.170  -1.114  53.186  1.00  0.00     0.040 C 
HETATM   27  C15 UNL     1      27.553  -1.064  52.577  1.00  0.00     0.035 C 
HETATM   28  C16 UNL     1      28.099   0.210  53.183  1.00  0.00     0.122 C 
HETATM   29  C17 UNL     1      28.328   0.050  54.654  1.00  0.00     0.035 C 
HETATM   30  O2  UNL     1      26.946   1.006  53.156  1.00  0.00    -0.375 OA
HETATM   31  C18 UNL     1      26.896   0.114  55.206  1.00  0.00     0.040 C 
ENDBRANCH  24  25
ENDBRANCH  23  24
ENDBRANCH  12  23
BRANCH  10  32
HETATM   32  O1  UNL     1      19.515   2.342  52.585  1.00  0.00    -0.364 OA
HETATM   33  H8  UNL     1      19.230   3.035  53.253  1.00  0.00     0.217 HD
ENDBRANCH  10  32
BRANCH  22  34
HETATM   34  N4  UNL     1      22.460   5.351  47.130  1.00  0.00    -0.246 NA
HETATM   35  H37 UNL     1      22.770   4.457  46.739  1.00  0.00     0.143 HD
HETATM   36  H38 UNL     1      23.071   6.166  47.026  1.00  0.00     0.143 HD
ENDBRANCH  22  34
TORSDOF 5
ENDMDL
MODEL 9
REMARK VINA RESULT:      -8.8      3.389      7.776
REMARK  5 active torsions:
REMARK  status: ('A' for Active; 'I' for Inactive)
REMARK    1  A    between atoms: C8_10  and  O1_11 
REMARK    2  A    between atoms: C10_13  and  C11_14 
REMARK    3  A    between atoms: C11_14  and  C12_15 
REMARK    4  A    between atoms: C12_15  and  C13_16 
REMARK    5  A    between atoms: N3_32  and  N4_33 
ROOT
HETATM    1  C1  UNL     1      24.221  -0.853  54.910  1.00  0.00     0.071 C 
HETATM    2  C2  UNL     1      25.239  -0.352  53.973  1.00  0.00     0.042 A 
HETATM    3  N1  UNL     1      26.310  -1.160  54.035  1.00  0.00    -0.246 NA
HETATM    4  C3  UNL     1      27.403  -0.908  53.295  1.00  0.00     0.235 A 
HETATM    5  N2  UNL     1      27.365   0.180  52.503  1.00  0.00    -0.223 NA
HETATM    6  C4  UNL     1      26.293   0.987  52.443  1.00  0.00     0.149 A 
HETATM    7  C5  UNL     1      25.145   0.772  53.180  1.00  0.00     0.014 A 
HETATM    8  C6  UNL     1      23.926   1.569  53.194  1.00  0.00     0.060 C 
HETATM    9  C7  UNL     1      22.957   1.324  52.064  1.00  0.00     0.076 A 
HETATM   10  C8  UNL     1      22.083   0.131  52.300  1.00  0.00     0.052 A 
HETATM   11  C9  UNL     1      20.784   0.487  52.310  1.00  0.00     0.040 A 
HETATM   12  C10 UNL     1      20.677   1.926  52.079  1.00  0.00    -0.052 A 
HETATM   13  C19 UNL     1      21.913   2.381  51.939  1.00  0.00    -0.063 A 
HETATM   14  C20 UNL     1      22.389   3.793  51.631  1.00  0.00     0.036 C 
HETATM   15  C21 UNL     1      22.829   3.767  50.210  1.00  0.00     0.009 C 
HETATM   16  C22 UNL     1      23.478   4.946  49.629  1.00  0.00    -0.010 C 
HETATM   17  C23 UNL     1      23.933   6.082  50.469  1.00  0.00     0.005 C 
HETATM   18  C24 UNL     1      25.114   6.203  49.491  1.00  0.00     0.005 C 
HETATM   19  C25 UNL     1      24.978   4.688  49.324  1.00  0.00    -0.009 C 
HETATM   20  C26 UNL     1      25.651   4.025  50.470  1.00  0.00     0.026 C 
HETATM   21  C27 UNL     1      26.137   2.616  50.243  1.00  0.00     0.145 C 
HETATM   22  N3  UNL     1      26.622   2.058  51.527  1.00  0.00    -0.298 N 
ENDROOT
BRANCH  12  23
HETATM   23  C11 UNL     1      19.424   2.762  52.008  1.00  0.00     0.042 C 
BRANCH  23  24
HETATM   24  C12 UNL     1      18.362   1.936  51.338  1.00  0.00     0.042 C 
BRANCH  24  25
HETATM   25  C13 UNL     1      17.045   2.618  51.310  1.00  0.00     0.062 C 
HETATM   26  C14 UNL     1      15.924   1.769  51.876  1.00  0.00     0.040 C 
HETATM   27  C15 UNL     1      14.976   2.814  52.420  1.00  0.00     0.035 C 
HETATM   28  C16 UNL     1      15.652   4.091  51.971  1.00  0.00     0.122 C 
HETATM   29  C17 UNL     1      15.582   4.241  50.483  1.00  0.00     0.035 C 
HETATM   30  O2  UNL     1      16.994   3.736  52.163  1.00  0.00    -0.375 OA
HETATM   31  C18 UNL     1      16.639   3.229  50.013  1.00  0.00     0.040 C 
ENDBRANCH  24  25
ENDBRANCH  23  24
ENDBRANCH  12  23
BRANCH  10  32
HETATM   32  O1  UNL     1      22.216  -1.238  52.510  1.00  0.00    -0.364 OA
HETATM   33  H8  UNL     1      22.023  -1.704  53.378  1.00  0.00     0.217 HD
ENDBRANCH  10  32
BRANCH  22  34
HETATM   34  N4  UNL     1      27.720   2.867  51.932  1.00  0.00    -0.246 NA
HETATM   35  H37 UNL     1      27.348   3.615  52.524  1.00  0.00     0.143 HD
HETATM   36  H38 UNL     1      28.313   3.125  51.139  1.00  0.00     0.143 HD
ENDBRANCH  22  34
TORSDOF 5
ENDMDL
