MODEL 1
REMARK VINA RESULT:      -9.0      0.000      0.000
REMARK  2 active torsions:
REMARK  status: ('A' for Active; 'I' for Inactive)
REMARK    1  A    between atoms: C5_6  and  N1_7 
REMARK    2  A    between atoms: N1_7  and  C6_8 
ROOT
HETATM    1  C6  UNL     1      24.858  -0.095  53.116  1.00  0.00     0.118 C 
HETATM    2  C7  UNL     1      24.359   0.838  52.311  1.00  0.00     0.028 C 
HETATM    3  C8  UNL     1      23.326   1.887  52.479  1.00  0.00     0.072 C 
HETATM    4  C9  UNL     1      22.255   1.659  51.508  1.00  0.00    -0.024 A 
HETATM    5  C10 UNL     1      22.564   1.586  50.184  1.00  0.00     0.010 A 
HETATM    6  C11 UNL     1      21.660   1.375  49.149  1.00  0.00     0.001 A 
HETATM    7  C12 UNL     1      20.345   1.231  49.526  1.00  0.00     0.002 A 
HETATM    8  C13 UNL     1      19.987   1.299  50.876  1.00  0.00     0.034 A 
HETATM    9  C14 UNL     1      20.928   1.511  51.861  1.00  0.00     0.085 A 
HETATM   10  N2  UNL     1      20.359   1.545  53.142  1.00  0.00    -0.149 NA
HETATM   11  N3  UNL     1      20.173   0.593  53.927  1.00  0.00    -0.148 NA
HETATM   12  C15 UNL     1      20.570  -0.711  53.524  1.00  0.00     0.232 C 
HETATM   13  N4  UNL     1      21.588  -0.546  54.332  1.00  0.00    -0.123 NA
HETATM   14  C16 UNL     1      22.503  -1.633  54.411  1.00  0.00     0.223 A 
HETATM   15  N5  UNL     1      23.125  -0.504  54.415  1.00  0.00    -0.203 N 
HETATM   16  N6  UNL     1      24.493  -0.355  54.486  1.00  0.00    -0.267 N 
HETATM   17  H14 UNL     1      25.173  -0.399  55.277  1.00  0.00     0.190 HD
ENDROOT
BRANCH   1  18
HETATM   18  N1  UNL     1      25.866  -1.061  52.833  1.00  0.00    -0.342 N 
HETATM   19  H4  UNL     1      25.421  -1.872  52.375  1.00  0.00     0.167 HD
BRANCH  18  20
HETATM   20  C5  UNL     1      27.250  -0.927  53.133  1.00  0.00     0.035 A 
HETATM   21  C4  UNL     1      28.054  -2.026  52.962  1.00  0.00     0.029 A 
HETATM   22  C3  UNL     1      29.389  -1.814  53.275  1.00  0.00     0.004 A 
HETATM   23  C2  UNL     1      29.867  -0.590  53.723  1.00  0.00     0.024 A 
HETATM   24  C1  UNL     1      28.988   0.484  53.872  1.00  0.00     0.036 A 
HETATM   25 CL1  UNL     1      29.524   2.050  54.432  1.00  0.00    -0.084 Cl
HETATM   26  C17 UNL     1      27.641   0.322  53.571  1.00  0.00     0.053 A 
ENDBRANCH  18  20
ENDBRANCH   1  18
TORSDOF 2
ENDMDL
MODEL 2
REMARK VINA RESULT:      -8.6      4.058      5.731
REMARK  2 active torsions:
REMARK  status: ('A' for Active; 'I' for Inactive)
REMARK    1  A    between atoms: C5_6  and  N1_7 
REMARK    2  A    between atoms: N1_7  and  C6_8 
ROOT
HETATM    1  C6  UNL     1      25.799   2.935  51.203  1.00  0.00     0.118 C 
HETATM    2  C7  UNL     1      24.582   2.802  51.722  1.00  0.00     0.028 C 
HETATM    3  C8  UNL     1      24.078   2.428  53.064  1.00  0.00     0.072 C 
HETATM    4  C9  UNL     1      23.252   1.226  52.945  1.00  0.00    -0.024 A 
HETATM    5  C10 UNL     1      22.192   1.232  52.089  1.00  0.00     0.010 A 
HETATM    6  C11 UNL     1      21.321   0.172  51.868  1.00  0.00     0.001 A 
HETATM    7  C12 UNL     1      21.574  -0.970  52.592  1.00  0.00     0.002 A 
HETATM    8  C13 UNL     1      22.653  -1.016  53.481  1.00  0.00     0.034 A 
HETATM    9  C14 UNL     1      23.485   0.068  53.659  1.00  0.00     0.085 A 
HETATM   10  N2  UNL     1      24.500  -0.188  54.593  1.00  0.00    -0.149 NA
HETATM   11  N3  UNL     1      25.635  -0.661  54.384  1.00  0.00    -0.148 NA
HETATM   12  C15 UNL     1      26.000  -0.999  53.052  1.00  0.00     0.232 C 
HETATM   13  N4  UNL     1      26.715   0.099  53.073  1.00  0.00    -0.123 NA
HETATM   14  C16 UNL     1      27.436   0.396  51.882  1.00  0.00     0.223 A 
HETATM   15  N5  UNL     1      26.929   1.465  52.394  1.00  0.00    -0.203 N 
HETATM   16  N6  UNL     1      27.060   2.732  51.869  1.00  0.00    -0.267 N 
HETATM   17  H14 UNL     1      27.830   3.436  51.895  1.00  0.00     0.190 HD
ENDROOT
BRANCH   1  18
HETATM   18  N1  UNL     1      26.158   3.306  49.876  1.00  0.00    -0.342 N 
HETATM   19  H4  UNL     1      26.124   2.463  49.280  1.00  0.00     0.167 HD
BRANCH  18  20
HETATM   20  C5  UNL     1      26.506   4.617  49.447  1.00  0.00     0.035 A 
HETATM   21  C4  UNL     1      27.626   4.763  48.667  1.00  0.00     0.029 A 
HETATM   22  C3  UNL     1      27.896   6.070  48.291  1.00  0.00     0.004 A 
HETATM   23  C2  UNL     1      27.098   7.139  48.673  1.00  0.00     0.024 A 
HETATM   24  C1  UNL     1      25.973   6.913  49.469  1.00  0.00     0.036 A 
HETATM   25 CL1  UNL     1      24.927   8.214  49.985  1.00  0.00    -0.084 Cl
HETATM   26  C17 UNL     1      25.659   5.621  49.872  1.00  0.00     0.053 A 
ENDBRANCH  18  20
ENDBRANCH   1  18
TORSDOF 2
ENDMDL
MODEL 3
REMARK VINA RESULT:      -8.6      2.724      3.942
REMARK  2 active torsions:
REMARK  status: ('A' for Active; 'I' for Inactive)
REMARK    1  A    between atoms: C5_6  and  N1_7 
REMARK    2  A    between atoms: N1_7  and  C6_8 
ROOT
HETATM    1  C6  UNL     1      25.450   2.685  51.523  1.00  0.00     0.118 C 
HETATM    2  C7  UNL     1      24.620   1.647  51.564  1.00  0.00     0.028 C 
HETATM    3  C8  UNL     1      23.310   1.359  50.935  1.00  0.00     0.072 C 
HETATM    4  C9  UNL     1      22.316   1.133  51.985  1.00  0.00    -0.024 A 
HETATM    5  C10 UNL     1      22.548   0.172  52.922  1.00  0.00     0.010 A 
HETATM    6  C11 UNL     1      21.703  -0.156  53.975  1.00  0.00     0.001 A 
HETATM    7  C12 UNL     1      20.537   0.569  54.052  1.00  0.00     0.002 A 
HETATM    8  C13 UNL     1      20.262   1.564  53.110  1.00  0.00     0.034 A 
HETATM    9  C14 UNL     1      21.139   1.848  52.085  1.00  0.00     0.085 A 
HETATM   10  N2  UNL     1      20.672   2.877  51.254  1.00  0.00    -0.149 NA
HETATM   11  N3  UNL     1      20.863   4.104  51.370  1.00  0.00    -0.148 NA
HETATM   12  C15 UNL     1      21.644   4.574  52.461  1.00  0.00     0.232 C 
HETATM   13  N4  UNL     1      22.598   4.744  51.579  1.00  0.00    -0.123 NA
HETATM   14  C16 UNL     1      23.826   5.261  52.081  1.00  0.00     0.223 A 
HETATM   15  N5  UNL     1      24.036   4.344  51.199  1.00  0.00    -0.203 N 
HETATM   16  N6  UNL     1      25.278   3.913  50.789  1.00  0.00    -0.267 N 
HETATM   17  H14 UNL     1      25.983   4.303  50.124  1.00  0.00     0.190 HD
ENDROOT
BRANCH   1  18
HETATM   18  N1  UNL     1      26.701   2.844  52.184  1.00  0.00    -0.342 N 
HETATM   19  H4  UNL     1      26.962   3.842  52.155  1.00  0.00     0.167 HD
BRANCH  18  20
HETATM   20  C5  UNL     1      27.462   1.800  52.782  1.00  0.00     0.035 A 
HETATM   21  C4  UNL     1      28.509   2.153  53.596  1.00  0.00     0.029 A 
HETATM   22  C3  UNL     1      29.199   1.079  54.139  1.00  0.00     0.004 A 
HETATM   23  C2  UNL     1      28.855  -0.240  53.879  1.00  0.00     0.024 A 
HETATM   24  C1  UNL     1      27.776  -0.522  53.039  1.00  0.00     0.036 A 
HETATM   25 CL1  UNL     1      27.291  -2.160  52.671  1.00  0.00    -0.084 Cl
HETATM   26  C17 UNL     1      27.052   0.520  52.471  1.00  0.00     0.053 A 
ENDBRANCH  18  20
ENDBRANCH   1  18
TORSDOF 2
ENDMDL
MODEL 4
REMARK VINA RESULT:      -8.5      2.297      2.726
REMARK  2 active torsions:
REMARK  status: ('A' for Active; 'I' for Inactive)
REMARK    1  A    between atoms: C5_6  and  N1_7 
REMARK    2  A    between atoms: N1_7  and  C6_8 
ROOT
HETATM    1  C6  UNL     1      24.805   1.736  52.516  1.00  0.00     0.118 C 
HETATM    2  C7  UNL     1      24.490   2.993  52.216  1.00  0.00     0.028 C 
HETATM    3  C8  UNL     1      23.459   3.935  52.710  1.00  0.00     0.072 C 
HETATM    4  C9  UNL     1      22.602   4.331  51.592  1.00  0.00    -0.024 A 
HETATM    5  C10 UNL     1      23.171   4.880  50.482  1.00  0.00     0.010 A 
HETATM    6  C11 UNL     1      22.491   5.303  49.346  1.00  0.00     0.001 A 
HETATM    7  C12 UNL     1      21.126   5.142  49.373  1.00  0.00     0.002 A 
HETATM    8  C13 UNL     1      20.504   4.582  50.493  1.00  0.00     0.034 A 
HETATM    9  C14 UNL     1      21.230   4.180  51.594  1.00  0.00     0.085 A 
HETATM   10  N2  UNL     1      20.415   3.647  52.603  1.00  0.00    -0.149 NA
HETATM   11  N3  UNL     1      20.063   2.461  52.762  1.00  0.00    -0.148 NA
HETATM   12  C15 UNL     1      20.515   1.484  51.833  1.00  0.00     0.232 C 
HETATM   13  N4  UNL     1      21.351   1.119  52.773  1.00  0.00    -0.123 NA
HETATM   14  C16 UNL     1      22.217   0.037  52.450  1.00  0.00     0.223 A 
HETATM   15  N5  UNL     1      22.840   0.943  53.123  1.00  0.00    -0.203 N 
HETATM   16  N6  UNL     1      24.168   0.884  53.487  1.00  0.00    -0.267 N 
HETATM   17  H14 UNL     1      24.674   0.383  54.251  1.00  0.00     0.190 HD
ENDROOT
BRANCH   1  18
HETATM   18  N1  UNL     1      25.836   0.926  51.961  1.00  0.00    -0.342 N 
HETATM   19  H4  UNL     1      25.533   0.604  51.028  1.00  0.00     0.167 HD
BRANCH  18  20
HETATM   20  C5  UNL     1      27.074   0.613  52.590  1.00  0.00     0.035 A 
HETATM   21  C4  UNL     1      27.822   1.650  53.089  1.00  0.00     0.029 A 
HETATM   22  C3  UNL     1      29.013   1.262  53.685  1.00  0.00     0.004 A 
HETATM   23  C2  UNL     1      29.410  -0.066  53.768  1.00  0.00     0.024 A 
HETATM   24  C1  UNL     1      28.596  -1.067  53.236  1.00  0.00     0.036 A 
HETATM   25 CL1  UNL     1      29.038  -2.756  53.306  1.00  0.00    -0.084 Cl
HETATM   26  C17 UNL     1      27.393  -0.729  52.629  1.00  0.00     0.053 A 
ENDBRANCH  18  20
ENDBRANCH   1  18
TORSDOF 2
ENDMDL
MODEL 5
REMARK VINA RESULT:      -8.4      3.354      6.932
REMARK  2 active torsions:
REMARK  status: ('A' for Active; 'I' for Inactive)
REMARK    1  A    between atoms: C5_6  and  N1_7 
REMARK    2  A    between atoms: N1_7  and  C6_8 
ROOT
HETATM    1  C6  UNL     1      24.421   2.416  51.367  1.00  0.00     0.118 C 
HETATM    2  C7  UNL     1      25.744   2.278  51.393  1.00  0.00     0.028 C 
HETATM    3  C8  UNL     1      26.651   1.107  51.367  1.00  0.00     0.072 C 
HETATM    4  C9  UNL     1      27.461   1.105  52.586  1.00  0.00    -0.024 A 
HETATM    5  C10 UNL     1      28.207   2.204  52.888  1.00  0.00     0.010 A 
HETATM    6  C11 UNL     1      29.022   2.350  54.004  1.00  0.00     0.001 A 
HETATM    7  C12 UNL     1      29.059   1.275  54.861  1.00  0.00     0.002 A 
HETATM    8  C13 UNL     1      28.306   0.129  54.587  1.00  0.00     0.034 A 
HETATM    9  C14 UNL     1      27.514   0.040  53.462  1.00  0.00     0.085 A 
HETATM   10  N2  UNL     1      26.847  -1.191  53.378  1.00  0.00    -0.149 NA
HETATM   11  N3  UNL     1      25.727  -1.492  53.838  1.00  0.00    -0.148 NA
HETATM   12  C15 UNL     1      24.991  -0.502  54.545  1.00  0.00     0.232 C 
HETATM   13  N4  UNL     1      24.263  -0.407  53.460  1.00  0.00    -0.123 NA
HETATM   14  C16 UNL     1      23.199   0.537  53.504  1.00  0.00     0.223 A 
HETATM   15  N5  UNL     1      23.783   0.551  52.355  1.00  0.00    -0.203 N 
HETATM   16  N6  UNL     1      23.435   1.367  51.301  1.00  0.00    -0.267 N 
HETATM   17  H14 UNL     1      22.674   1.321  50.586  1.00  0.00     0.190 HD
ENDROOT
BRANCH   1  18
HETATM   18  N1  UNL     1      23.656   3.616  51.397  1.00  0.00    -0.342 N 
HETATM   19  H4  UNL     1      23.105   3.630  52.271  1.00  0.00     0.167 HD
BRANCH  18  20
HETATM   20  C5  UNL     1      23.652   4.623  50.392  1.00  0.00     0.035 A 
HETATM   21  C4  UNL     1      23.240   4.271  49.131  1.00  0.00     0.029 A 
HETATM   22  C3  UNL     1      23.266   5.308  48.210  1.00  0.00     0.004 A 
HETATM   23  C2  UNL     1      23.674   6.593  48.541  1.00  0.00     0.024 A 
HETATM   24  C1  UNL     1      24.081   6.875  49.846  1.00  0.00     0.036 A 
HETATM   25 CL1  UNL     1      24.607   8.471  50.327  1.00  0.00    -0.084 Cl
HETATM   26  C17 UNL     1      24.073   5.870  50.805  1.00  0.00     0.053 A 
ENDBRANCH  18  20
ENDBRANCH   1  18
TORSDOF 2
ENDMDL
MODEL 6
REMARK VINA RESULT:      -8.1      6.237      7.656
REMARK  2 active torsions:
REMARK  status: ('A' for Active; 'I' for Inactive)
REMARK    1  A    between atoms: C5_6  and  N1_7 
REMARK    2  A    between atoms: N1_7  and  C6_8 
ROOT
HETATM    1  C6  UNL     1      26.187   5.812  49.306  1.00  0.00     0.118 C 
HETATM    2  C7  UNL     1      26.365   4.509  49.508  1.00  0.00     0.028 C 
HETATM    3  C8  UNL     1      25.450   3.346  49.551  1.00  0.00     0.072 C 
HETATM    4  C9  UNL     1      25.541   2.716  50.869  1.00  0.00    -0.024 A 
HETATM    5  C10 UNL     1      26.758   2.306  51.325  1.00  0.00     0.010 A 
HETATM    6  C11 UNL     1      27.002   1.696  52.550  1.00  0.00     0.001 A 
HETATM    7  C12 UNL     1      25.901   1.501  53.350  1.00  0.00     0.002 A 
HETATM    8  C13 UNL     1      24.635   1.908  52.918  1.00  0.00     0.034 A 
HETATM    9  C14 UNL     1      24.452   2.510  51.691  1.00  0.00     0.085 A 
HETATM   10  N2  UNL     1      23.109   2.838  51.455  1.00  0.00    -0.149 NA
HETATM   11  N3  UNL     1      22.514   3.897  51.740  1.00  0.00    -0.148 NA
HETATM   12  C15 UNL     1      23.240   4.935  52.386  1.00  0.00     0.232 C 
HETATM   13  N4  UNL     1      23.247   5.526  51.216  1.00  0.00    -0.123 NA
HETATM   14  C16 UNL     1      23.905   6.786  51.157  1.00  0.00     0.223 A 
HETATM   15  N5  UNL     1      24.150   6.087  50.103  1.00  0.00    -0.203 N 
HETATM   16  N6  UNL     1      24.943   6.493  49.052  1.00  0.00    -0.267 N 
HETATM   17  H14 UNL     1      24.776   7.125  48.237  1.00  0.00     0.190 HD
ENDROOT
BRANCH   1  18
HETATM   18  N1  UNL     1      27.164   6.846  49.288  1.00  0.00    -0.342 N 
HETATM   19  H4  UNL     1      27.150   7.325  50.203  1.00  0.00     0.167 HD
BRANCH  18  20
HETATM   20  C5  UNL     1      28.015   7.165  48.193  1.00  0.00     0.035 A 
HETATM   21  C4  UNL     1      27.516   7.980  47.207  1.00  0.00     0.029 A 
HETATM   22  C3  UNL     1      28.407   8.242  46.176  1.00  0.00     0.004 A 
HETATM   23  C2  UNL     1      29.694   7.724  46.149  1.00  0.00     0.024 A 
HETATM   24  C1  UNL     1      30.131   6.902  47.189  1.00  0.00     0.036 A 
HETATM   25 CL1  UNL     1      31.739   6.217  47.215  1.00  0.00    -0.084 Cl
HETATM   26  C17 UNL     1      29.277   6.609  48.245  1.00  0.00     0.053 A 
ENDBRANCH  18  20
ENDBRANCH   1  18
TORSDOF 2
ENDMDL
MODEL 7
REMARK VINA RESULT:      -8.1      3.587      4.784
REMARK  2 active torsions:
REMARK  status: ('A' for Active; 'I' for Inactive)
REMARK    1  A    between atoms: C5_6  and  N1_7 
REMARK    2  A    between atoms: N1_7  and  C6_8 
ROOT
HETATM    1  C6  UNL     1      25.174   3.449  50.733  1.00  0.00     0.118 C 
HETATM    2  C7  UNL     1      24.393   2.798  49.875  1.00  0.00     0.028 C 
HETATM    3  C8  UNL     1      23.538   3.225  48.743  1.00  0.00     0.072 C 
HETATM    4  C9  UNL     1      22.155   2.831  49.015  1.00  0.00    -0.024 A 
HETATM    5  C10 UNL     1      21.878   1.524  49.277  1.00  0.00     0.010 A 
HETATM    6  C11 UNL     1      20.620   1.000  49.552  1.00  0.00     0.001 A 
HETATM    7  C12 UNL     1      19.584   1.904  49.554  1.00  0.00     0.002 A 
HETATM    8  C13 UNL     1      19.828   3.256  49.290  1.00  0.00     0.034 A 
HETATM    9  C14 UNL     1      21.099   3.719  49.022  1.00  0.00     0.085 A 
HETATM   10  N2  UNL     1      21.122   5.102  48.786  1.00  0.00    -0.149 NA
HETATM   11  N3  UNL     1      21.273   6.021  49.615  1.00  0.00    -0.148 NA
HETATM   12  C15 UNL     1      21.448   5.683  50.985  1.00  0.00     0.232 C 
HETATM   13  N4  UNL     1      22.713   5.963  50.792  1.00  0.00    -0.123 NA
HETATM   14  C16 UNL     1      23.564   5.812  51.923  1.00  0.00     0.223 A 
HETATM   15  N5  UNL     1      24.143   5.394  50.849  1.00  0.00    -0.203 N 
HETATM   16  N6  UNL     1      25.415   4.869  50.790  1.00  0.00    -0.267 N 
HETATM   17  H14 UNL     1      26.365   5.304  50.782  1.00  0.00     0.190 HD
ENDROOT
BRANCH   1  18
HETATM   18  N1  UNL     1      25.957   2.917  51.795  1.00  0.00    -0.342 N 
HETATM   19  H4  UNL     1      26.552   3.672  52.173  1.00  0.00     0.167 HD
BRANCH  18  20
HETATM   20  C5  UNL     1      25.926   1.570  52.255  1.00  0.00     0.035 A 
HETATM   21  C4  UNL     1      27.024   0.783  52.016  1.00  0.00     0.029 A 
HETATM   22  C3  UNL     1      26.914  -0.514  52.495  1.00  0.00     0.004 A 
HETATM   23  C2  UNL     1      25.786  -0.972  53.161  1.00  0.00     0.024 A 
HETATM   24  C1  UNL     1      24.706  -0.112  53.368  1.00  0.00     0.036 A 
HETATM   25 CL1  UNL     1      23.257  -0.626  54.198  1.00  0.00    -0.084 Cl
HETATM   26  C17 UNL     1      24.768   1.197  52.906  1.00  0.00     0.053 A 
ENDBRANCH  18  20
ENDBRANCH   1  18
TORSDOF 2
ENDMDL
MODEL 8
REMARK VINA RESULT:      -7.9      8.969     10.174
REMARK  2 active torsions:
REMARK  status: ('A' for Active; 'I' for Inactive)
REMARK    1  A    between atoms: C5_6  and  N1_7 
REMARK    2  A    between atoms: N1_7  and  C6_8 
ROOT
HETATM    1  C6  UNL     1      31.124   7.032  48.258  1.00  0.00     0.118 C 
HETATM    2  C7  UNL     1      30.041   6.348  47.899  1.00  0.00     0.028 C 
HETATM    3  C8  UNL     1      28.774   6.718  47.227  1.00  0.00     0.072 C 
HETATM    4  C9  UNL     1      27.655   6.409  48.118  1.00  0.00    -0.024 A 
HETATM    5  C10 UNL     1      27.519   5.141  48.596  1.00  0.00     0.010 A 
HETATM    6  C11 UNL     1      26.513   4.697  49.447  1.00  0.00     0.001 A 
HETATM    7  C12 UNL     1      25.589   5.643  49.822  1.00  0.00     0.002 A 
HETATM    8  C13 UNL     1      25.694   6.956  49.354  1.00  0.00     0.034 A 
HETATM    9  C14 UNL     1      26.714   7.340  48.510  1.00  0.00     0.085 A 
HETATM   10  N2  UNL     1      26.634   8.696  48.161  1.00  0.00    -0.149 NA
HETATM   11  N3  UNL     1      27.141   9.673  48.748  1.00  0.00    -0.148 NA
HETATM   12  C15 UNL     1      27.906   9.441  49.924  1.00  0.00     0.232 C 
HETATM   13  N4  UNL     1      28.954   9.648  49.166  1.00  0.00    -0.123 NA
HETATM   14  C16 UNL     1      30.219   9.553  49.812  1.00  0.00     0.223 A 
HETATM   15  N5  UNL     1      30.258   9.023  48.637  1.00  0.00    -0.203 N 
HETATM   16  N6  UNL     1      31.370   8.440  48.070  1.00  0.00    -0.267 N 
HETATM   17  H14 UNL     1      32.218   8.830  47.603  1.00  0.00     0.190 HD
ENDROOT
BRANCH   1  18
HETATM   18  N1  UNL     1      32.297   6.554  48.908  1.00  0.00    -0.342 N 
HETATM   19  H4  UNL     1      32.471   7.141  49.739  1.00  0.00     0.167 HD
BRANCH  18  20
HETATM   20  C5  UNL     1      33.092   5.455  48.481  1.00  0.00     0.035 A 
HETATM   21  C4  UNL     1      34.451   5.536  48.660  1.00  0.00     0.029 A 
HETATM   22  C3  UNL     1      35.154   4.425  48.217  1.00  0.00     0.004 A 
HETATM   23  C2  UNL     1      34.532   3.325  47.644  1.00  0.00     0.024 A 
HETATM   24  C1  UNL     1      33.144   3.314  47.494  1.00  0.00     0.036 A 
HETATM   25 CL1  UNL     1      32.299   1.962  46.780  1.00  0.00    -0.084 Cl
HETATM   26  C17 UNL     1      32.394   4.404  47.922  1.00  0.00     0.053 A 
ENDBRANCH  18  20
ENDBRANCH   1  18
TORSDOF 2
ENDMDL
MODEL 9
REMARK VINA RESULT:      -7.9      2.453      3.627
REMARK  2 active torsions:
REMARK  status: ('A' for Active; 'I' for Inactive)
REMARK    1  A    between atoms: C5_6  and  N1_7 
REMARK    2  A    between atoms: N1_7  and  C6_8 
ROOT
HETATM    1  C6  UNL     1      23.924   1.859  51.911  1.00  0.00     0.118 C 
HETATM    2  C7  UNL     1      22.968   1.134  51.335  1.00  0.00     0.028 C 
HETATM    3  C8  UNL     1      22.161   1.299  50.104  1.00  0.00     0.072 C 
HETATM    4  C9  UNL     1      20.745   1.355  50.468  1.00  0.00    -0.024 A 
HETATM    5  C10 UNL     1      20.204   0.332  51.187  1.00  0.00     0.010 A 
HETATM    6  C11 UNL     1      18.881   0.244  51.605  1.00  0.00     0.001 A 
HETATM    7  C12 UNL     1      18.071   1.295  51.246  1.00  0.00     0.002 A 
HETATM    8  C13 UNL     1      18.588   2.364  50.508  1.00  0.00     0.034 A 
HETATM    9  C14 UNL     1      19.910   2.399  50.121  1.00  0.00     0.085 A 
HETATM   10  N2  UNL     1      20.221   3.556  49.391  1.00  0.00    -0.149 NA
HETATM   11  N3  UNL     1      20.620   4.655  49.827  1.00  0.00    -0.148 NA
HETATM   12  C15 UNL     1      20.799   4.810  51.229  1.00  0.00     0.232 C 
HETATM   13  N4  UNL     1      22.081   4.706  50.977  1.00  0.00    -0.123 NA
HETATM   14  C16 UNL     1      22.946   4.790  52.105  1.00  0.00     0.223 A 
HETATM   15  N5  UNL     1      23.352   3.890  51.276  1.00  0.00    -0.203 N 
HETATM   16  N6  UNL     1      24.473   3.107  51.446  1.00  0.00    -0.267 N 
HETATM   17  H14 UNL     1      25.492   3.283  51.303  1.00  0.00     0.190 HD
ENDROOT
BRANCH   1  18
HETATM   18  N1  UNL     1      24.635   1.588  53.114  1.00  0.00    -0.342 N 
HETATM   19  H4  UNL     1      24.080   1.945  53.909  1.00  0.00     0.167 HD
BRANCH  18  20
HETATM   20  C5  UNL     1      25.897   0.937  53.204  1.00  0.00     0.035 A 
HETATM   21  C4  UNL     1      25.978  -0.368  52.784  1.00  0.00     0.029 A 
HETATM   22  C3  UNL     1      27.241  -0.930  52.904  1.00  0.00     0.004 A 
HETATM   23  C2  UNL     1      28.328  -0.228  53.406  1.00  0.00     0.024 A 
HETATM   24  C1  UNL     1      28.168   1.098  53.813  1.00  0.00     0.036 A 
HETATM   25 CL1  UNL     1      29.495   2.037  54.454  1.00  0.00    -0.084 Cl
HETATM   26  C17 UNL     1      26.922   1.706  53.713  1.00  0.00     0.053 A 
ENDBRANCH  18  20
ENDBRANCH   1  18
TORSDOF 2
ENDMDL
