MODEL 1
REMARK VINA RESULT:      -8.9      0.000      0.000
REMARK  3 active torsions:
REMARK  status: ('A' for Active; 'I' for Inactive)
REMARK    1  A    between atoms: C4_6  and  C5_7 
REMARK       I    between atoms: C5_7  and  N2_9 
REMARK    2  A    between atoms: N2_9  and  C6_10 
REMARK    3  A    between atoms: C10_15  and  N4_16 
ROOT
HETATM    1  C6  UNL     1      24.540  -0.488  53.897  1.00  0.00     0.730 C 
HETATM    2  N3  UNL     1      23.778  -1.009  54.800  1.00  0.00    -0.075 NA
HETATM    3  C7  UNL     1      22.365  -0.991  54.979  1.00  0.00     0.133 C 
HETATM    4  C8  UNL     1      21.556  -0.255  54.213  1.00  0.00     0.001 C 
HETATM    5  C9  UNL     1      21.680   0.667  53.091  1.00  0.00     0.108 C 
HETATM    6  C10 UNL     1      23.001   0.739  52.475  1.00  0.00     0.132 C 
HETATM    7  N5  UNL     1      24.163   0.290  52.770  1.00  0.00    -0.048 NA
ENDROOT
BRANCH   1   8
HETATM    8  N2  UNL     1      25.944  -0.720  54.044  1.00  0.00    -0.154 N 
HETATM    9  C5  UNL     1      26.802   0.308  54.575  1.00  0.00     0.266 C 
HETATM   10  O2  UNL     1      26.202   1.387  54.882  1.00  0.00    -0.270 OA
HETATM   11  H5  UNL     1      26.294  -1.678  53.743  1.00  0.00     0.187 HD
BRANCH   9  12
HETATM   12  C4  UNL     1      28.227  -0.104  54.658  1.00  0.00     0.249 C 
HETATM   13  C1  UNL     1      29.070   0.838  53.839  1.00  0.00     0.182 C 
HETATM   14  O1  UNL     1      28.857   2.049  53.511  1.00  0.00    -0.290 OA
HETATM   15  C2  UNL     1      30.241   0.014  53.490  1.00  0.00     0.069 C 
HETATM   16  C3  UNL     1      29.882  -1.261  53.565  1.00  0.00     0.088 C 
HETATM   17  N1  UNL     1      28.498  -1.345  53.956  1.00  0.00    -0.380 N 
HETATM   18  H3  UNL     1      28.032  -2.249  53.654  1.00  0.00     0.160 HD
ENDBRANCH   9  12
ENDBRANCH   1   8
BRANCH   6  19
HETATM   19  N4  UNL     1      23.037   1.478  51.256  1.00  0.00    -0.319 N 
HETATM   20  C11 UNL     1      22.067   1.207  50.270  1.00  0.00     0.094 A 
HETATM   21  C12 UNL     1      22.070   1.868  49.136  1.00  0.00    -0.004 A 
HETATM   22  C13 UNL     1      23.063   2.923  48.808  1.00  0.00     0.076 A 
HETATM   23  C14 UNL     1      24.001   3.093  49.919  1.00  0.00     0.008 A 
HETATM   24 BR1  UNL     1      25.278   4.445  49.506  1.00  0.00    -0.054 Br
HETATM   25  C15 UNL     1      24.055   2.467  51.079  1.00  0.00     0.112 A 
ENDBRANCH   6  19
TORSDOF 3
ENDMDL
MODEL 2
REMARK VINA RESULT:      -8.5      3.293      6.046
REMARK  3 active torsions:
REMARK  status: ('A' for Active; 'I' for Inactive)
REMARK    1  A    between atoms: C4_6  and  C5_7 
REMARK       I    between atoms: C5_7  and  N2_9 
REMARK    2  A    between atoms: N2_9  and  C6_10 
REMARK    3  A    between atoms: C10_15  and  N4_16 
ROOT
HETATM    1  C6  UNL     1      26.736   2.347  52.224  1.00  0.00     0.730 C 
HETATM    2  N3  UNL     1      27.982   2.162  52.507  1.00  0.00    -0.075 NA
HETATM    3  C7  UNL     1      28.644   1.176  53.293  1.00  0.00     0.133 C 
HETATM    4  C8  UNL     1      27.977   0.273  54.016  1.00  0.00     0.001 C 
HETATM    5  C9  UNL     1      26.589  -0.071  54.295  1.00  0.00     0.108 C 
HETATM    6  C10 UNL     1      25.591   0.609  53.475  1.00  0.00     0.132 C 
HETATM    7  N5  UNL     1      25.616   1.578  52.638  1.00  0.00    -0.048 NA
ENDROOT
BRANCH   1   8
HETATM    8  N2  UNL     1      26.437   3.468  51.385  1.00  0.00    -0.154 N 
HETATM    9  C5  UNL     1      26.564   3.363  49.954  1.00  0.00     0.266 C 
HETATM   10  O2  UNL     1      26.951   2.224  49.543  1.00  0.00    -0.270 OA
HETATM   11  H5  UNL     1      26.123   4.354  51.884  1.00  0.00     0.187 HD
BRANCH   9  12
HETATM   12  C4  UNL     1      26.215   4.619  49.243  1.00  0.00     0.249 C 
HETATM   13  C1  UNL     1      27.461   5.230  48.660  1.00  0.00     0.182 C 
HETATM   14  O1  UNL     1      28.557   4.680  48.316  1.00  0.00    -0.290 OA
HETATM   15  C2  UNL     1      27.119   6.660  48.573  1.00  0.00     0.069 C 
HETATM   16  C3  UNL     1      26.154   6.905  49.450  1.00  0.00     0.088 C 
HETATM   17  N1  UNL     1      25.818   5.687  50.142  1.00  0.00    -0.380 N 
HETATM   18  H3  UNL     1      25.382   5.854  51.095  1.00  0.00     0.160 HD
ENDBRANCH   9  12
ENDBRANCH   1   8
BRANCH   6  19
HETATM   19  N4  UNL     1      24.269   0.097  53.620  1.00  0.00    -0.319 N 
HETATM   20  C11 UNL     1      23.994  -0.781  54.689  1.00  0.00     0.094 A 
HETATM   21  C12 UNL     1      22.789  -1.272  54.852  1.00  0.00    -0.004 A 
HETATM   22  C13 UNL     1      21.648  -0.954  53.954  1.00  0.00     0.076 A 
HETATM   23  C14 UNL     1      22.081  -0.037  52.898  1.00  0.00     0.008 A 
HETATM   24 BR1  UNL     1      20.624   0.375  51.742  1.00  0.00    -0.054 Br
HETATM   25  C15 UNL     1      23.269   0.492  52.676  1.00  0.00     0.112 A 
ENDBRANCH   6  19
TORSDOF 3
ENDMDL
MODEL 3
REMARK VINA RESULT:      -8.4      2.143      2.982
REMARK  3 active torsions:
REMARK  status: ('A' for Active; 'I' for Inactive)
REMARK    1  A    between atoms: C4_6  and  C5_7 
REMARK       I    between atoms: C5_7  and  N2_9 
REMARK    2  A    between atoms: N2_9  and  C6_10 
REMARK    3  A    between atoms: C10_15  and  N4_16 
ROOT
HETATM    1  C6  UNL     1      24.936   1.111  52.372  1.00  0.00     0.730 C 
HETATM    2  N3  UNL     1      23.756   0.752  52.754  1.00  0.00    -0.075 NA
HETATM    3  C7  UNL     1      22.468   1.316  52.524  1.00  0.00     0.133 C 
HETATM    4  C8  UNL     1      22.302   2.488  51.906  1.00  0.00     0.001 C 
HETATM    5  C9  UNL     1      23.140   3.519  51.307  1.00  0.00     0.108 C 
HETATM    6  C10 UNL     1      24.552   3.180  51.161  1.00  0.00     0.132 C 
HETATM    7  N5  UNL     1      25.301   2.227  51.574  1.00  0.00    -0.048 NA
ENDROOT
BRANCH   1   8
HETATM    8  N2  UNL     1      26.019   0.282  52.805  1.00  0.00    -0.154 N 
HETATM    9  C5  UNL     1      26.743   0.597  54.009  1.00  0.00     0.266 C 
HETATM   10  O2  UNL     1      26.332   1.639  54.613  1.00  0.00    -0.270 OA
HETATM   11  H5  UNL     1      26.241  -0.557  52.189  1.00  0.00     0.187 HD
BRANCH   9  12
HETATM   12  C4  UNL     1      27.833  -0.368  54.306  1.00  0.00     0.249 C 
HETATM   13  C1  UNL     1      29.165   0.291  54.065  1.00  0.00     0.182 C 
HETATM   14  O1  UNL     1      29.486   1.522  54.096  1.00  0.00    -0.290 OA
HETATM   15  C2  UNL     1      30.050  -0.851  53.773  1.00  0.00     0.069 C 
HETATM   16  C3  UNL     1      29.295  -1.856  53.348  1.00  0.00     0.088 C 
HETATM   17  N1  UNL     1      27.914  -1.445  53.337  1.00  0.00    -0.380 N 
HETATM   18  H3  UNL     1      27.317  -2.000  52.658  1.00  0.00     0.160 HD
ENDBRANCH   9  12
ENDBRANCH   1   8
BRANCH   6  19
HETATM   19  N4  UNL     1      25.298   4.112  50.382  1.00  0.00    -0.319 N 
HETATM   20  C11 UNL     1      26.419   3.651  49.663  1.00  0.00     0.094 A 
HETATM   21  C12 UNL     1      27.129   4.481  48.936  1.00  0.00    -0.004 A 
HETATM   22  C13 UNL     1      26.820   5.929  48.813  1.00  0.00     0.076 A 
HETATM   23  C14 UNL     1      25.638   6.260  49.610  1.00  0.00     0.008 A 
HETATM   24 BR1  UNL     1      25.236   8.116  49.458  1.00  0.00    -0.054 Br
HETATM   25  C15 UNL     1      24.882   5.481  50.359  1.00  0.00     0.112 A 
ENDBRANCH   6  19
TORSDOF 3
ENDMDL
MODEL 4
REMARK VINA RESULT:      -8.3      2.780      4.357
REMARK  3 active torsions:
REMARK  status: ('A' for Active; 'I' for Inactive)
REMARK    1  A    between atoms: C4_6  and  C5_7 
REMARK       I    between atoms: C5_7  and  N2_9 
REMARK    2  A    between atoms: N2_9  and  C6_10 
REMARK    3  A    between atoms: C10_15  and  N4_16 
ROOT
HETATM    1  C6  UNL     1      24.892   2.008  52.071  1.00  0.00     0.730 C 
HETATM    2  N3  UNL     1      24.879   3.248  51.712  1.00  0.00    -0.075 NA
HETATM    3  C7  UNL     1      23.834   4.214  51.665  1.00  0.00     0.133 C 
HETATM    4  C8  UNL     1      22.558   3.900  51.906  1.00  0.00     0.001 C 
HETATM    5  C9  UNL     1      21.789   2.712  52.252  1.00  0.00     0.108 C 
HETATM    6  C10 UNL     1      22.572   1.532  52.604  1.00  0.00     0.132 C 
HETATM    7  N5  UNL     1      23.812   1.217  52.544  1.00  0.00    -0.048 NA
ENDROOT
BRANCH   1   8
HETATM    8  N2  UNL     1      26.154   1.337  51.983  1.00  0.00    -0.154 N 
HETATM    9  C5  UNL     1      27.067   1.351  53.097  1.00  0.00     0.266 C 
HETATM   10  O2  UNL     1      26.647   1.992  54.112  1.00  0.00    -0.270 OA
HETATM   11  H5  UNL     1      26.358   0.844  51.063  1.00  0.00     0.187 HD
BRANCH   9  12
HETATM   12  C4  UNL     1      28.325   0.608  52.831  1.00  0.00     0.249 C 
HETATM   13  C1  UNL     1      28.144  -0.837  53.215  1.00  0.00     0.182 C 
HETATM   14  O1  UNL     1      27.084  -1.539  53.281  1.00  0.00    -0.290 OA
HETATM   15  C2  UNL     1      29.521  -1.275  53.509  1.00  0.00     0.069 C 
HETATM   16  C3  UNL     1      30.236  -0.200  53.813  1.00  0.00     0.088 C 
HETATM   17  N1  UNL     1      29.397   0.969  53.739  1.00  0.00    -0.380 N 
HETATM   18  H3  UNL     1      29.748   1.774  54.335  1.00  0.00     0.160 HD
ENDBRANCH   9  12
ENDBRANCH   1   8
BRANCH   6  19
HETATM   19  N4  UNL     1      21.801   0.460  53.143  1.00  0.00    -0.319 N 
HETATM   20  C11 UNL     1      22.424  -0.448  54.023  1.00  0.00     0.094 A 
HETATM   21  C12 UNL     1      21.746  -1.446  54.538  1.00  0.00    -0.004 A 
HETATM   22  C13 UNL     1      20.310  -1.695  54.245  1.00  0.00     0.076 A 
HETATM   23  C14 UNL     1      19.802  -0.679  53.322  1.00  0.00     0.008 A 
HETATM   24 BR1  UNL     1      17.962  -0.992  52.941  1.00  0.00    -0.054 Br
HETATM   25  C15 UNL     1      20.425   0.345  52.770  1.00  0.00     0.112 A 
ENDBRANCH   6  19
TORSDOF 3
ENDMDL
MODEL 5
REMARK VINA RESULT:      -8.2      2.305      3.949
REMARK  3 active torsions:
REMARK  status: ('A' for Active; 'I' for Inactive)
REMARK    1  A    between atoms: C4_6  and  C5_7 
REMARK       I    between atoms: C5_7  and  N2_9 
REMARK    2  A    between atoms: N2_9  and  C6_10 
REMARK    3  A    between atoms: C10_15  and  N4_16 
ROOT
HETATM    1  C6  UNL     1      25.419   1.500  51.822  1.00  0.00     0.730 C 
HETATM    2  N3  UNL     1      25.764   2.494  51.075  1.00  0.00    -0.075 NA
HETATM    3  C7  UNL     1      24.998   3.462  50.363  1.00  0.00     0.133 C 
HETATM    4  C8  UNL     1      23.668   3.394  50.273  1.00  0.00     0.001 C 
HETATM    5  C9  UNL     1      22.600   2.519  50.739  1.00  0.00     0.108 C 
HETATM    6  C10 UNL     1      22.993   1.501  51.708  1.00  0.00     0.132 C 
HETATM    7  N5  UNL     1      24.109   1.069  52.163  1.00  0.00    -0.048 NA
ENDROOT
BRANCH   1   8
HETATM    8  N2  UNL     1      26.486   0.729  52.383  1.00  0.00    -0.154 N 
HETATM    9  C5  UNL     1      26.841   0.874  53.771  1.00  0.00     0.266 C 
HETATM   10  O2  UNL     1      26.135   1.720  54.408  1.00  0.00    -0.270 OA
HETATM   11  H5  UNL     1      26.981   0.063  51.718  1.00  0.00     0.187 HD
BRANCH   9  12
HETATM   12  C4  UNL     1      27.969  -0.000  54.182  1.00  0.00     0.249 C 
HETATM   13  C1  UNL     1      29.253   0.533  53.604  1.00  0.00     0.182 C 
HETATM   14  O1  UNL     1      29.563   1.718  53.257  1.00  0.00    -0.290 OA
HETATM   15  C2  UNL     1      30.104  -0.668  53.528  1.00  0.00     0.069 C 
HETATM   16  C3  UNL     1      29.311  -1.730  53.492  1.00  0.00     0.088 C 
HETATM   17  N1  UNL     1      27.936  -1.302  53.542  1.00  0.00    -0.380 N 
HETATM   18  H3  UNL     1      27.263  -2.006  53.122  1.00  0.00     0.160 HD
ENDBRANCH   9  12
ENDBRANCH   1   8
BRANCH   6  19
HETATM   19  N4  UNL     1      21.899   0.808  52.303  1.00  0.00    -0.319 N 
HETATM   20  C11 UNL     1      22.074   0.229  53.576  1.00  0.00     0.094 A 
HETATM   21  C12 UNL     1      21.089  -0.416  54.154  1.00  0.00    -0.004 A 
HETATM   22  C13 UNL     1      19.748  -0.585  53.535  1.00  0.00     0.076 A 
HETATM   23  C14 UNL     1      19.715   0.065  52.224  1.00  0.00     0.008 A 
HETATM   24 BR1  UNL     1      17.999  -0.147  51.424  1.00  0.00    -0.054 Br
HETATM   25  C15 UNL     1      20.663   0.726  51.587  1.00  0.00     0.112 A 
ENDBRANCH   6  19
TORSDOF 3
ENDMDL
MODEL 6
REMARK VINA RESULT:      -8.0      3.057      6.014
REMARK  3 active torsions:
REMARK  status: ('A' for Active; 'I' for Inactive)
REMARK    1  A    between atoms: C4_6  and  C5_7 
REMARK       I    between atoms: C5_7  and  N2_9 
REMARK    2  A    between atoms: N2_9  and  C6_10 
REMARK    3  A    between atoms: C10_15  and  N4_16 
ROOT
HETATM    1  C6  UNL     1      23.128   2.116  52.283  1.00  0.00     0.730 C 
HETATM    2  N3  UNL     1      21.930   1.806  52.649  1.00  0.00    -0.075 NA
HETATM    3  C7  UNL     1      21.418   0.720  53.415  1.00  0.00     0.133 C 
HETATM    4  C8  UNL     1      22.185  -0.301  53.807  1.00  0.00     0.001 C 
HETATM    5  C9  UNL     1      23.577  -0.713  53.682  1.00  0.00     0.108 C 
HETATM    6  C10 UNL     1      24.484   0.285  53.123  1.00  0.00     0.132 C 
HETATM    7  N5  UNL     1      24.338   1.424  52.557  1.00  0.00    -0.048 NA
ENDROOT
BRANCH   1   8
HETATM    8  N2  UNL     1      23.263   3.308  51.502  1.00  0.00    -0.154 N 
HETATM    9  C5  UNL     1      23.657   4.546  52.123  1.00  0.00     0.266 C 
HETATM   10  O2  UNL     1      23.860   4.465  53.376  1.00  0.00    -0.270 OA
HETATM   11  H5  UNL     1      23.059   3.211  50.463  1.00  0.00     0.187 HD
BRANCH   9  12
HETATM   12  C4  UNL     1      23.747   5.678  51.165  1.00  0.00     0.249 C 
HETATM   13  C1  UNL     1      24.825   5.395  50.153  1.00  0.00     0.182 C 
HETATM   14  O1  UNL     1      25.295   4.282  49.749  1.00  0.00    -0.290 OA
HETATM   15  C2  UNL     1      25.232   6.742  49.718  1.00  0.00     0.069 C 
HETATM   16  C3  UNL     1      24.907   7.599  50.677  1.00  0.00     0.088 C 
HETATM   17  N1  UNL     1      24.287   6.884  51.765  1.00  0.00    -0.380 N 
HETATM   18  H3  UNL     1      24.368   7.387  52.696  1.00  0.00     0.160 HD
ENDBRANCH   9  12
ENDBRANCH   1   8
BRANCH   6  19
HETATM   19  N4  UNL     1      25.863  -0.065  53.213  1.00  0.00    -0.319 N 
HETATM   20  C11 UNL     1      26.265  -1.352  52.803  1.00  0.00     0.094 A 
HETATM   21  C12 UNL     1      27.526  -1.708  52.872  1.00  0.00    -0.004 A 
HETATM   22  C13 UNL     1      28.601  -0.812  53.373  1.00  0.00     0.076 A 
HETATM   23  C14 UNL     1      28.037   0.482  53.760  1.00  0.00     0.008 A 
HETATM   24 BR1  UNL     1      29.410   1.635  54.404  1.00  0.00    -0.054 Br
HETATM   25  C15 UNL     1      26.788   0.903  53.717  1.00  0.00     0.112 A 
ENDBRANCH   6  19
TORSDOF 3
ENDMDL
MODEL 7
REMARK VINA RESULT:      -7.8      1.876      2.285
REMARK  3 active torsions:
REMARK  status: ('A' for Active; 'I' for Inactive)
REMARK    1  A    between atoms: C4_6  and  C5_7 
REMARK       I    between atoms: C5_7  and  N2_9 
REMARK    2  A    between atoms: N2_9  and  C6_10 
REMARK    3  A    between atoms: C10_15  and  N4_16 
ROOT
HETATM    1  C6  UNL     1      23.886  -0.099  53.557  1.00  0.00     0.730 C 
HETATM    2  N3  UNL     1      23.533  -0.890  54.515  1.00  0.00    -0.075 NA
HETATM    3  C7  UNL     1      22.255  -1.308  54.983  1.00  0.00     0.133 C 
HETATM    4  C8  UNL     1      21.117  -0.791  54.512  1.00  0.00     0.001 C 
HETATM    5  C9  UNL     1      20.714   0.207  53.530  1.00  0.00     0.108 C 
HETATM    6  C10 UNL     1      21.777   0.716  52.671  1.00  0.00     0.132 C 
HETATM    7  N5  UNL     1      23.054   0.613  52.653  1.00  0.00    -0.048 NA
ENDROOT
BRANCH   1   8
HETATM    8  N2  UNL     1      25.293   0.088  53.377  1.00  0.00    -0.154 N 
HETATM    9  C5  UNL     1      25.885   1.389  53.553  1.00  0.00     0.266 C 
HETATM   10  O2  UNL     1      25.059   2.304  53.869  1.00  0.00    -0.270 OA
HETATM   11  H5  UNL     1      25.850  -0.779  53.113  1.00  0.00     0.187 HD
BRANCH   9  12
HETATM   12  C4  UNL     1      27.353   1.400  53.326  1.00  0.00     0.249 C 
HETATM   13  C1  UNL     1      28.018   0.466  54.302  1.00  0.00     0.182 C 
HETATM   14  O1  UNL     1      27.553  -0.557  54.901  1.00  0.00    -0.290 OA
HETATM   15  C2  UNL     1      29.379   1.019  54.413  1.00  0.00     0.069 C 
HETATM   16  C3  UNL     1      29.331   2.299  54.068  1.00  0.00     0.088 C 
HETATM   17  N1  UNL     1      27.977   2.649  53.721  1.00  0.00    -0.380 N 
HETATM   18  H3  UNL     1      27.771   3.684  53.830  1.00  0.00     0.160 HD
ENDBRANCH   9  12
ENDBRANCH   1   8
BRANCH   6  19
HETATM   19  N4  UNL     1      21.318   1.521  51.587  1.00  0.00    -0.319 N 
HETATM   20  C11 UNL     1      20.201   2.357  51.789  1.00  0.00     0.094 A 
HETATM   21  C12 UNL     1      19.751   3.111  50.815  1.00  0.00    -0.004 A 
HETATM   22  C13 UNL     1      20.361   3.146  49.460  1.00  0.00     0.076 A 
HETATM   23  C14 UNL     1      21.504   2.233  49.400  1.00  0.00     0.008 A 
HETATM   24 BR1  UNL     1      22.292   2.272  47.666  1.00  0.00    -0.054 Br
HETATM   25  C15 UNL     1      22.007   1.451  50.336  1.00  0.00     0.112 A 
ENDBRANCH   6  19
TORSDOF 3
ENDMDL
MODEL 8
REMARK VINA RESULT:      -7.7      3.271      6.689
REMARK  3 active torsions:
REMARK  status: ('A' for Active; 'I' for Inactive)
REMARK    1  A    between atoms: C4_6  and  C5_7 
REMARK       I    between atoms: C5_7  and  N2_9 
REMARK    2  A    between atoms: N2_9  and  C6_10 
REMARK    3  A    between atoms: C10_15  and  N4_16 
ROOT
HETATM    1  C6  UNL     1      22.891   2.098  52.576  1.00  0.00     0.730 C 
HETATM    2  N3  UNL     1      21.868   1.370  52.871  1.00  0.00    -0.075 NA
HETATM    3  C7  UNL     1      21.753   0.101  53.509  1.00  0.00     0.133 C 
HETATM    4  C8  UNL     1      22.819  -0.640  53.821  1.00  0.00     0.001 C 
HETATM    5  C9  UNL     1      24.268  -0.548  53.698  1.00  0.00     0.108 C 
HETATM    6  C10 UNL     1      24.786   0.748  53.270  1.00  0.00     0.132 C 
HETATM    7  N5  UNL     1      24.264   1.826  52.817  1.00  0.00    -0.048 NA
ENDROOT
BRANCH   1   8
HETATM    8  N2  UNL     1      22.616   3.342  51.923  1.00  0.00    -0.154 N 
HETATM    9  C5  UNL     1      22.683   3.443  50.488  1.00  0.00     0.266 C 
HETATM   10  O2  UNL     1      22.998   2.361  49.899  1.00  0.00    -0.270 OA
HETATM   11  H5  UNL     1      22.365   4.158  52.558  1.00  0.00     0.187 HD
BRANCH   9  12
HETATM   12  C4  UNL     1      22.368   4.804  49.982  1.00  0.00     0.249 C 
HETATM   13  C1  UNL     1      23.072   5.830  50.830  1.00  0.00     0.182 C 
HETATM   14  O1  UNL     1      24.131   5.725  51.529  1.00  0.00    -0.290 OA
HETATM   15  C2  UNL     1      22.230   7.028  50.665  1.00  0.00     0.069 C 
HETATM   16  C3  UNL     1      21.016   6.630  50.310  1.00  0.00     0.088 C 
HETATM   17  N1  UNL     1      20.991   5.192  50.223  1.00  0.00    -0.380 N 
HETATM   18  H3  UNL     1      20.020   4.782  50.349  1.00  0.00     0.160 HD
ENDBRANCH   9  12
ENDBRANCH   1   8
BRANCH   6  19
HETATM   19  N4  UNL     1      26.203   0.871  53.369  1.00  0.00    -0.319 N 
HETATM   20  C11 UNL     1      26.765   2.158  53.487  1.00  0.00     0.094 A 
HETATM   21  C12 UNL     1      28.065   2.310  53.579  1.00  0.00    -0.004 A 
HETATM   22  C13 UNL     1      29.023   1.173  53.567  1.00  0.00     0.076 A 
HETATM   23  C14 UNL     1      28.299  -0.092  53.440  1.00  0.00     0.008 A 
HETATM   24 BR1  UNL     1      29.520  -1.554  53.423  1.00  0.00    -0.054 Br
HETATM   25  C15 UNL     1      27.002  -0.315  53.343  1.00  0.00     0.112 A 
ENDBRANCH   6  19
TORSDOF 3
ENDMDL
MODEL 9
REMARK VINA RESULT:      -7.7      3.282      5.455
REMARK  3 active torsions:
REMARK  status: ('A' for Active; 'I' for Inactive)
REMARK    1  A    between atoms: C4_6  and  C5_7 
REMARK       I    between atoms: C5_7  and  N2_9 
REMARK    2  A    between atoms: N2_9  and  C6_10 
REMARK    3  A    between atoms: C10_15  and  N4_16 
ROOT
HETATM    1  C6  UNL     1      24.066   1.230  51.967  1.00  0.00     0.730 C 
HETATM    2  N3  UNL     1      25.080   0.807  52.645  1.00  0.00    -0.075 NA
HETATM    3  C7  UNL     1      25.196  -0.169  53.676  1.00  0.00     0.133 C 
HETATM    4  C8  UNL     1      24.132  -0.766  54.217  1.00  0.00     0.001 C 
HETATM    5  C9  UNL     1      22.683  -0.729  54.066  1.00  0.00     0.108 C 
HETATM    6  C10 UNL     1      22.186   0.026  52.921  1.00  0.00     0.132 C 
HETATM    7  N5  UNL     1      22.711   0.818  52.062  1.00  0.00    -0.048 NA
ENDROOT
BRANCH   1   8
HETATM    8  N2  UNL     1      24.335   2.243  50.992  1.00  0.00    -0.154 N 
HETATM    9  C5  UNL     1      24.392   3.630  51.377  1.00  0.00     0.266 C 
HETATM   10  O2  UNL     1      24.187   3.841  52.615  1.00  0.00    -0.270 OA
HETATM   11  H5  UNL     1      24.486   1.904  49.995  1.00  0.00     0.187 HD
BRANCH   9  12
HETATM   12  C4  UNL     1      24.681   4.541  50.241  1.00  0.00     0.249 C 
HETATM   13  C1  UNL     1      26.010   4.179  49.632  1.00  0.00     0.182 C 
HETATM   14  O1  UNL     1      26.633   3.069  49.629  1.00  0.00    -0.290 OA
HETATM   15  C2  UNL     1      26.447   5.445  49.017  1.00  0.00     0.069 C 
HETATM   16  C3  UNL     1      25.824   6.438  49.637  1.00  0.00     0.088 C 
HETATM   17  N1  UNL     1      24.968   5.899  50.664  1.00  0.00    -0.380 N 
HETATM   18  H3  UNL     1      24.762   6.589  51.443  1.00  0.00     0.160 HD
ENDBRANCH   9  12
ENDBRANCH   1   8
BRANCH   6  19
HETATM   19  N4  UNL     1      20.790  -0.135  52.677  1.00  0.00    -0.319 N 
HETATM   20  C11 UNL     1      20.028  -0.904  53.579  1.00  0.00     0.094 A 
HETATM   21  C12 UNL     1      18.741  -1.074  53.385  1.00  0.00    -0.004 A 
HETATM   22  C13 UNL     1      18.004  -0.487  52.236  1.00  0.00     0.076 A 
HETATM   23  C14 UNL     1      18.919   0.281  51.391  1.00  0.00     0.008 A 
HETATM   24 BR1  UNL     1      17.981   1.036  49.915  1.00  0.00    -0.054 Br
HETATM   25  C15 UNL     1      20.215   0.491  51.526  1.00  0.00     0.112 A 
ENDBRANCH   6  19
TORSDOF 3
ENDMDL
