MODEL 1
REMARK VINA RESULT:      -8.0      0.000      0.000
REMARK  7 active torsions:
REMARK  status: ('A' for Active; 'I' for Inactive)
REMARK    1  A    between atoms: C2_2  and  C3_3 
REMARK    2  A    between atoms: C2_2  and  N1_5 
REMARK    3  A    between atoms: N1_5  and  C4_6 
REMARK    4  A    between atoms: C4_6  and  C5_7 
REMARK    5  A    between atoms: C4_6  and  C19_24 
REMARK    6  A    between atoms: C9_13  and  N4_14 
REMARK    7  A    between atoms: N4_14  and  C10_15 
ROOT
HETATM    1  C5  UNL     1      25.432   4.045  50.449  1.00  0.00     0.011 C 
HETATM    2  C6  UNL     1      24.367   3.283  50.233  1.00  0.00     0.006 A 
HETATM    3  C7  UNL     1      23.636   3.574  48.974  1.00  0.00     0.192 A 
HETATM    4  N2  UNL     1      22.508   2.657  48.894  1.00  0.00    -0.278 NA
HETATM    5  C8  UNL     1      22.248   1.774  49.793  1.00  0.00     0.229 A 
HETATM    6  N3  UNL     1      22.975   1.512  51.007  1.00  0.00    -0.224 NA
HETATM    7  C9  UNL     1      24.018   2.263  51.215  1.00  0.00     0.137 A 
ENDROOT
BRANCH   7   8
HETATM    8  N4  UNL     1      24.800   2.076  52.393  1.00  0.00    -0.344 N 
HETATM    9  H10 UNL     1      24.535   2.579  53.263  1.00  0.00     0.167 HD
BRANCH   8  10
HETATM   10  C10 UNL     1      25.943   1.193  52.354  1.00  0.00     0.011 C 
HETATM   11  C11 UNL     1      25.570  -0.090  52.533  1.00  0.00     0.025 C 
HETATM   12  C12 UNL     1      26.530  -1.220  52.542  1.00  0.00    -0.001 C 
HETATM   13  C13 UNL     1      27.784  -1.103  53.022  1.00  0.00    -0.018 C 
HETATM   14  C14 UNL     1      28.483   0.041  53.607  1.00  0.00    -0.030 C 
HETATM   15  C15 UNL     1      29.969  -0.354  53.685  1.00  0.00     0.019 C 
HETATM   16  C16 UNL     1      28.066   0.106  55.091  1.00  0.00     0.019 C 
HETATM   17  C17 UNL     1      28.385   1.355  52.985  1.00  0.00     0.019 C 
HETATM   18  C18 UNL     1      27.274   1.758  52.133  1.00  0.00     0.058 C 
ENDBRANCH   8  10
ENDBRANCH   7   8
BRANCH   1  19
HETATM   19  C4  UNL     1      25.837   5.098  49.492  1.00  0.00     0.105 C 
BRANCH  19  20
HETATM   20  N1  UNL     1      26.135   6.352  50.196  1.00  0.00    -0.380 N 
HETATM   21  H4  UNL     1      27.067   6.439  50.673  1.00  0.00     0.160 HD
BRANCH  20  22
HETATM   22  C2  UNL     1      25.265   7.488  50.301  1.00  0.00     0.057 C 
HETATM   23  C1  UNL     1      24.096   7.334  50.938  1.00  0.00     0.046 C 
BRANCH  22  24
HETATM   24  C3  UNL     1      25.725   8.741  49.698  1.00  0.00     0.286 C 
HETATM   25  O1  UNL     1      26.420   9.589  50.331  1.00  0.00    -0.300 OA
ENDBRANCH  22  24
ENDBRANCH  20  22
ENDBRANCH  19  20
BRANCH  19  26
HETATM   26  C19 UNL     1      27.183   4.654  48.915  1.00  0.00     0.024 C 
HETATM   27  C20 UNL     1      27.846   5.906  48.346  1.00  0.00     0.007 C 
ENDBRANCH  19  26
ENDBRANCH   1  19
TORSDOF 7
ENDMDL
MODEL 2
REMARK VINA RESULT:      -7.9      1.760      2.176
REMARK  7 active torsions:
REMARK  status: ('A' for Active; 'I' for Inactive)
REMARK    1  A    between atoms: C2_2  and  C3_3 
REMARK    2  A    between atoms: C2_2  and  N1_5 
REMARK    3  A    between atoms: N1_5  and  C4_6 
REMARK    4  A    between atoms: C4_6  and  C5_7 
REMARK    5  A    between atoms: C4_6  and  C19_24 
REMARK    6  A    between atoms: C9_13  and  N4_14 
REMARK    7  A    between atoms: N4_14  and  C10_15 
ROOT
HETATM    1  C5  UNL     1      25.875   4.986  49.940  1.00  0.00     0.011 C 
HETATM    2  C6  UNL     1      24.550   4.913  49.891  1.00  0.00     0.006 A 
HETATM    3  C7  UNL     1      23.934   5.538  48.693  1.00  0.00     0.192 A 
HETATM    4  N2  UNL     1      22.492   5.371  48.798  1.00  0.00    -0.278 NA
HETATM    5  C8  UNL     1      21.918   4.776  49.783  1.00  0.00     0.229 A 
HETATM    6  N3  UNL     1      22.540   4.177  50.935  1.00  0.00    -0.224 NA
HETATM    7  C9  UNL     1      23.839   4.251  50.979  1.00  0.00     0.137 A 
ENDROOT
BRANCH   7   8
HETATM    8  N4  UNL     1      24.542   3.686  52.082  1.00  0.00    -0.344 N 
HETATM    9  H10 UNL     1      24.901   4.312  52.830  1.00  0.00     0.167 HD
BRANCH   8  10
HETATM   10  C10 UNL     1      24.742   2.256  52.140  1.00  0.00     0.011 C 
HETATM   11  C11 UNL     1      23.859   1.678  52.979  1.00  0.00     0.025 C 
HETATM   12  C12 UNL     1      23.826   0.218  53.240  1.00  0.00    -0.001 C 
HETATM   13  C13 UNL     1      24.938  -0.544  53.251  1.00  0.00    -0.018 C 
HETATM   14  C14 UNL     1      26.342  -0.192  53.034  1.00  0.00    -0.030 C 
HETATM   15  C15 UNL     1      27.100  -1.523  52.874  1.00  0.00     0.019 C 
HETATM   16  C16 UNL     1      26.877   0.351  54.375  1.00  0.00     0.019 C 
HETATM   17  C17 UNL     1      26.713   0.688  51.934  1.00  0.00     0.019 C 
HETATM   18  C18 UNL     1      25.800   1.650  51.332  1.00  0.00     0.058 C 
ENDBRANCH   8  10
ENDBRANCH   7   8
BRANCH   1  19
HETATM   19  C4  UNL     1      26.653   5.645  48.869  1.00  0.00     0.105 C 
BRANCH  19  20
HETATM   20  N1  UNL     1      27.265   6.886  49.363  1.00  0.00    -0.380 N 
HETATM   21  H4  UNL     1      28.126   6.806  49.960  1.00  0.00     0.160 HD
BRANCH  20  22
HETATM   22  C2  UNL     1      26.796   8.218  49.107  1.00  0.00     0.057 C 
HETATM   23  C1  UNL     1      26.120   8.444  47.973  1.00  0.00     0.046 C 
BRANCH  22  24
HETATM   24  C3  UNL     1      27.095   9.237  50.115  1.00  0.00     0.286 C 
HETATM   25  O1  UNL     1      27.274  10.456  49.821  1.00  0.00    -0.300 OA
ENDBRANCH  22  24
ENDBRANCH  20  22
ENDBRANCH  19  20
BRANCH  19  26
HETATM   26  C19 UNL     1      27.839   4.723  48.576  1.00  0.00     0.024 C 
HETATM   27  C20 UNL     1      29.012   5.629  48.207  1.00  0.00     0.007 C 
ENDBRANCH  19  26
ENDBRANCH   1  19
TORSDOF 7
ENDMDL
MODEL 3
REMARK VINA RESULT:      -7.7      2.708      6.881
REMARK  7 active torsions:
REMARK  status: ('A' for Active; 'I' for Inactive)
REMARK    1  A    between atoms: C2_2  and  C3_3 
REMARK    2  A    between atoms: C2_2  and  N1_5 
REMARK    3  A    between atoms: N1_5  and  C4_6 
REMARK    4  A    between atoms: C4_6  and  C5_7 
REMARK    5  A    between atoms: C4_6  and  C19_24 
REMARK    6  A    between atoms: C9_13  and  N4_14 
REMARK    7  A    between atoms: N4_14  and  C10_15 
ROOT
HETATM    1  C5  UNL     1      25.659   0.969  52.809  1.00  0.00     0.011 C 
HETATM    2  C6  UNL     1      25.654   1.996  51.969  1.00  0.00     0.006 A 
HETATM    3  C7  UNL     1      26.808   2.046  51.035  1.00  0.00     0.192 A 
HETATM    4  N2  UNL     1      26.646   3.223  50.193  1.00  0.00    -0.278 NA
HETATM    5  C8  UNL     1      25.654   4.035  50.294  1.00  0.00     0.229 A 
HETATM    6  N3  UNL     1      24.545   3.963  51.209  1.00  0.00    -0.224 NA
HETATM    7  C9  UNL     1      24.555   2.954  52.032  1.00  0.00     0.137 A 
ENDROOT
BRANCH   7   8
HETATM    8  N4  UNL     1      23.497   2.800  52.975  1.00  0.00    -0.344 N 
HETATM    9  H10 UNL     1      23.654   3.082  53.963  1.00  0.00     0.167 HD
BRANCH   8  10
HETATM   10  C10 UNL     1      22.231   2.258  52.540  1.00  0.00     0.011 C 
HETATM   11  C11 UNL     1      22.198   0.919  52.700  1.00  0.00     0.025 C 
HETATM   12  C12 UNL     1      21.024   0.088  52.338  1.00  0.00    -0.001 C 
HETATM   13  C13 UNL     1      20.220   0.381  51.297  1.00  0.00    -0.018 C 
HETATM   14  C14 UNL     1      20.266   1.479  50.330  1.00  0.00    -0.030 C 
HETATM   15  C15 UNL     1      18.924   1.448  49.578  1.00  0.00     0.019 C 
HETATM   16  C16 UNL     1      21.281   1.072  49.243  1.00  0.00     0.019 C 
HETATM   17  C17 UNL     1      20.512   2.842  50.783  1.00  0.00     0.019 C 
HETATM   18  C18 UNL     1      21.206   3.163  52.023  1.00  0.00     0.058 C 
ENDBRANCH   8  10
ENDBRANCH   7   8
BRANCH   1  19
HETATM   19  C4  UNL     1      26.744  -0.036  52.795  1.00  0.00     0.105 C 
BRANCH  19  20
HETATM   20  N1  UNL     1      27.576   0.084  54.001  1.00  0.00    -0.380 N 
HETATM   21  H4  UNL     1      27.116  -0.069  54.933  1.00  0.00     0.160 HD
BRANCH  20  22
HETATM   22  C2  UNL     1      28.976   0.397  54.033  1.00  0.00     0.057 C 
HETATM   23  C1  UNL     1      29.849  -0.583  53.762  1.00  0.00     0.046 C 
BRANCH  22  24
HETATM   24  C3  UNL     1      29.347   1.775  54.362  1.00  0.00     0.286 C 
HETATM   25  O1  UNL     1      28.609   2.765  54.084  1.00  0.00    -0.300 OA
ENDBRANCH  22  24
ENDBRANCH  20  22
ENDBRANCH  19  20
BRANCH  19  26
HETATM   26  C19 UNL     1      26.065  -1.400  52.933  1.00  0.00     0.024 C 
HETATM   27  C20 UNL     1      26.985  -2.414  52.259  1.00  0.00     0.007 C 
ENDBRANCH  19  26
ENDBRANCH   1  19
TORSDOF 7
ENDMDL
MODEL 4
REMARK VINA RESULT:      -7.4      1.816      2.006
REMARK  7 active torsions:
REMARK  status: ('A' for Active; 'I' for Inactive)
REMARK    1  A    between atoms: C2_2  and  C3_3 
REMARK    2  A    between atoms: C2_2  and  N1_5 
REMARK    3  A    between atoms: N1_5  and  C4_6 
REMARK    4  A    between atoms: C4_6  and  C5_7 
REMARK    5  A    between atoms: C4_6  and  C19_24 
REMARK    6  A    between atoms: C9_13  and  N4_14 
REMARK    7  A    between atoms: N4_14  and  C10_15 
ROOT
HETATM    1  C5  UNL     1      24.646   3.140  50.636  1.00  0.00     0.011 C 
HETATM    2  C6  UNL     1      23.608   2.316  50.698  1.00  0.00     0.006 A 
HETATM    3  C7  UNL     1      22.668   2.407  49.551  1.00  0.00     0.192 A 
HETATM    4  N2  UNL     1      21.599   1.445  49.776  1.00  0.00    -0.278 NA
HETATM    5  C8  UNL     1      21.540   0.681  50.810  1.00  0.00     0.229 A 
HETATM    6  N3  UNL     1      22.466   0.612  51.909  1.00  0.00    -0.224 NA
HETATM    7  C9  UNL     1      23.483   1.423  51.845  1.00  0.00     0.137 A 
ENDROOT
BRANCH   7   8
HETATM    8  N4  UNL     1      24.453   1.426  52.889  1.00  0.00    -0.344 N 
HETATM    9  H10 UNL     1      24.240   1.922  53.778  1.00  0.00     0.167 HD
BRANCH   8  10
HETATM   10  C10 UNL     1      25.709   0.741  52.693  1.00  0.00     0.011 C 
HETATM   11  C11 UNL     1      25.578  -0.583  52.913  1.00  0.00     0.025 C 
HETATM   12  C12 UNL     1      26.703  -1.542  52.788  1.00  0.00    -0.001 C 
HETATM   13  C13 UNL     1      27.974  -1.214  53.098  1.00  0.00    -0.018 C 
HETATM   14  C14 UNL     1      28.547   0.039  53.591  1.00  0.00    -0.030 C 
HETATM   15  C15 UNL     1      30.074  -0.108  53.468  1.00  0.00     0.019 C 
HETATM   16  C16 UNL     1      28.324   0.058  55.117  1.00  0.00     0.019 C 
HETATM   17  C17 UNL     1      28.153   1.308  52.995  1.00  0.00     0.019 C 
HETATM   18  C18 UNL     1      26.889   1.512  52.301  1.00  0.00     0.058 C 
ENDBRANCH   8  10
ENDBRANCH   7   8
BRANCH   1  19
HETATM   19  C4  UNL     1      24.829   4.070  49.500  1.00  0.00     0.105 C 
BRANCH  19  20
HETATM   20  N1  UNL     1      24.455   5.438  49.885  1.00  0.00    -0.380 N 
HETATM   21  H4  UNL     1      25.191   6.041  50.330  1.00  0.00     0.160 HD
BRANCH  20  22
HETATM   22  C2  UNL     1      23.165   6.041  49.711  1.00  0.00     0.057 C 
HETATM   23  C1  UNL     1      22.776   6.357  48.468  1.00  0.00     0.046 C 
BRANCH  22  24
HETATM   24  C3  UNL     1      22.365   6.268  50.917  1.00  0.00     0.286 C 
HETATM   25  O1  UNL     1      21.912   5.321  51.624  1.00  0.00    -0.300 OA
ENDBRANCH  22  24
ENDBRANCH  20  22
ENDBRANCH  19  20
BRANCH  19  26
HETATM   26  C19 UNL     1      26.336   4.141  49.246  1.00  0.00     0.024 C 
HETATM   27  C20 UNL     1      26.636   5.572  48.805  1.00  0.00     0.007 C 
ENDBRANCH  19  26
ENDBRANCH   1  19
TORSDOF 7
ENDMDL
MODEL 5
REMARK VINA RESULT:      -7.3      2.679      4.354
REMARK  7 active torsions:
REMARK  status: ('A' for Active; 'I' for Inactive)
REMARK    1  A    between atoms: C2_2  and  C3_3 
REMARK    2  A    between atoms: C2_2  and  N1_5 
REMARK    3  A    between atoms: N1_5  and  C4_6 
REMARK    4  A    between atoms: C4_6  and  C5_7 
REMARK    5  A    between atoms: C4_6  and  C19_24 
REMARK    6  A    between atoms: C9_13  and  N4_14 
REMARK    7  A    between atoms: N4_14  and  C10_15 
ROOT
HETATM    1  C5  UNL     1      22.578   0.932  51.430  1.00  0.00     0.011 C 
HETATM    2  C6  UNL     1      22.227   0.395  52.592  1.00  0.00     0.006 A 
HETATM    3  C7  UNL     1      20.831   0.677  53.014  1.00  0.00     0.192 A 
HETATM    4  N2  UNL     1      20.615   0.021  54.296  1.00  0.00    -0.278 NA
HETATM    5  C8  UNL     1      21.518  -0.666  54.901  1.00  0.00     0.229 A 
HETATM    6  N3  UNL     1      22.867  -0.925  54.469  1.00  0.00    -0.224 NA
HETATM    7  C9  UNL     1      23.206  -0.396  53.329  1.00  0.00     0.137 A 
ENDROOT
BRANCH   7   8
HETATM    8  N4  UNL     1      24.523  -0.598  52.820  1.00  0.00    -0.344 N 
HETATM    9  H10 UNL     1      24.715  -1.429  52.226  1.00  0.00     0.167 HD
BRANCH   8  10
HETATM   10  C10 UNL     1      25.562   0.353  53.140  1.00  0.00     0.011 C 
HETATM   11  C11 UNL     1      25.988   0.994  52.033  1.00  0.00     0.025 C 
HETATM   12  C12 UNL     1      27.052   2.028  52.053  1.00  0.00    -0.001 C 
HETATM   13  C13 UNL     1      28.092   1.983  52.909  1.00  0.00    -0.018 C 
HETATM   14  C14 UNL     1      28.437   1.011  53.948  1.00  0.00    -0.030 C 
HETATM   15  C15 UNL     1      29.561   1.652  54.782  1.00  0.00     0.019 C 
HETATM   16  C16 UNL     1      29.155  -0.158  53.242  1.00  0.00     0.019 C 
HETATM   17  C17 UNL     1      27.410   0.516  54.855  1.00  0.00     0.019 C 
HETATM   18  C18 UNL     1      25.990   0.501  54.530  1.00  0.00     0.058 C 
ENDBRANCH   8  10
ENDBRANCH   7   8
BRANCH   1  19
HETATM   19  C4  UNL     1      21.631   1.744  50.636  1.00  0.00     0.105 C 
BRANCH  19  20
HETATM   20  N1  UNL     1      22.262   2.999  50.203  1.00  0.00    -0.380 N 
HETATM   21  H4  UNL     1      22.240   3.232  49.179  1.00  0.00     0.160 HD
BRANCH  20  22
HETATM   22  C2  UNL     1      22.918   3.951  51.053  1.00  0.00     0.057 C 
HETATM   23  C1  UNL     1      22.204   4.520  52.034  1.00  0.00     0.046 C 
BRANCH  22  24
HETATM   24  C3  UNL     1      24.329   4.232  50.780  1.00  0.00     0.286 C 
HETATM   25  O1  UNL     1      24.929   3.784  49.759  1.00  0.00    -0.300 OA
ENDBRANCH  22  24
ENDBRANCH  20  22
ENDBRANCH  19  20
BRANCH  19  26
HETATM   26  C19 UNL     1      21.389   0.970  49.339  1.00  0.00     0.024 C 
HETATM   27  C20 UNL     1      22.070   1.763  48.225  1.00  0.00     0.007 C 
ENDBRANCH  19  26
ENDBRANCH   1  19
TORSDOF 7
ENDMDL
MODEL 6
REMARK VINA RESULT:      -7.3      3.796      7.566
REMARK  7 active torsions:
REMARK  status: ('A' for Active; 'I' for Inactive)
REMARK    1  A    between atoms: C2_2  and  C3_3 
REMARK    2  A    between atoms: C2_2  and  N1_5 
REMARK    3  A    between atoms: N1_5  and  C4_6 
REMARK    4  A    between atoms: C4_6  and  C5_7 
REMARK    5  A    between atoms: C4_6  and  C19_24 
REMARK    6  A    between atoms: C9_13  and  N4_14 
REMARK    7  A    between atoms: N4_14  and  C10_15 
ROOT
HETATM    1  C5  UNL     1      25.036  -0.036  53.284  1.00  0.00     0.011 C 
HETATM    2  C6  UNL     1      23.862  -0.423  53.766  1.00  0.00     0.006 A 
HETATM    3  C7  UNL     1      23.931  -1.227  55.012  1.00  0.00     0.192 A 
HETATM    4  N2  UNL     1      22.569  -1.564  55.399  1.00  0.00    -0.278 NA
HETATM    5  C8  UNL     1      21.533  -1.198  54.732  1.00  0.00     0.229 A 
HETATM    6  N3  UNL     1      21.492  -0.416  53.523  1.00  0.00    -0.224 NA
HETATM    7  C9  UNL     1      22.647  -0.040  53.055  1.00  0.00     0.137 A 
ENDROOT
BRANCH   7   8
HETATM    8  N4  UNL     1      22.706   0.738  51.861  1.00  0.00    -0.344 N 
HETATM    9  H10 UNL     1      23.007   0.285  50.975  1.00  0.00     0.167 HD
BRANCH   8  10
HETATM   10  C10 UNL     1      22.348   2.137  51.907  1.00  0.00     0.011 C 
HETATM   11  C11 UNL     1      21.117   2.337  51.396  1.00  0.00     0.025 C 
HETATM   12  C12 UNL     1      20.482   3.676  51.310  1.00  0.00    -0.001 C 
HETATM   13  C13 UNL     1      21.190   4.802  51.089  1.00  0.00    -0.018 C 
HETATM   14  C14 UNL     1      22.625   5.008  50.892  1.00  0.00    -0.030 C 
HETATM   15  C15 UNL     1      22.860   6.526  50.988  1.00  0.00     0.019 C 
HETATM   16  C16 UNL     1      22.917   4.708  49.407  1.00  0.00     0.019 C 
HETATM   17  C17 UNL     1      23.586   4.334  51.755  1.00  0.00     0.019 C 
HETATM   18  C18 UNL     1      23.296   3.098  52.469  1.00  0.00     0.058 C 
ENDBRANCH   8  10
ENDBRANCH   7   8
BRANCH   1  19
HETATM   19  C4  UNL     1      26.304  -0.393  53.958  1.00  0.00     0.105 C 
BRANCH  19  20
HETATM   20  N1  UNL     1      27.390  -0.535  52.978  1.00  0.00    -0.380 N 
HETATM   21  H4  UNL     1      27.165  -0.358  51.967  1.00  0.00     0.160 HD
BRANCH  20  22
HETATM   22  C2  UNL     1      28.746  -0.901  53.269  1.00  0.00     0.057 C 
HETATM   23  C1  UNL     1      29.576   0.052  53.715  1.00  0.00     0.046 C 
BRANCH  22  24
HETATM   24  C3  UNL     1      29.123  -2.299  53.053  1.00  0.00     0.286 C 
HETATM   25  O1  UNL     1      28.376  -3.267  53.382  1.00  0.00    -0.300 OA
ENDBRANCH  22  24
ENDBRANCH  20  22
ENDBRANCH  19  20
BRANCH  19  26
HETATM   26  C19 UNL     1      26.700   0.827  54.793  1.00  0.00     0.024 C 
HETATM   27  C20 UNL     1      26.504   2.049  53.899  1.00  0.00     0.007 C 
ENDBRANCH  19  26
ENDBRANCH   1  19
TORSDOF 7
ENDMDL
MODEL 7
REMARK VINA RESULT:      -7.3      3.461      7.081
REMARK  7 active torsions:
REMARK  status: ('A' for Active; 'I' for Inactive)
REMARK    1  A    between atoms: C2_2  and  C3_3 
REMARK    2  A    between atoms: C2_2  and  N1_5 
REMARK    3  A    between atoms: N1_5  and  C4_6 
REMARK    4  A    between atoms: C4_6  and  C5_7 
REMARK    5  A    between atoms: C4_6  and  C19_24 
REMARK    6  A    between atoms: C9_13  and  N4_14 
REMARK    7  A    between atoms: N4_14  and  C10_15 
ROOT
HETATM    1  C5  UNL     1      23.906   0.681  52.174  1.00  0.00     0.011 C 
HETATM    2  C6  UNL     1      22.745   0.324  52.707  1.00  0.00     0.006 A 
HETATM    3  C7  UNL     1      22.806  -0.060  54.140  1.00  0.00     0.192 A 
HETATM    4  N2  UNL     1      21.460  -0.419  54.561  1.00  0.00    -0.278 NA
HETATM    5  C8  UNL     1      20.441  -0.387  53.777  1.00  0.00     0.229 A 
HETATM    6  N3  UNL     1      20.408  -0.010  52.388  1.00  0.00    -0.224 NA
HETATM    7  C9  UNL     1      21.550   0.339  51.870  1.00  0.00     0.137 A 
ENDROOT
BRANCH   7   8
HETATM    8  N4  UNL     1      21.615   0.729  50.500  1.00  0.00    -0.344 N 
HETATM    9  H10 UNL     1      21.625  -0.005  49.764  1.00  0.00     0.167 HD
BRANCH   8  10
HETATM   10  C10 UNL     1      21.666   2.133  50.163  1.00  0.00     0.011 C 
HETATM   11  C11 UNL     1      22.753   2.411  49.414  1.00  0.00     0.025 C 
HETATM   12  C12 UNL     1      23.069   3.773  48.919  1.00  0.00    -0.001 C 
HETATM   13  C13 UNL     1      22.777   4.887  49.620  1.00  0.00    -0.018 C 
HETATM   14  C14 UNL     1      22.136   5.057  50.925  1.00  0.00    -0.030 C 
HETATM   15  C15 UNL     1      21.809   6.555  51.053  1.00  0.00     0.019 C 
HETATM   16  C16 UNL     1      23.234   4.851  51.989  1.00  0.00     0.019 C 
HETATM   17  C17 UNL     1      20.942   4.291  51.259  1.00  0.00     0.019 C 
HETATM   18  C18 UNL     1      20.604   3.019  50.635  1.00  0.00     0.058 C 
ENDBRANCH   8  10
ENDBRANCH   7   8
BRANCH   1  19
HETATM   19  C4  UNL     1      25.153   0.687  52.970  1.00  0.00     0.105 C 
BRANCH  19  20
HETATM   20  N1  UNL     1      26.230  -0.007  52.250  1.00  0.00    -0.380 N 
HETATM   21  H4  UNL     1      26.356   0.206  51.230  1.00  0.00     0.160 HD
BRANCH  20  22
HETATM   22  C2  UNL     1      27.140  -0.964  52.812  1.00  0.00     0.057 C 
HETATM   23  C1  UNL     1      26.994  -2.252  52.470  1.00  0.00     0.046 C 
BRANCH  22  24
HETATM   24  C3  UNL     1      28.167  -0.457  53.723  1.00  0.00     0.286 C 
HETATM   25  O1  UNL     1      27.968  -0.316  54.966  1.00  0.00    -0.300 OA
ENDBRANCH  22  24
ENDBRANCH  20  22
ENDBRANCH  19  20
BRANCH  19  26
HETATM   26  C19 UNL     1      25.613   2.145  53.032  1.00  0.00     0.024 C 
HETATM   27  C20 UNL     1      26.151   2.491  51.646  1.00  0.00     0.007 C 
ENDBRANCH  19  26
ENDBRANCH   1  19
TORSDOF 7
ENDMDL
MODEL 8
REMARK VINA RESULT:      -7.3      4.351      6.770
REMARK  7 active torsions:
REMARK  status: ('A' for Active; 'I' for Inactive)
REMARK    1  A    between atoms: C2_2  and  C3_3 
REMARK    2  A    between atoms: C2_2  and  N1_5 
REMARK    3  A    between atoms: N1_5  and  C4_6 
REMARK    4  A    between atoms: C4_6  and  C5_7 
REMARK    5  A    between atoms: C4_6  and  C19_24 
REMARK    6  A    between atoms: C9_13  and  N4_14 
REMARK    7  A    between atoms: N4_14  and  C10_15 
ROOT
HETATM    1  C5  UNL     1      21.570   1.147  52.543  1.00  0.00     0.011 C 
HETATM    2  C6  UNL     1      21.713   2.356  52.015  1.00  0.00     0.006 A 
HETATM    3  C7  UNL     1      20.554   3.265  52.212  1.00  0.00     0.192 A 
HETATM    4  N2  UNL     1      20.875   4.535  51.577  1.00  0.00    -0.278 NA
HETATM    5  C8  UNL     1      21.985   4.763  50.970  1.00  0.00     0.229 A 
HETATM    6  N3  UNL     1      23.095   3.863  50.793  1.00  0.00    -0.224 NA
HETATM    7  C9  UNL     1      22.950   2.678  51.313  1.00  0.00     0.137 A 
ENDROOT
BRANCH   7   8
HETATM    8  N4  UNL     1      23.997   1.718  51.188  1.00  0.00    -0.344 N 
HETATM    9  H10 UNL     1      23.929   0.986  50.453  1.00  0.00     0.167 HD
BRANCH   8  10
HETATM   10  C10 UNL     1      25.129   1.782  52.083  1.00  0.00     0.011 C 
HETATM   11  C11 UNL     1      26.227   2.232  51.443  1.00  0.00     0.025 C 
HETATM   12  C12 UNL     1      27.541   2.401  52.109  1.00  0.00    -0.001 C 
HETATM   13  C13 UNL     1      27.966   1.586  53.096  1.00  0.00    -0.018 C 
HETATM   14  C14 UNL     1      27.326   0.430  53.725  1.00  0.00    -0.030 C 
HETATM   15  C15 UNL     1      28.159   0.105  54.978  1.00  0.00     0.019 C 
HETATM   16  C16 UNL     1      27.597  -0.780  52.807  1.00  0.00     0.019 C 
HETATM   17  C17 UNL     1      25.921   0.488  54.104  1.00  0.00     0.019 C 
HETATM   18  C18 UNL     1      24.957   1.384  53.480  1.00  0.00     0.058 C 
ENDBRANCH   8  10
ENDBRANCH   7   8
BRANCH   1  19
HETATM   19  C4  UNL     1      20.339   0.760  53.267  1.00  0.00     0.105 C 
BRANCH  19  20
HETATM   20  N1  UNL     1      19.710  -0.406  52.632  1.00  0.00    -0.380 N 
HETATM   21  H4  UNL     1      20.310  -1.249  52.447  1.00  0.00     0.160 HD
BRANCH  20  22
HETATM   22  C2  UNL     1      18.336  -0.510  52.232  1.00  0.00     0.057 C 
HETATM   23  C1  UNL     1      17.960   0.097  51.098  1.00  0.00     0.046 C 
BRANCH  22  24
HETATM   24  C3  UNL     1      17.442  -1.279  53.100  1.00  0.00     0.286 C 
HETATM   25  O1  UNL     1      16.296  -1.668  52.728  1.00  0.00    -0.300 OA
ENDBRANCH  22  24
ENDBRANCH  20  22
ENDBRANCH  19  20
BRANCH  19  26
HETATM   26  C19 UNL     1      20.793   0.251  54.637  1.00  0.00     0.024 C 
HETATM   27  C20 UNL     1      21.506  -1.077  54.393  1.00  0.00     0.007 C 
ENDBRANCH  19  26
ENDBRANCH   1  19
TORSDOF 7
ENDMDL
MODEL 9
REMARK VINA RESULT:      -7.2      2.022      3.226
REMARK  7 active torsions:
REMARK  status: ('A' for Active; 'I' for Inactive)
REMARK    1  A    between atoms: C2_2  and  C3_3 
REMARK    2  A    between atoms: C2_2  and  N1_5 
REMARK    3  A    between atoms: N1_5  and  C4_6 
REMARK    4  A    between atoms: C4_6  and  C5_7 
REMARK    5  A    between atoms: C4_6  and  C19_24 
REMARK    6  A    between atoms: C9_13  and  N4_14 
REMARK    7  A    between atoms: N4_14  and  C10_15 
ROOT
HETATM    1  C5  UNL     1      25.974   4.788  49.567  1.00  0.00     0.011 C 
HETATM    2  C6  UNL     1      24.753   4.313  49.358  1.00  0.00     0.006 A 
HETATM    3  C7  UNL     1      23.921   5.114  48.425  1.00  0.00     0.192 A 
HETATM    4  N2  UNL     1      22.626   4.458  48.310  1.00  0.00    -0.278 NA
HETATM    5  C8  UNL     1      22.322   3.377  48.937  1.00  0.00     0.229 A 
HETATM    6  N3  UNL     1      23.149   2.618  49.838  1.00  0.00    -0.224 NA
HETATM    7  C9  UNL     1      24.346   3.089  50.040  1.00  0.00     0.137 A 
ENDROOT
BRANCH   7   8
HETATM    8  N4  UNL     1      25.237   2.404  50.917  1.00  0.00    -0.344 N 
HETATM    9  H10 UNL     1      26.256   2.413  50.714  1.00  0.00     0.167 HD
BRANCH   8  10
HETATM   10  C10 UNL     1      24.706   1.713  52.069  1.00  0.00     0.011 C 
HETATM   11  C11 UNL     1      25.274   0.497  52.208  1.00  0.00     0.025 C 
HETATM   12  C12 UNL     1      24.925  -0.441  53.303  1.00  0.00    -0.001 C 
HETATM   13  C13 UNL     1      23.683  -0.524  53.819  1.00  0.00    -0.018 C 
HETATM   14  C14 UNL     1      22.457   0.203  53.488  1.00  0.00    -0.030 C 
HETATM   15  C15 UNL     1      21.453  -0.110  54.612  1.00  0.00     0.019 C 
HETATM   16  C16 UNL     1      21.838  -0.504  52.265  1.00  0.00     0.019 C 
HETATM   17  C17 UNL     1      22.494   1.646  53.288  1.00  0.00     0.019 C 
HETATM   18  C18 UNL     1      23.693   2.371  52.893  1.00  0.00     0.058 C 
ENDBRANCH   8  10
ENDBRANCH   7   8
BRANCH   1  19
HETATM   19  C4  UNL     1      26.445   6.025  48.906  1.00  0.00     0.105 C 
BRANCH  19  20
HETATM   20  N1  UNL     1      26.588   7.113  49.884  1.00  0.00    -0.380 N 
HETATM   21  H4  UNL     1      27.386   7.059  50.565  1.00  0.00     0.160 HD
BRANCH  20  22
HETATM   22  C2  UNL     1      25.732   8.257  50.005  1.00  0.00     0.057 C 
HETATM   23  C1  UNL     1      24.489   8.071  50.469  1.00  0.00     0.046 C 
BRANCH  22  24
HETATM   24  C3  UNL     1      26.286   9.553  49.607  1.00  0.00     0.286 C 
HETATM   25  O1  UNL     1      27.381   9.996  50.064  1.00  0.00    -0.300 OA
ENDBRANCH  22  24
ENDBRANCH  20  22
ENDBRANCH  19  20
BRANCH  19  26
HETATM   26  C19 UNL     1      27.874   5.741  48.438  1.00  0.00     0.024 C 
HETATM   27  C20 UNL     1      28.347   6.990  47.700  1.00  0.00     0.007 C 
ENDBRANCH  19  26
ENDBRANCH   1  19
TORSDOF 7
ENDMDL
