MODEL 1
REMARK VINA RESULT:      -7.4      0.000      0.000
REMARK  3 active torsions:
REMARK  status: ('A' for Active; 'I' for Inactive)
REMARK    1  A    between atoms: C2_2  and  N1_3 
REMARK    2  A    between atoms: C10_12  and  N3_13 
REMARK    3  A    between atoms: C15_19  and  O1_20 
ROOT
HETATM    1  N1  UNL     1      27.145   0.406  54.485  1.00  0.00     0.117 N 
HETATM    2  C3  UNL     1      27.076   1.446  53.452  1.00  0.00     0.315 C 
HETATM    3  C4  UNL     1      26.162   0.875  52.357  1.00  0.00    -0.007 C 
HETATM    4  C5  UNL     1      26.821  -0.104  51.660  1.00  0.00    -0.012 C 
HETATM    5  C6  UNL     1      26.819  -1.201  52.678  1.00  0.00     0.087 C 
HETATM    6  C7  UNL     1      26.507  -0.812  54.079  1.00  0.00     0.347 C 
HETATM    7  N2  UNL     1      25.121  -0.942  54.474  1.00  0.00    -0.266 NA
HETATM    8  C8  UNL     1      23.973  -0.437  54.067  1.00  0.00     0.115 C 
HETATM    9  C9  UNL     1      23.822   0.560  52.934  1.00  0.00     0.049 C 
HETATM   10  C10 UNL     1      24.704   1.213  52.096  1.00  0.00     0.041 C 
ENDROOT
BRANCH  10  11
HETATM   11  N3  UNL     1      23.892   2.009  51.245  1.00  0.00    -0.350 N 
HETATM   12  C11 UNL     1      22.694   1.302  50.837  1.00  0.00     0.154 C 
HETATM   13  C12 UNL     1      22.129   1.862  49.602  1.00  0.00     0.008 C 
HETATM   14  C13 UNL     1      22.745   2.841  48.941  1.00  0.00    -0.009 C 
HETATM   15 BR1  UNL     1      21.924   3.503  47.336  1.00  0.00    -0.056 Br
HETATM   16  C14 UNL     1      24.022   3.461  49.354  1.00  0.00     0.099 C 
HETATM   17  C15 UNL     1      24.204   3.354  50.836  1.00  0.00     0.225 C 
BRANCH  17  18
HETATM   18  O1  UNL     1      25.433   3.783  51.271  1.00  0.00    -0.376 OA
HETATM   19  H20 UNL     1      25.308   4.606  51.810  1.00  0.00     0.212 HD
ENDBRANCH  17  18
ENDBRANCH  10  11
BRANCH   1  20
HETATM   20  C2  UNL     1      28.471   0.275  54.979  1.00  0.00     0.271 C 
HETATM   21  C1  UNL     1      29.340   1.316  54.265  1.00  0.00     0.037 C 
ENDBRANCH   1  20
TORSDOF 3
ENDMDL
MODEL 2
REMARK VINA RESULT:      -7.4      3.010      3.875
REMARK  3 active torsions:
REMARK  status: ('A' for Active; 'I' for Inactive)
REMARK    1  A    between atoms: C2_2  and  N1_3 
REMARK    2  A    between atoms: C10_12  and  N3_13 
REMARK    3  A    between atoms: C15_19  and  O1_20 
ROOT
HETATM    1  N1  UNL     1      27.144   0.022  53.093  1.00  0.00     0.117 N 
HETATM    2  C3  UNL     1      26.145  -1.018  52.821  1.00  0.00     0.315 C 
HETATM    3  C4  UNL     1      24.919  -0.638  53.665  1.00  0.00    -0.007 C 
HETATM    4  C5  UNL     1      25.165  -0.891  54.989  1.00  0.00    -0.012 C 
HETATM    5  C6  UNL     1      26.118   0.220  55.298  1.00  0.00     0.087 C 
HETATM    6  C7  UNL     1      26.734   0.916  54.137  1.00  0.00     0.347 C 
HETATM    7  N2  UNL     1      26.057   2.113  53.690  1.00  0.00    -0.266 NA
HETATM    8  C8  UNL     1      24.852   2.404  53.240  1.00  0.00     0.115 C 
HETATM    9  C9  UNL     1      23.740   1.393  53.037  1.00  0.00     0.049 C 
HETATM   10  C10 UNL     1      23.636   0.025  53.192  1.00  0.00     0.041 C 
ENDROOT
BRANCH  10  11
HETATM   11  N3  UNL     1      22.298  -0.291  52.835  1.00  0.00    -0.350 N 
HETATM   12  C11 UNL     1      21.997   0.121  51.479  1.00  0.00     0.154 C 
HETATM   13  C12 UNL     1      20.551   0.286  51.271  1.00  0.00     0.008 C 
HETATM   14  C13 UNL     1      19.688   0.145  52.275  1.00  0.00    -0.009 C 
HETATM   15 BR1  UNL     1      17.820   0.381  51.899  1.00  0.00    -0.056 Br
HETATM   16  C14 UNL     1      20.063  -0.182  53.666  1.00  0.00     0.099 C 
HETATM   17  C15 UNL     1      21.350  -0.945  53.700  1.00  0.00     0.225 C 
BRANCH  17  18
HETATM   18  O1  UNL     1      21.830  -1.158  54.968  1.00  0.00    -0.376 OA
HETATM   19  H20 UNL     1      21.563  -0.392  55.539  1.00  0.00     0.212 HD
ENDBRANCH  17  18
ENDBRANCH  10  11
BRANCH   1  20
HETATM   20  C2  UNL     1      28.436  -0.550  53.240  1.00  0.00     0.271 C 
HETATM   21  C1  UNL     1      29.391   0.561  53.688  1.00  0.00     0.037 C 
ENDBRANCH   1  20
TORSDOF 3
ENDMDL
MODEL 3
REMARK VINA RESULT:      -6.9      3.377      6.417
REMARK  3 active torsions:
REMARK  status: ('A' for Active; 'I' for Inactive)
REMARK    1  A    between atoms: C2_2  and  N1_3 
REMARK    2  A    between atoms: C10_12  and  N3_13 
REMARK    3  A    between atoms: C15_19  and  O1_20 
ROOT
HETATM    1  N1  UNL     1      20.698   2.705  52.337  1.00  0.00     0.117 N 
HETATM    2  C3  UNL     1      21.354   1.440  52.688  1.00  0.00     0.315 C 
HETATM    3  C4  UNL     1      22.771   1.539  52.104  1.00  0.00    -0.007 C 
HETATM    4  C5  UNL     1      22.727   1.409  50.740  1.00  0.00    -0.012 C 
HETATM    5  C6  UNL     1      22.138   2.733  50.367  1.00  0.00     0.087 C 
HETATM    6  C7  UNL     1      21.496   3.511  51.460  1.00  0.00     0.347 C 
HETATM    7  N2  UNL     1      22.340   4.485  52.118  1.00  0.00    -0.266 NA
HETATM    8  C8  UNL     1      23.472   4.450  52.793  1.00  0.00     0.115 C 
HETATM    9  C9  UNL     1      24.256   3.188  53.098  1.00  0.00     0.049 C 
HETATM   10  C10 UNL     1      24.062   1.844  52.846  1.00  0.00     0.041 C 
ENDROOT
BRANCH  10  11
HETATM   11  N3  UNL     1      25.195   1.192  53.400  1.00  0.00    -0.350 N 
HETATM   12  C11 UNL     1      26.338   2.080  53.472  1.00  0.00     0.154 C 
HETATM   13  C12 UNL     1      27.602   1.333  53.538  1.00  0.00     0.008 C 
HETATM   14  C13 UNL     1      27.625   0.005  53.446  1.00  0.00    -0.009 C 
HETATM   15 BR1  UNL     1      29.328  -0.877  53.543  1.00  0.00    -0.056 Br
HETATM   16  C14 UNL     1      26.430  -0.847  53.275  1.00  0.00     0.099 C 
HETATM   17  C15 UNL     1      25.219  -0.177  53.846  1.00  0.00     0.225 C 
BRANCH  17  18
HETATM   18  O1  UNL     1      24.049  -0.850  53.594  1.00  0.00    -0.376 OA
HETATM   19  H20 UNL     1      24.257  -1.814  53.488  1.00  0.00     0.212 HD
ENDBRANCH  17  18
ENDBRANCH  10  11
BRANCH   1  20
HETATM   20  C2  UNL     1      19.358   2.477  51.921  1.00  0.00     0.271 C 
HETATM   21  C1  UNL     1      19.141   0.962  51.854  1.00  0.00     0.037 C 
ENDBRANCH   1  20
TORSDOF 3
ENDMDL
MODEL 4
REMARK VINA RESULT:      -6.9      3.403      6.235
REMARK  3 active torsions:
REMARK  status: ('A' for Active; 'I' for Inactive)
REMARK    1  A    between atoms: C2_2  and  N1_3 
REMARK    2  A    between atoms: C10_12  and  N3_13 
REMARK    3  A    between atoms: C15_19  and  O1_20 
ROOT
HETATM    1  N1  UNL     1      20.199   0.311  51.412  1.00  0.00     0.117 N 
HETATM    2  C3  UNL     1      21.433   0.721  50.732  1.00  0.00     0.315 C 
HETATM    3  C4  UNL     1      22.262   1.456  51.796  1.00  0.00    -0.007 C 
HETATM    4  C5  UNL     1      21.715   2.687  52.049  1.00  0.00    -0.012 C 
HETATM    5  C6  UNL     1      20.498   2.282  52.820  1.00  0.00     0.087 C 
HETATM    6  C7  UNL     1      20.098   0.852  52.737  1.00  0.00     0.347 C 
HETATM    7  N2  UNL     1      20.601  -0.004  53.789  1.00  0.00    -0.266 NA
HETATM    8  C8  UNL     1      21.792  -0.351  54.236  1.00  0.00     0.115 C 
HETATM    9  C9  UNL     1      23.106   0.122  53.645  1.00  0.00     0.049 C 
HETATM   10  C10 UNL     1      23.453   0.924  52.575  1.00  0.00     0.041 C 
ENDROOT
BRANCH  10  11
HETATM   11  N3  UNL     1      24.872   0.967  52.585  1.00  0.00    -0.350 N 
HETATM   12  C11 UNL     1      25.447  -0.341  52.336  1.00  0.00     0.154 C 
HETATM   13  C12 UNL     1      26.824  -0.433  52.841  1.00  0.00     0.008 C 
HETATM   14  C13 UNL     1      27.382   0.572  53.515  1.00  0.00    -0.009 C 
HETATM   15 BR1  UNL     1      29.186   0.352  54.133  1.00  0.00    -0.056 Br
HETATM   16  C14 UNL     1      26.711   1.851  53.824  1.00  0.00     0.099 C 
HETATM   17  C15 UNL     1      25.657   2.154  52.806  1.00  0.00     0.225 C 
BRANCH  17  18
HETATM   18  O1  UNL     1      24.898   3.257  53.110  1.00  0.00    -0.376 OA
HETATM   19  H20 UNL     1      24.173   2.979  53.729  1.00  0.00     0.212 HD
ENDBRANCH  17  18
ENDBRANCH  10  11
BRANCH   1  20
HETATM   20  C2  UNL     1      19.071   0.516  50.573  1.00  0.00     0.271 C 
HETATM   21  C1  UNL     1      17.888  -0.241  51.185  1.00  0.00     0.037 C 
ENDBRANCH   1  20
TORSDOF 3
ENDMDL
MODEL 5
REMARK VINA RESULT:      -6.8      3.423      5.187
REMARK  3 active torsions:
REMARK  status: ('A' for Active; 'I' for Inactive)
REMARK    1  A    between atoms: C2_2  and  N1_3 
REMARK    2  A    between atoms: C10_12  and  N3_13 
REMARK    3  A    between atoms: C15_19  and  O1_20 
ROOT
HETATM    1  N1  UNL     1      20.875   0.756  53.386  1.00  0.00     0.117 N 
HETATM    2  C3  UNL     1      22.298   0.590  53.065  1.00  0.00     0.315 C 
HETATM    3  C4  UNL     1      22.522   1.392  51.774  1.00  0.00    -0.007 C 
HETATM    4  C5  UNL     1      21.964   0.732  50.710  1.00  0.00    -0.012 C 
HETATM    5  C6  UNL     1      20.512   0.971  50.982  1.00  0.00     0.087 C 
HETATM    6  C7  UNL     1      20.156   1.437  52.349  1.00  0.00     0.347 C 
HETATM    7  N2  UNL     1      20.046   2.870  52.516  1.00  0.00    -0.266 NA
HETATM    8  C8  UNL     1      20.852   3.902  52.361  1.00  0.00     0.115 C 
HETATM    9  C9  UNL     1      22.302   3.808  51.929  1.00  0.00     0.049 C 
HETATM   10  C10 UNL     1      23.157   2.764  51.632  1.00  0.00     0.041 C 
ENDROOT
BRANCH  10  11
HETATM   11  N3  UNL     1      24.389   3.379  51.284  1.00  0.00    -0.350 N 
HETATM   12  C11 UNL     1      24.197   4.744  50.835  1.00  0.00     0.154 C 
HETATM   13  C12 UNL     1      25.319   5.205  50.007  1.00  0.00     0.008 C 
HETATM   14  C13 UNL     1      26.316   4.387  49.674  1.00  0.00    -0.009 C 
HETATM   15 BR1  UNL     1      27.736   5.088  48.588  1.00  0.00    -0.056 Br
HETATM   16  C14 UNL     1      26.412   2.970  50.082  1.00  0.00     0.099 C 
HETATM   17  C15 UNL     1      25.677   2.740  51.367  1.00  0.00     0.225 C 
BRANCH  17  18
HETATM   18  O1  UNL     1      25.606   1.418  51.730  1.00  0.00    -0.376 OA
HETATM   19  H20 UNL     1      25.849   0.862  50.945  1.00  0.00     0.212 HD
ENDBRANCH  17  18
ENDBRANCH  10  11
BRANCH   1  20
HETATM   20  C2  UNL     1      20.313  -0.473  53.825  1.00  0.00     0.271 C 
HETATM   21  C1  UNL     1      21.421  -1.273  54.518  1.00  0.00     0.037 C 
ENDBRANCH   1  20
TORSDOF 3
ENDMDL
MODEL 6
REMARK VINA RESULT:      -6.7      3.335      6.426
REMARK  3 active torsions:
REMARK  status: ('A' for Active; 'I' for Inactive)
REMARK    1  A    between atoms: C2_2  and  N1_3 
REMARK    2  A    between atoms: C10_12  and  N3_13 
REMARK    3  A    between atoms: C15_19  and  O1_20 
ROOT
HETATM    1  N1  UNL     1      23.246   4.792  51.269  1.00  0.00     0.117 N 
HETATM    2  C3  UNL     1      23.510   4.067  52.517  1.00  0.00     0.315 C 
HETATM    3  C4  UNL     1      24.022   2.684  52.087  1.00  0.00    -0.007 C 
HETATM    4  C5  UNL     1      22.987   1.933  51.594  1.00  0.00    -0.012 C 
HETATM    5  C6  UNL     1      22.769   2.613  50.279  1.00  0.00     0.087 C 
HETATM    6  C7  UNL     1      23.383   3.957  50.111  1.00  0.00     0.347 C 
HETATM    7  N2  UNL     1      24.689   3.978  49.489  1.00  0.00    -0.266 NA
HETATM    8  C8  UNL     1      25.871   3.458  49.758  1.00  0.00     0.115 C 
HETATM    9  C9  UNL     1      26.184   2.610  50.976  1.00  0.00     0.049 C 
HETATM   10  C10 UNL     1      25.459   2.189  52.073  1.00  0.00     0.041 C 
ENDROOT
BRANCH  10  11
HETATM   11  N3  UNL     1      26.361   1.404  52.839  1.00  0.00    -0.350 N 
HETATM   12  C11 UNL     1      27.598   2.115  53.099  1.00  0.00     0.154 C 
HETATM   13  C12 UNL     1      28.698   1.192  53.410  1.00  0.00     0.008 C 
HETATM   14  C13 UNL     1      28.531  -0.128  53.351  1.00  0.00    -0.009 C 
HETATM   15 BR1  UNL     1      30.033  -1.248  53.775  1.00  0.00    -0.056 Br
HETATM   16  C14 UNL     1      27.268  -0.800  52.983  1.00  0.00     0.099 C 
HETATM   17  C15 UNL     1      26.094   0.069  53.309  1.00  0.00     0.225 C 
BRANCH  17  18
HETATM   18  O1  UNL     1      24.897  -0.433  52.863  1.00  0.00    -0.376 OA
HETATM   19  H20 UNL     1      24.563   0.149  52.133  1.00  0.00     0.212 HD
ENDBRANCH  17  18
ENDBRANCH  10  11
BRANCH   1  20
HETATM   20  C2  UNL     1      22.034   5.527  51.362  1.00  0.00     0.271 C 
HETATM   21  C1  UNL     1      22.264   6.893  50.707  1.00  0.00     0.037 C 
ENDBRANCH   1  20
TORSDOF 3
ENDMDL
MODEL 7
REMARK VINA RESULT:      -6.7      3.077      6.374
REMARK  3 active torsions:
REMARK  status: ('A' for Active; 'I' for Inactive)
REMARK    1  A    between atoms: C2_2  and  N1_3 
REMARK    2  A    between atoms: C10_12  and  N3_13 
REMARK    3  A    between atoms: C15_19  and  O1_20 
ROOT
HETATM    1  N1  UNL     1      22.132   3.247  50.142  1.00  0.00     0.117 N 
HETATM    2  C3  UNL     1      22.982   2.050  50.153  1.00  0.00     0.315 C 
HETATM    3  C4  UNL     1      24.351   2.524  50.663  1.00  0.00    -0.007 C 
HETATM    4  C5  UNL     1      24.986   3.254  49.692  1.00  0.00    -0.012 C 
HETATM    5  C6  UNL     1      24.178   4.512  49.735  1.00  0.00     0.087 C 
HETATM    6  C7  UNL     1      22.867   4.442  50.434  1.00  0.00     0.347 C 
HETATM    7  N2  UNL     1      22.876   4.834  51.827  1.00  0.00    -0.266 NA
HETATM    8  C8  UNL     1      23.493   4.426  52.919  1.00  0.00     0.115 C 
HETATM    9  C9  UNL     1      24.465   3.263  52.976  1.00  0.00     0.049 C 
HETATM   10  C10 UNL     1      24.935   2.348  52.054  1.00  0.00     0.041 C 
ENDROOT
BRANCH  10  11
HETATM   11  N3  UNL     1      25.842   1.526  52.773  1.00  0.00    -0.350 N 
HETATM   12  C11 UNL     1      27.117   2.186  52.973  1.00  0.00     0.154 C 
HETATM   13  C12 UNL     1      28.194   1.219  53.228  1.00  0.00     0.008 C 
HETATM   14  C13 UNL     1      27.972  -0.093  53.177  1.00  0.00    -0.009 C 
HETATM   15 BR1  UNL     1      29.447  -1.272  53.525  1.00  0.00    -0.056 Br
HETATM   16  C14 UNL     1      26.666  -0.713  52.871  1.00  0.00     0.099 C 
HETATM   17  C15 UNL     1      25.545   0.202  53.256  1.00  0.00     0.225 C 
BRANCH  17  18
HETATM   18  O1  UNL     1      24.308  -0.252  52.869  1.00  0.00    -0.376 OA
HETATM   19  H20 UNL     1      23.767  -0.424  53.683  1.00  0.00     0.212 HD
ENDBRANCH  17  18
ENDBRANCH  10  11
BRANCH   1  20
HETATM   20  C2  UNL     1      21.331   3.283  48.969  1.00  0.00     0.271 C 
HETATM   21  C1  UNL     1      21.357   1.886  48.341  1.00  0.00     0.037 C 
ENDBRANCH   1  20
TORSDOF 3
ENDMDL
MODEL 8
REMARK VINA RESULT:      -6.7      2.998      6.501
REMARK  3 active torsions:
REMARK  status: ('A' for Active; 'I' for Inactive)
REMARK    1  A    between atoms: C2_2  and  N1_3 
REMARK    2  A    between atoms: C10_12  and  N3_13 
REMARK    3  A    between atoms: C15_19  and  O1_20 
ROOT
HETATM    1  N1  UNL     1      21.252   3.614  50.053  1.00  0.00     0.117 N 
HETATM    2  C3  UNL     1      22.162   2.492  49.792  1.00  0.00     0.315 C 
HETATM    3  C4  UNL     1      23.568   3.026  50.099  1.00  0.00    -0.007 C 
HETATM    4  C5  UNL     1      23.970   3.887  49.111  1.00  0.00    -0.012 C 
HETATM    5  C6  UNL     1      23.107   5.069  49.423  1.00  0.00     0.087 C 
HETATM    6  C7  UNL     1      21.953   4.834  50.331  1.00  0.00     0.347 C 
HETATM    7  N2  UNL     1      22.191   5.100  51.733  1.00  0.00    -0.266 NA
HETATM    8  C8  UNL     1      23.021   4.646  52.652  1.00  0.00     0.115 C 
HETATM    9  C9  UNL     1      24.057   3.563  52.419  1.00  0.00     0.049 C 
HETATM   10  C10 UNL     1      24.406   2.774  51.341  1.00  0.00     0.041 C 
ENDROOT
BRANCH  10  11
HETATM   11  N3  UNL     1      25.479   1.965  51.802  1.00  0.00    -0.350 N 
HETATM   12  C11 UNL     1      25.001   0.834  52.572  1.00  0.00     0.154 C 
HETATM   13  C12 UNL     1      26.043   0.305  53.463  1.00  0.00     0.008 C 
HETATM   14  C13 UNL     1      27.230   0.899  53.567  1.00  0.00    -0.009 C 
HETATM   15 BR1  UNL     1      28.523   0.131  54.761  1.00  0.00    -0.056 Br
HETATM   16  C14 UNL     1      27.630   2.114  52.827  1.00  0.00     0.099 C 
HETATM   17  C15 UNL     1      26.872   2.221  51.541  1.00  0.00     0.225 C 
BRANCH  17  18
HETATM   18  O1  UNL     1      27.090   3.399  50.870  1.00  0.00    -0.376 OA
HETATM   19  H20 UNL     1      27.038   3.221  49.896  1.00  0.00     0.212 HD
ENDBRANCH  17  18
ENDBRANCH  10  11
BRANCH   1  20
HETATM   20  C2  UNL     1      20.249   3.691  49.049  1.00  0.00     0.271 C 
HETATM   21  C1  UNL     1      20.510   2.567  48.040  1.00  0.00     0.037 C 
ENDBRANCH   1  20
TORSDOF 3
ENDMDL
MODEL 9
REMARK VINA RESULT:      -6.7      3.336      6.425
REMARK  3 active torsions:
REMARK  status: ('A' for Active; 'I' for Inactive)
REMARK    1  A    between atoms: C2_2  and  N1_3 
REMARK    2  A    between atoms: C10_12  and  N3_13 
REMARK    3  A    between atoms: C15_19  and  O1_20 
ROOT
HETATM    1  N1  UNL     1      22.943   5.920  50.069  1.00  0.00     0.117 N 
HETATM    2  C3  UNL     1      24.153   5.717  50.875  1.00  0.00     0.315 C 
HETATM    3  C4  UNL     1      23.890   4.443  51.692  1.00  0.00    -0.007 C 
HETATM    4  C5  UNL     1      22.986   4.703  52.689  1.00  0.00    -0.012 C 
HETATM    5  C6  UNL     1      21.732   4.825  51.882  1.00  0.00     0.087 C 
HETATM    6  C7  UNL     1      21.894   5.006  50.415  1.00  0.00     0.347 C 
HETATM    7  N2  UNL     1      21.849   3.795  49.625  1.00  0.00    -0.266 NA
HETATM    8  C8  UNL     1      22.540   2.673  49.575  1.00  0.00     0.115 C 
HETATM    9  C9  UNL     1      23.735   2.357  50.454  1.00  0.00     0.049 C 
HETATM   10  C10 UNL     1      24.427   3.046  51.430  1.00  0.00     0.041 C 
ENDROOT
BRANCH  10  11
HETATM   11  N3  UNL     1      25.447   2.157  51.863  1.00  0.00    -0.350 N 
HETATM   12  C11 UNL     1      24.906   1.071  52.656  1.00  0.00     0.154 C 
HETATM   13  C12 UNL     1      25.931   0.467  53.518  1.00  0.00     0.008 C 
HETATM   14  C13 UNL     1      27.165   0.966  53.579  1.00  0.00    -0.009 C 
HETATM   15 BR1  UNL     1      28.431   0.103  54.737  1.00  0.00    -0.056 Br
HETATM   16  C14 UNL     1      27.635   2.141  52.817  1.00  0.00     0.099 C 
HETATM   17  C15 UNL     1      26.846   2.301  51.555  1.00  0.00     0.225 C 
BRANCH  17  18
HETATM   18  O1  UNL     1      27.135   3.455  50.869  1.00  0.00    -0.376 OA
HETATM   19  H20 UNL     1      26.313   3.761  50.406  1.00  0.00     0.212 HD
ENDBRANCH  17  18
ENDBRANCH  10  11
BRANCH   1  20
HETATM   20  C2  UNL     1      22.582   7.294  50.043  1.00  0.00     0.271 C 
HETATM   21  C1  UNL     1      23.808   8.108  50.469  1.00  0.00     0.037 C 
ENDBRANCH   1  20
TORSDOF 3
ENDMDL
