MODEL 1
REMARK VINA RESULT:      -8.0      0.000      0.000
REMARK  7 active torsions:
REMARK  status: ('A' for Active; 'I' for Inactive)
REMARK    1  A    between atoms: N2_2  and  C1_3 
REMARK    2  A    between atoms: C1_3  and  C2_4 
REMARK    3  A    between atoms: C2_4  and  N3_5 
REMARK    4  A    between atoms: N3_5  and  C3_6 
REMARK    5  A    between atoms: C3_6  and  C4_7 
REMARK    6  A    between atoms: C13_19  and  N6_20 
REMARK    7  A    between atoms: N6_20  and  C14_21 
ROOT
HETATM    1  C1  UNL     1      25.437  -0.166  53.805  1.00  0.00     0.096 C 
HETATM    2  C10 UNL     1      26.525   0.560  53.724  1.00  0.00     0.036 A 
HETATM    3  C11 UNL     1      27.450   0.323  54.858  1.00  0.00     0.195 A 
HETATM    4  N4  UNL     1      28.592   1.181  54.678  1.00  0.00    -0.278 NA
HETATM    5  C12 UNL     1      28.723   1.980  53.683  1.00  0.00     0.229 A 
HETATM    6  N5  UNL     1      27.812   2.188  52.585  1.00  0.00    -0.224 NA
HETATM    7  C13 UNL     1      26.733   1.482  52.617  1.00  0.00     0.139 A 
ENDROOT
BRANCH   1   8
HETATM    8  N2  UNL     1      25.830  -0.788  55.018  1.00  0.00    -0.160 NA
HETATM    9  N1  UNL     1      25.108  -1.406  55.824  1.00  0.00    -0.203 NA
HETATM   10  H1  UNL     1      24.090  -1.586  55.763  1.00  0.00     0.212 HD
ENDBRANCH   1   8
BRANCH   1  11
HETATM   11  C2  UNL     1      24.120  -0.777  53.536  1.00  0.00     0.331 C 
BRANCH  11  12
HETATM   12  N3  UNL     1      23.032   0.108  53.922  1.00  0.00     0.093 N 
HETATM   13  H4  UNL     1      23.233   1.087  53.621  1.00  0.00     0.316 HD
BRANCH  12  14
HETATM   14  C3  UNL     1      21.779  -0.308  53.363  1.00  0.00     0.308 C 
BRANCH  14  15
HETATM   15  C4  UNL     1      21.270   0.668  52.351  1.00  0.00    -0.029 A 
HETATM   16  C5  UNL     1      20.408   1.699  52.726  1.00  0.00     0.009 A 
HETATM   17  C6  UNL     1      19.933   2.611  51.789  1.00  0.00     0.002 A 
HETATM   18  C7  UNL     1      20.336   2.469  50.485  1.00  0.00     0.024 A 
HETATM   19  C8  UNL     1      21.192   1.467  50.041  1.00  0.00     0.034 A 
HETATM   20 CL1  UNL     1      21.672   1.333  48.374  1.00  0.00    -0.084 Cl
HETATM   21  C9  UNL     1      21.619   0.607  51.018  1.00  0.00     0.032 A 
ENDBRANCH  14  15
ENDBRANCH  12  14
ENDBRANCH  11  12
ENDBRANCH   1  11
BRANCH   7  22
HETATM   22  N6  UNL     1      25.786   1.616  51.583  1.00  0.00    -0.340 N 
HETATM   23  H14 UNL     1      25.819   0.887  50.840  1.00  0.00     0.167 HD
BRANCH  22  24
HETATM   24  C14 UNL     1      24.835   2.659  51.538  1.00  0.00     0.035 A 
HETATM   25  C15 UNL     1      24.150   3.247  52.563  1.00  0.00     0.029 A 
HETATM   26  C16 UNL     1      23.242   4.272  52.406  1.00  0.00     0.004 A 
HETATM   27  C17 UNL     1      22.974   4.769  51.148  1.00  0.00     0.024 A 
HETATM   28  C18 UNL     1      23.628   4.225  50.067  1.00  0.00     0.036 A 
HETATM   29 CL2  UNL     1      23.320   4.825  48.452  1.00  0.00    -0.084 Cl
HETATM   30  C19 UNL     1      24.525   3.203  50.289  1.00  0.00     0.053 A 
ENDBRANCH  22  24
ENDBRANCH   7  22
TORSDOF 7
ENDMDL
MODEL 2
REMARK VINA RESULT:      -7.7      1.997      4.308
REMARK  7 active torsions:
REMARK  status: ('A' for Active; 'I' for Inactive)
REMARK    1  A    between atoms: N2_2  and  C1_3 
REMARK    2  A    between atoms: C1_3  and  C2_4 
REMARK    3  A    between atoms: C2_4  and  N3_5 
REMARK    4  A    between atoms: N3_5  and  C3_6 
REMARK    5  A    between atoms: C3_6  and  C4_7 
REMARK    6  A    between atoms: C13_19  and  N6_20 
REMARK    7  A    between atoms: N6_20  and  C14_21 
ROOT
HETATM    1  C1  UNL     1      27.893   1.060  53.698  1.00  0.00     0.096 C 
HETATM    2  C10 UNL     1      28.057  -0.223  53.490  1.00  0.00     0.036 A 
HETATM    3  C11 UNL     1      29.427  -0.681  53.826  1.00  0.00     0.195 A 
HETATM    4  N4  UNL     1      29.500  -2.090  53.542  1.00  0.00    -0.278 NA
HETATM    5  C12 UNL     1      28.511  -2.769  53.087  1.00  0.00     0.229 A 
HETATM    6  N5  UNL     1      27.183  -2.304  52.774  1.00  0.00    -0.224 NA
HETATM    7  C13 UNL     1      26.972  -1.047  52.977  1.00  0.00     0.139 A 
ENDROOT
BRANCH   1   8
HETATM    8  N2  UNL     1      29.223   1.252  54.154  1.00  0.00    -0.160 NA
HETATM    9  N1  UNL     1      29.710   2.278  54.664  1.00  0.00    -0.203 NA
HETATM   10  H1  UNL     1      29.243   3.182  54.855  1.00  0.00     0.212 HD
ENDBRANCH   1   8
BRANCH   1  11
HETATM   11  C2  UNL     1      27.318   2.417  53.786  1.00  0.00     0.331 C 
BRANCH  11  12
HETATM   12  N3  UNL     1      26.256   2.611  52.811  1.00  0.00     0.093 N 
HETATM   13  H4  UNL     1      26.168   1.774  52.195  1.00  0.00     0.316 HD
BRANCH  12  14
HETATM   14  C3  UNL     1      24.993   2.868  53.440  1.00  0.00     0.308 C 
BRANCH  14  15
HETATM   15  C4  UNL     1      23.966   3.329  52.455  1.00  0.00    -0.029 A 
HETATM   16  C5  UNL     1      23.256   4.511  52.667  1.00  0.00     0.009 A 
HETATM   17  C6  UNL     1      22.301   4.945  51.753  1.00  0.00     0.002 A 
HETATM   18  C7  UNL     1      22.077   4.178  50.637  1.00  0.00     0.024 A 
HETATM   19  C8  UNL     1      22.747   2.991  50.362  1.00  0.00     0.034 A 
HETATM   20 CL1  UNL     1      22.423   2.058  48.930  1.00  0.00    -0.084 Cl
HETATM   21  C9  UNL     1      23.672   2.627  51.305  1.00  0.00     0.032 A 
ENDBRANCH  14  15
ENDBRANCH  12  14
ENDBRANCH  11  12
ENDBRANCH   1  11
BRANCH   7  22
HETATM   22  N6  UNL     1      25.702  -0.504  52.703  1.00  0.00    -0.340 N 
HETATM   23  H14 UNL     1      25.628   0.059  51.830  1.00  0.00     0.167 HD
BRANCH  22  24
HETATM   24  C14 UNL     1      24.581  -0.701  53.539  1.00  0.00     0.035 A 
HETATM   25  C15 UNL     1      24.537  -1.107  54.843  1.00  0.00     0.029 A 
HETATM   26  C16 UNL     1      23.379  -1.261  55.572  1.00  0.00     0.004 A 
HETATM   27  C17 UNL     1      22.157  -1.001  54.989  1.00  0.00     0.024 A 
HETATM   28  C18 UNL     1      22.123  -0.588  53.677  1.00  0.00     0.036 A 
HETATM   29 CL2  UNL     1      20.595  -0.247  52.895  1.00  0.00    -0.084 Cl
HETATM   30  C19 UNL     1      23.317  -0.453  53.001  1.00  0.00     0.053 A 
ENDBRANCH  22  24
ENDBRANCH   7  22
TORSDOF 7
ENDMDL
MODEL 3
REMARK VINA RESULT:      -7.7      1.940      2.346
REMARK  7 active torsions:
REMARK  status: ('A' for Active; 'I' for Inactive)
REMARK    1  A    between atoms: N2_2  and  C1_3 
REMARK    2  A    between atoms: C1_3  and  C2_4 
REMARK    3  A    between atoms: C2_4  and  N3_5 
REMARK    4  A    between atoms: N3_5  and  C3_6 
REMARK    5  A    between atoms: C3_6  and  C4_7 
REMARK    6  A    between atoms: C13_19  and  N6_20 
REMARK    7  A    between atoms: N6_20  and  C14_21 
ROOT
HETATM    1  C1  UNL     1      25.747  -0.153  53.797  1.00  0.00     0.096 C 
HETATM    2  C10 UNL     1      26.867   0.527  53.804  1.00  0.00     0.036 A 
HETATM    3  C11 UNL     1      27.628   0.350  55.065  1.00  0.00     0.195 A 
HETATM    4  N4  UNL     1      28.820   1.152  54.973  1.00  0.00    -0.278 NA
HETATM    5  C12 UNL     1      29.113   1.863  53.945  1.00  0.00     0.229 A 
HETATM    6  N5  UNL     1      28.361   2.013  52.725  1.00  0.00    -0.224 NA
HETATM    7  C13 UNL     1      27.256   1.349  52.668  1.00  0.00     0.139 A 
ENDROOT
BRANCH   1   8
HETATM    8  N2  UNL     1      25.953  -0.688  55.094  1.00  0.00    -0.160 NA
HETATM    9  N1  UNL     1      25.126  -1.285  55.810  1.00  0.00    -0.203 NA
HETATM   10  H1  UNL     1      24.137  -1.505  55.598  1.00  0.00     0.212 HD
ENDBRANCH   1   8
BRANCH   1  11
HETATM   11  C2  UNL     1      24.450  -0.739  53.404  1.00  0.00     0.331 C 
BRANCH  11  12
HETATM   12  N3  UNL     1      23.380   0.246  53.462  1.00  0.00     0.093 N 
HETATM   13  H4  UNL     1      23.169   0.613  52.509  1.00  0.00     0.316 HD
BRANCH  12  14
HETATM   14  C3  UNL     1      22.183  -0.298  54.034  1.00  0.00     0.308 C 
BRANCH  14  15
HETATM   15  C4  UNL     1      21.014  -0.161  53.110  1.00  0.00    -0.029 A 
HETATM   16  C5  UNL     1      21.159   0.453  51.866  1.00  0.00     0.009 A 
HETATM   17  C6  UNL     1      20.075   0.582  51.002  1.00  0.00     0.002 A 
HETATM   18  C7  UNL     1      18.861   0.087  51.408  1.00  0.00     0.024 A 
HETATM   19  C8  UNL     1      18.646  -0.536  52.633  1.00  0.00     0.034 A 
HETATM   20 CL1  UNL     1      17.083  -1.144  53.097  1.00  0.00    -0.084 Cl
HETATM   21  C9  UNL     1      19.756  -0.627  53.430  1.00  0.00     0.032 A 
ENDBRANCH  14  15
ENDBRANCH  12  14
ENDBRANCH  11  12
ENDBRANCH   1  11
BRANCH   7  22
HETATM   22  N6  UNL     1      26.456   1.431  51.512  1.00  0.00    -0.340 N 
HETATM   23  H14 UNL     1      26.201   0.523  51.071  1.00  0.00     0.167 HD
BRANCH  22  24
HETATM   24  C14 UNL     1      26.009   2.655  50.968  1.00  0.00     0.035 A 
HETATM   25  C15 UNL     1      26.541   3.393  49.948  1.00  0.00     0.029 A 
HETATM   26  C16 UNL     1      26.016   4.580  49.489  1.00  0.00     0.004 A 
HETATM   27  C17 UNL     1      24.877   5.100  50.067  1.00  0.00     0.024 A 
HETATM   28  C18 UNL     1      24.285   4.411  51.100  1.00  0.00     0.036 A 
HETATM   29 CL2  UNL     1      22.837   5.032  51.864  1.00  0.00    -0.084 Cl
HETATM   30  C19 UNL     1      24.859   3.228  51.514  1.00  0.00     0.053 A 
ENDBRANCH  22  24
ENDBRANCH   7  22
TORSDOF 7
ENDMDL
MODEL 4
REMARK VINA RESULT:      -7.5      3.248      5.515
REMARK  7 active torsions:
REMARK  status: ('A' for Active; 'I' for Inactive)
REMARK    1  A    between atoms: N2_2  and  C1_3 
REMARK    2  A    between atoms: C1_3  and  C2_4 
REMARK    3  A    between atoms: C2_4  and  N3_5 
REMARK    4  A    between atoms: N3_5  and  C3_6 
REMARK    5  A    between atoms: C3_6  and  C4_7 
REMARK    6  A    between atoms: C13_19  and  N6_20 
REMARK    7  A    between atoms: N6_20  and  C14_21 
ROOT
HETATM    1  C1  UNL     1      23.954   4.300  51.371  1.00  0.00     0.096 C 
HETATM    2  C10 UNL     1      25.007   4.383  50.595  1.00  0.00     0.036 A 
HETATM    3  C11 UNL     1      25.144   5.720  49.968  1.00  0.00     0.195 A 
HETATM    4  N4  UNL     1      26.313   5.692  49.128  1.00  0.00    -0.278 NA
HETATM    5  C12 UNL     1      27.063   4.658  48.999  1.00  0.00     0.229 A 
HETATM    6  N5  UNL     1      26.914   3.369  49.626  1.00  0.00    -0.224 NA
HETATM    7  C13 UNL     1      25.897   3.247  50.410  1.00  0.00     0.139 A 
ENDROOT
BRANCH   1   8
HETATM    8  N2  UNL     1      23.551   5.638  51.126  1.00  0.00    -0.160 NA
HETATM    9  N1  UNL     1      22.564   6.233  51.598  1.00  0.00    -0.203 NA
HETATM   10  H1  UNL     1      21.853   5.869  52.258  1.00  0.00     0.212 HD
ENDBRANCH   1   8
BRANCH   1  11
HETATM   11  C2  UNL     1      22.912   3.809  52.294  1.00  0.00     0.331 C 
BRANCH  11  12
HETATM   12  N3  UNL     1      21.868   3.084  51.584  1.00  0.00     0.093 N 
HETATM   13  H4  UNL     1      21.628   3.571  50.694  1.00  0.00     0.316 HD
BRANCH  12  14
HETATM   14  C3  UNL     1      22.256   1.734  51.295  1.00  0.00     0.308 C 
BRANCH  14  15
HETATM   15  C4  UNL     1      22.155   0.857  52.503  1.00  0.00    -0.029 A 
HETATM   16  C5  UNL     1      20.912   0.530  53.044  1.00  0.00     0.009 A 
HETATM   17  C6  UNL     1      20.813  -0.286  54.166  1.00  0.00     0.002 A 
HETATM   18  C7  UNL     1      21.973  -0.761  54.725  1.00  0.00     0.024 A 
HETATM   19  C8  UNL     1      23.244  -0.477  54.239  1.00  0.00     0.034 A 
HETATM   20 CL1  UNL     1      24.682  -1.107  54.988  1.00  0.00    -0.084 Cl
HETATM   21  C9  UNL     1      23.264   0.332  53.134  1.00  0.00     0.032 A 
ENDBRANCH  14  15
ENDBRANCH  12  14
ENDBRANCH  11  12
ENDBRANCH   1  11
BRANCH   7  22
HETATM   22  N6  UNL     1      25.674   2.022  51.070  1.00  0.00    -0.340 N 
HETATM   23  H14 UNL     1      24.752   1.572  50.892  1.00  0.00     0.167 HD
BRANCH  22  24
HETATM   24  C14 UNL     1      26.626   1.418  51.920  1.00  0.00     0.035 A 
HETATM   25  C15 UNL     1      27.551   2.006  52.736  1.00  0.00     0.029 A 
HETATM   26  C16 UNL     1      28.436   1.316  53.535  1.00  0.00     0.004 A 
HETATM   27  C17 UNL     1      28.424  -0.063  53.545  1.00  0.00     0.024 A 
HETATM   28  C18 UNL     1      27.519  -0.724  52.748  1.00  0.00     0.036 A 
HETATM   29 CL2  UNL     1      27.467  -2.474  52.729  1.00  0.00    -0.084 Cl
HETATM   30  C19 UNL     1      26.660   0.023  51.971  1.00  0.00     0.053 A 
ENDBRANCH  22  24
ENDBRANCH   7  22
TORSDOF 7
ENDMDL
MODEL 5
REMARK VINA RESULT:      -7.5      2.786      5.901
REMARK  7 active torsions:
REMARK  status: ('A' for Active; 'I' for Inactive)
REMARK    1  A    between atoms: N2_2  and  C1_3 
REMARK    2  A    between atoms: C1_3  and  C2_4 
REMARK    3  A    between atoms: C2_4  and  N3_5 
REMARK    4  A    between atoms: N3_5  and  C3_6 
REMARK    5  A    between atoms: C3_6  and  C4_7 
REMARK    6  A    between atoms: C13_19  and  N6_20 
REMARK    7  A    between atoms: N6_20  and  C14_21 
ROOT
HETATM    1  C1  UNL     1      22.164   1.434  52.494  1.00  0.00     0.096 C 
HETATM    2  C10 UNL     1      22.486   0.515  53.370  1.00  0.00     0.036 A 
HETATM    3  C11 UNL     1      21.353   0.157  54.257  1.00  0.00     0.195 A 
HETATM    4  N4  UNL     1      21.822  -0.838  55.186  1.00  0.00    -0.278 NA
HETATM    5  C12 UNL     1      23.022  -1.294  55.184  1.00  0.00     0.229 A 
HETATM    6  N5  UNL     1      24.107  -0.935  54.305  1.00  0.00    -0.224 NA
HETATM    7  C13 UNL     1      23.830  -0.043  53.416  1.00  0.00     0.139 A 
ENDROOT
BRANCH   1   8
HETATM    8  N2  UNL     1      20.827   1.539  52.955  1.00  0.00    -0.160 NA
HETATM    9  N1  UNL     1      20.020   2.464  52.742  1.00  0.00    -0.203 NA
HETATM   10  H1  UNL     1      20.167   3.327  52.189  1.00  0.00     0.212 HD
ENDBRANCH   1   8
BRANCH   1  11
HETATM   11  C2  UNL     1      22.208   2.419  51.394  1.00  0.00     0.331 C 
BRANCH  11  12
HETATM   12  N3  UNL     1      22.992   3.590  51.757  1.00  0.00     0.093 N 
HETATM   13  H4  UNL     1      23.929   3.305  52.116  1.00  0.00     0.316 HD
BRANCH  12  14
HETATM   14  C3  UNL     1      23.162   4.485  50.650  1.00  0.00     0.308 C 
BRANCH  14  15
HETATM   15  C4  UNL     1      24.547   4.413  50.087  1.00  0.00    -0.029 A 
HETATM   16  C5  UNL     1      25.288   3.234  50.166  1.00  0.00     0.009 A 
HETATM   17  C6  UNL     1      26.575   3.162  49.643  1.00  0.00     0.002 A 
HETATM   18  C7  UNL     1      27.095   4.283  49.046  1.00  0.00     0.024 A 
HETATM   19  C8  UNL     1      26.414   5.490  48.932  1.00  0.00     0.034 A 
HETATM   20 CL1  UNL     1      27.123   6.881  48.166  1.00  0.00    -0.084 Cl
HETATM   21  C9  UNL     1      25.154   5.487  49.469  1.00  0.00     0.032 A 
ENDBRANCH  14  15
ENDBRANCH  12  14
ENDBRANCH  11  12
ENDBRANCH   1  11
BRANCH   7  22
HETATM   22  N6  UNL     1      24.828   0.367  52.510  1.00  0.00    -0.340 N 
HETATM   23  H14 UNL     1      24.551   0.382  51.507  1.00  0.00     0.167 HD
BRANCH  22  24
HETATM   24  C14 UNL     1      26.127   0.746  52.913  1.00  0.00     0.035 A 
HETATM   25  C15 UNL     1      26.593   1.977  53.277  1.00  0.00     0.029 A 
HETATM   26  C16 UNL     1      27.889   2.237  53.663  1.00  0.00     0.004 A 
HETATM   27  C17 UNL     1      28.815   1.216  53.699  1.00  0.00     0.024 A 
HETATM   28  C18 UNL     1      28.418  -0.053  53.346  1.00  0.00     0.036 A 
HETATM   29 CL2  UNL     1      29.558  -1.380  53.377  1.00  0.00    -0.084 Cl
HETATM   30  C19 UNL     1      27.106  -0.248  52.969  1.00  0.00     0.053 A 
ENDBRANCH  22  24
ENDBRANCH   7  22
TORSDOF 7
ENDMDL
MODEL 6
REMARK VINA RESULT:      -7.2      3.088      6.864
REMARK  7 active torsions:
REMARK  status: ('A' for Active; 'I' for Inactive)
REMARK    1  A    between atoms: N2_2  and  C1_3 
REMARK    2  A    between atoms: C1_3  and  C2_4 
REMARK    3  A    between atoms: C2_4  and  N3_5 
REMARK    4  A    between atoms: N3_5  and  C3_6 
REMARK    5  A    between atoms: C3_6  and  C4_7 
REMARK    6  A    between atoms: C13_19  and  N6_20 
REMARK    7  A    between atoms: N6_20  and  C14_21 
ROOT
HETATM    1  C1  UNL     1      24.664   3.794  50.480  1.00  0.00     0.096 C 
HETATM    2  C10 UNL     1      23.430   4.022  50.854  1.00  0.00     0.036 A 
HETATM    3  C11 UNL     1      23.080   5.462  50.805  1.00  0.00     0.195 A 
HETATM    4  N4  UNL     1      21.719   5.598  51.252  1.00  0.00    -0.278 NA
HETATM    5  C12 UNL     1      20.991   4.602  51.608  1.00  0.00     0.229 A 
HETATM    6  N5  UNL     1      21.351   3.207  51.640  1.00  0.00    -0.224 NA
HETATM    7  C13 UNL     1      22.555   2.934  51.266  1.00  0.00     0.139 A 
ENDROOT
BRANCH   1   8
HETATM    8  N2  UNL     1      24.943   5.163  50.235  1.00  0.00    -0.160 NA
HETATM    9  N1  UNL     1      26.059   5.699  50.099  1.00  0.00    -0.203 NA
HETATM   10  H1  UNL     1      26.993   5.252  50.137  1.00  0.00     0.212 HD
ENDBRANCH   1   8
BRANCH   1  11
HETATM   11  C2  UNL     1      25.943   3.135  50.146  1.00  0.00     0.331 C 
BRANCH  11  12
HETATM   12  N3  UNL     1      26.856   3.136  51.280  1.00  0.00     0.093 N 
HETATM   13  H4  UNL     1      27.035   4.112  51.604  1.00  0.00     0.316 HD
BRANCH  12  14
HETATM   14  C3  UNL     1      26.351   2.360  52.375  1.00  0.00     0.308 C 
BRANCH  14  15
HETATM   15  C4  UNL     1      27.324   1.308  52.804  1.00  0.00    -0.029 A 
HETATM   16  C5  UNL     1      28.517   1.656  53.439  1.00  0.00     0.009 A 
HETATM   17  C6  UNL     1      29.424   0.681  53.841  1.00  0.00     0.002 A 
HETATM   18  C7  UNL     1      29.113  -0.633  53.596  1.00  0.00     0.024 A 
HETATM   19  C8  UNL     1      27.944  -1.051  52.969  1.00  0.00     0.034 A 
HETATM   20 CL1  UNL     1      27.601  -2.733  52.684  1.00  0.00    -0.084 Cl
HETATM   21  C9  UNL     1      27.100  -0.038  52.602  1.00  0.00     0.032 A 
ENDBRANCH  14  15
ENDBRANCH  12  14
ENDBRANCH  11  12
ENDBRANCH   1  11
BRANCH   7  22
HETATM   22  N6  UNL     1      22.993   1.595  51.261  1.00  0.00    -0.340 N 
HETATM   23  H14 UNL     1      23.564   1.308  50.439  1.00  0.00     0.167 HD
BRANCH  22  24
HETATM   24  C14 UNL     1      22.698   0.683  52.297  1.00  0.00     0.035 A 
HETATM   25  C15 UNL     1      23.534   0.135  53.229  1.00  0.00     0.029 A 
HETATM   26  C16 UNL     1      23.137  -0.747  54.209  1.00  0.00     0.004 A 
HETATM   27  C17 UNL     1      21.816  -1.134  54.294  1.00  0.00     0.024 A 
HETATM   28  C18 UNL     1      20.916  -0.623  53.389  1.00  0.00     0.036 A 
HETATM   29 CL2  UNL     1      19.229  -1.086  53.458  1.00  0.00    -0.084 Cl
HETATM   30  C19 UNL     1      21.375   0.256  52.432  1.00  0.00     0.053 A 
ENDBRANCH  22  24
ENDBRANCH   7  22
TORSDOF 7
ENDMDL
MODEL 7
REMARK VINA RESULT:      -7.1      2.661      5.488
REMARK  7 active torsions:
REMARK  status: ('A' for Active; 'I' for Inactive)
REMARK    1  A    between atoms: N2_2  and  C1_3 
REMARK    2  A    between atoms: C1_3  and  C2_4 
REMARK    3  A    between atoms: C2_4  and  N3_5 
REMARK    4  A    between atoms: N3_5  and  C3_6 
REMARK    5  A    between atoms: C3_6  and  C4_7 
REMARK    6  A    between atoms: C13_19  and  N6_20 
REMARK    7  A    between atoms: N6_20  and  C14_21 
ROOT
HETATM    1  C1  UNL     1      26.595   1.632  52.613  1.00  0.00     0.096 C 
HETATM    2  C10 UNL     1      25.979   0.796  53.412  1.00  0.00     0.036 A 
HETATM    3  C11 UNL     1      26.805   0.424  54.587  1.00  0.00     0.195 A 
HETATM    4  N4  UNL     1      26.045  -0.507  55.379  1.00  0.00    -0.278 NA
HETATM    5  C12 UNL     1      24.862  -0.896  55.067  1.00  0.00     0.229 A 
HETATM    6  N5  UNL     1      24.075  -0.515  53.922  1.00  0.00    -0.224 NA
HETATM    7  C13 UNL     1      24.636   0.320  53.114  1.00  0.00     0.139 A 
ENDROOT
BRANCH   1   8
HETATM    8  N2  UNL     1      27.765   1.683  53.413  1.00  0.00    -0.160 NA
HETATM    9  N1  UNL     1      28.876   2.155  53.105  1.00  0.00    -0.203 NA
HETATM   10  H1  UNL     1      29.157   2.601  52.213  1.00  0.00     0.212 HD
ENDBRANCH   1   8
BRANCH   1  11
HETATM   11  C2  UNL     1      26.925   2.535  51.492  1.00  0.00     0.331 C 
BRANCH  11  12
HETATM   12  N3  UNL     1      25.834   3.455  51.208  1.00  0.00     0.093 N 
HETATM   13  H4  UNL     1      26.052   4.406  51.579  1.00  0.00     0.316 HD
BRANCH  12  14
HETATM   14  C3  UNL     1      25.565   3.548  49.802  1.00  0.00     0.308 C 
BRANCH  14  15
HETATM   15  C4  UNL     1      26.254   4.721  49.181  1.00  0.00    -0.029 A 
HETATM   16  C5  UNL     1      25.556   5.901  48.921  1.00  0.00     0.009 A 
HETATM   17  C6  UNL     1      26.193   6.996  48.345  1.00  0.00     0.002 A 
HETATM   18  C7  UNL     1      27.526   6.883  48.040  1.00  0.00     0.024 A 
HETATM   19  C8  UNL     1      28.282   5.739  48.272  1.00  0.00     0.034 A 
HETATM   20 CL1  UNL     1      29.971   5.651  47.865  1.00  0.00    -0.084 Cl
HETATM   21  C9  UNL     1      27.590   4.703  48.840  1.00  0.00     0.032 A 
ENDBRANCH  14  15
ENDBRANCH  12  14
ENDBRANCH  11  12
ENDBRANCH   1  11
BRANCH   7  22
HETATM   22  N6  UNL     1      23.940   0.753  51.969  1.00  0.00    -0.340 N 
HETATM   23  H14 UNL     1      24.409   0.571  51.057  1.00  0.00     0.167 HD
BRANCH  22  24
HETATM   24  C14 UNL     1      22.680   1.387  52.026  1.00  0.00     0.035 A 
HETATM   25  C15 UNL     1      22.385   2.700  52.263  1.00  0.00     0.029 A 
HETATM   26  C16 UNL     1      21.109   3.220  52.289  1.00  0.00     0.004 A 
HETATM   27  C17 UNL     1      20.025   2.397  52.067  1.00  0.00     0.024 A 
HETATM   28  C18 UNL     1      20.246   1.061  51.820  1.00  0.00     0.036 A 
HETATM   29 CL2  UNL     1      18.901  -0.020  51.532  1.00  0.00    -0.084 Cl
HETATM   30  C19 UNL     1      21.546   0.603  51.807  1.00  0.00     0.053 A 
ENDBRANCH  22  24
ENDBRANCH   7  22
TORSDOF 7
ENDMDL
MODEL 8
REMARK VINA RESULT:      -7.1      1.714      2.747
REMARK  7 active torsions:
REMARK  status: ('A' for Active; 'I' for Inactive)
REMARK    1  A    between atoms: N2_2  and  C1_3 
REMARK    2  A    between atoms: C1_3  and  C2_4 
REMARK    3  A    between atoms: C2_4  and  N3_5 
REMARK    4  A    between atoms: N3_5  and  C3_6 
REMARK    5  A    between atoms: C3_6  and  C4_7 
REMARK    6  A    between atoms: C13_19  and  N6_20 
REMARK    7  A    between atoms: N6_20  and  C14_21 
ROOT
HETATM    1  C1  UNL     1      22.746  -0.474  53.527  1.00  0.00     0.096 C 
HETATM    2  C10 UNL     1      24.007  -0.276  53.824  1.00  0.00     0.036 A 
HETATM    3  C11 UNL     1      24.416  -0.985  55.060  1.00  0.00     0.195 A 
HETATM    4  N4  UNL     1      25.803  -0.683  55.300  1.00  0.00    -0.278 NA
HETATM    5  C12 UNL     1      26.503   0.070  54.532  1.00  0.00     0.229 A 
HETATM    6  N5  UNL     1      26.085   0.744  53.328  1.00  0.00    -0.224 NA
HETATM    7  C13 UNL     1      24.853   0.565  52.990  1.00  0.00     0.139 A 
ENDROOT
BRANCH   1   8
HETATM    8  N2  UNL     1      22.516  -1.309  54.650  1.00  0.00    -0.160 NA
HETATM    9  N1  UNL     1      21.423  -1.742  55.064  1.00  0.00    -0.203 NA
HETATM   10  H1  UNL     1      20.480  -1.578  54.670  1.00  0.00     0.212 HD
ENDBRANCH   1   8
BRANCH   1  11
HETATM   11  C2  UNL     1      21.425  -0.439  52.869  1.00  0.00     0.331 C 
BRANCH  11  12
HETATM   12  N3  UNL     1      21.144   0.873  52.304  1.00  0.00     0.093 N 
HETATM   13  H4  UNL     1      22.031   1.399  52.145  1.00  0.00     0.316 HD
BRANCH  12  14
HETATM   14  C3  UNL     1      20.424   0.780  51.067  1.00  0.00     0.308 C 
BRANCH  14  15
HETATM   15  C4  UNL     1      21.003   1.676  50.019  1.00  0.00    -0.029 A 
HETATM   16  C5  UNL     1      21.754   1.149  48.968  1.00  0.00     0.009 A 
HETATM   17  C6  UNL     1      22.294   1.978  47.990  1.00  0.00     0.002 A 
HETATM   18  C7  UNL     1      22.067   3.328  48.087  1.00  0.00     0.024 A 
HETATM   19  C8  UNL     1      21.329   3.921  49.106  1.00  0.00     0.034 A 
HETATM   20 CL1  UNL     1      21.072   5.640  49.181  1.00  0.00    -0.084 Cl
HETATM   21  C9  UNL     1      20.829   3.044  50.032  1.00  0.00     0.032 A 
ENDBRANCH  14  15
ENDBRANCH  12  14
ENDBRANCH  11  12
ENDBRANCH   1  11
BRANCH   7  22
HETATM   22  N6  UNL     1      24.357   1.182  51.825  1.00  0.00    -0.340 N 
HETATM   23  H14 UNL     1      24.100   0.541  51.046  1.00  0.00     0.167 HD
BRANCH  22  24
HETATM   24  C14 UNL     1      24.201   2.580  51.698  1.00  0.00     0.035 A 
HETATM   25  C15 UNL     1      23.530   3.450  52.510  1.00  0.00     0.029 A 
HETATM   26  C16 UNL     1      23.445   4.808  52.296  1.00  0.00     0.004 A 
HETATM   27  C17 UNL     1      24.064   5.373  51.200  1.00  0.00     0.024 A 
HETATM   28  C18 UNL     1      24.759   4.557  50.338  1.00  0.00     0.036 A 
HETATM   29 CL2  UNL     1      25.559   5.230  48.934  1.00  0.00    -0.084 Cl
HETATM   30  C19 UNL     1      24.806   3.206  50.607  1.00  0.00     0.053 A 
ENDBRANCH  22  24
ENDBRANCH   7  22
TORSDOF 7
ENDMDL
MODEL 9
REMARK VINA RESULT:      -6.8      3.646      7.164
REMARK  7 active torsions:
REMARK  status: ('A' for Active; 'I' for Inactive)
REMARK    1  A    between atoms: N2_2  and  C1_3 
REMARK    2  A    between atoms: C1_3  and  C2_4 
REMARK    3  A    between atoms: C2_4  and  N3_5 
REMARK    4  A    between atoms: N3_5  and  C3_6 
REMARK    5  A    between atoms: C3_6  and  C4_7 
REMARK    6  A    between atoms: C13_19  and  N6_20 
REMARK    7  A    between atoms: N6_20  and  C14_21 
ROOT
HETATM    1  C1  UNL     1      22.966   4.413  51.579  1.00  0.00     0.096 C 
HETATM    2  C10 UNL     1      22.174   3.429  51.928  1.00  0.00     0.036 A 
HETATM    3  C11 UNL     1      20.810   3.895  52.277  1.00  0.00     0.195 A 
HETATM    4  N4  UNL     1      20.039   2.743  52.661  1.00  0.00    -0.278 NA
HETATM    5  C12 UNL     1      20.510   1.549  52.669  1.00  0.00     0.229 A 
HETATM    6  N5  UNL     1      21.839   1.118  52.317  1.00  0.00    -0.224 NA
HETATM    7  C13 UNL     1      22.650   2.053  51.953  1.00  0.00     0.139 A 
ENDROOT
BRANCH   1   8
HETATM    8  N2  UNL     1      21.967   5.404  51.758  1.00  0.00    -0.160 NA
HETATM    9  N1  UNL     1      22.023   6.606  51.436  1.00  0.00    -0.203 NA
HETATM   10  H1  UNL     1      22.803   7.110  50.976  1.00  0.00     0.212 HD
ENDBRANCH   1   8
BRANCH   1  11
HETATM   11  C2  UNL     1      24.136   5.202  51.147  1.00  0.00     0.331 C 
BRANCH  11  12
HETATM   12  N3  UNL     1      24.353   5.094  49.712  1.00  0.00     0.093 N 
HETATM   13  H4  UNL     1      24.411   6.041  49.279  1.00  0.00     0.316 HD
BRANCH  12  14
HETATM   14  C3  UNL     1      25.546   4.360  49.404  1.00  0.00     0.308 C 
BRANCH  14  15
HETATM   15  C4  UNL     1      26.609   5.244  48.832  1.00  0.00    -0.029 A 
HETATM   16  C5  UNL     1      27.918   4.783  48.691  1.00  0.00     0.009 A 
HETATM   17  C6  UNL     1      28.909   5.600  48.158  1.00  0.00     0.002 A 
HETATM   18  C7  UNL     1      28.564   6.872  47.775  1.00  0.00     0.024 A 
HETATM   19  C8  UNL     1      27.281   7.396  47.887  1.00  0.00     0.034 A 
HETATM   20 CL1  UNL     1      26.899   9.018  47.386  1.00  0.00    -0.084 Cl
HETATM   21  C9  UNL     1      26.358   6.536  48.420  1.00  0.00     0.032 A 
ENDBRANCH  14  15
ENDBRANCH  12  14
ENDBRANCH  11  12
ENDBRANCH   1  11
BRANCH   7  22
HETATM   22  N6  UNL     1      23.970   1.725  51.588  1.00  0.00    -0.340 N 
HETATM   23  H14 UNL     1      24.215   1.880  50.588  1.00  0.00     0.167 HD
BRANCH  22  24
HETATM   24  C14 UNL     1      24.922   1.223  52.502  1.00  0.00     0.035 A 
HETATM   25  C15 UNL     1      24.868   0.096  53.272  1.00  0.00     0.029 A 
HETATM   26  C16 UNL     1      25.865  -0.309  54.133  1.00  0.00     0.004 A 
HETATM   27  C17 UNL     1      27.014   0.444  54.258  1.00  0.00     0.024 A 
HETATM   28  C18 UNL     1      27.138   1.593  53.513  1.00  0.00     0.036 A 
HETATM   29 CL2  UNL     1      28.579   2.580  53.640  1.00  0.00    -0.084 Cl
HETATM   30  C19 UNL     1      26.106   1.944  52.670  1.00  0.00     0.053 A 
ENDBRANCH  22  24
ENDBRANCH   7  22
TORSDOF 7
ENDMDL
