MODEL 1
REMARK VINA RESULT:      -8.1      0.000      0.000
REMARK  7 active torsions:
REMARK  status: ('A' for Active; 'I' for Inactive)
REMARK    1  A    between atoms: C1_2  and  N1_3 
REMARK    2  A    between atoms: C1_2  and  N3_11 
REMARK    3  A    between atoms: N1_3  and  C2_4 
REMARK    4  A    between atoms: C2_4  and  N2_5 
REMARK    5  A    between atoms: N3_11  and  C7_12 
REMARK    6  A    between atoms: C12_19  and  N6_20 
REMARK    7  A    between atoms: N6_20  and  C13_21 
ROOT
HETATM    1  C7  UNL     1      24.466  -0.266  53.118  1.00  0.00     0.035 A 
HETATM    2  C8  UNL     1      24.957  -0.557  54.396  1.00  0.00     0.032 A 
HETATM    3  C9  UNL     1      26.132   0.026  54.816  1.00  0.00     0.035 A 
HETATM    4  C10 UNL     1      26.792   0.882  53.964  1.00  0.00     0.072 A 
HETATM    5  N4  UNL     1      27.947   1.416  54.468  1.00  0.00    -0.241 NA
HETATM    6  C11 UNL     1      28.637   2.256  53.696  1.00  0.00     0.236 A 
HETATM    7  N5  UNL     1      28.173   2.530  52.488  1.00  0.00    -0.224 NA
HETATM    8  C12 UNL     1      27.065   2.061  51.917  1.00  0.00     0.142 A 
HETATM    9  C19 UNL     1      26.354   1.202  52.700  1.00  0.00     0.041 A 
HETATM   10  C20 UNL     1      25.179   0.598  52.323  1.00  0.00     0.047 A 
ENDROOT
BRANCH   1  11
HETATM   11  N3  UNL     1      23.265  -0.941  52.847  1.00  0.00    -0.333 N 
HETATM   12  H12 UNL     1      23.195  -1.729  52.197  1.00  0.00     0.168 HD
BRANCH  11  13
HETATM   13  C1  UNL     1      22.120  -0.460  53.540  1.00  0.00     0.173 C 
HETATM   14  S1  UNL     1      21.221  -1.424  54.535  1.00  0.00    -0.041 SA
BRANCH  13  15
HETATM   15  N1  UNL     1      21.697   0.911  53.395  1.00  0.00    -0.351 N 
HETATM   16  H1  UNL     1      21.991   1.614  54.114  1.00  0.00     0.163 HD
BRANCH  15  17
HETATM   17  C2  UNL     1      20.869   1.322  52.270  1.00  0.00     0.243 C 
BRANCH  17  18
HETATM   18  N2  UNL     1      21.542   2.340  51.547  1.00  0.00    -0.393 N 
HETATM   19  C3  UNL     1      22.420   3.190  52.266  1.00  0.00     0.144 C 
HETATM   20  C4  UNL     1      22.082   4.650  52.235  1.00  0.00     0.187 C 
HETATM   21  O1  UNL     1      21.329   5.057  51.163  1.00  0.00    -0.388 OA
HETATM   22  C5  UNL     1      21.408   4.260  50.047  1.00  0.00     0.187 C 
HETATM   23  C6  UNL     1      20.907   2.874  50.398  1.00  0.00     0.144 C 
ENDBRANCH  17  18
ENDBRANCH  15  17
ENDBRANCH  13  15
ENDBRANCH  11  13
ENDBRANCH   1  11
BRANCH   8  24
HETATM   24  N6  UNL     1      26.611   2.378  50.616  1.00  0.00    -0.340 N 
HETATM   25  H16 UNL     1      26.351   1.655  49.923  1.00  0.00     0.167 HD
BRANCH  24  26
HETATM   26  C13 UNL     1      26.426   3.651  50.018  1.00  0.00     0.033 A 
HETATM   27  C14 UNL     1      27.265   4.265  49.124  1.00  0.00     0.031 A 
HETATM   28  C15 UNL     1      27.071   5.484  48.545  1.00  0.00     0.026 A 
HETATM   29  C16 UNL     1      25.905   6.175  48.895  1.00  0.00     0.034 A 
HETATM   30 CL1  UNL     1      25.668   7.745  48.140  1.00  0.00    -0.084 Cl
HETATM   31  C17 UNL     1      25.025   5.601  49.791  1.00  0.00     0.026 A 
HETATM   32  C18 UNL     1      25.266   4.351  50.358  1.00  0.00     0.031 A 
ENDBRANCH  24  26
ENDBRANCH   8  24
TORSDOF 7
ENDMDL
MODEL 2
REMARK VINA RESULT:      -8.1      3.313      5.761
REMARK  7 active torsions:
REMARK  status: ('A' for Active; 'I' for Inactive)
REMARK    1  A    between atoms: C1_2  and  N1_3 
REMARK    2  A    between atoms: C1_2  and  N3_11 
REMARK    3  A    between atoms: N1_3  and  C2_4 
REMARK    4  A    between atoms: C2_4  and  N2_5 
REMARK    5  A    between atoms: N3_11  and  C7_12 
REMARK    6  A    between atoms: C12_19  and  N6_20 
REMARK    7  A    between atoms: N6_20  and  C13_21 
ROOT
HETATM    1  C7  UNL     1      20.597   0.585  51.082  1.00  0.00     0.035 A 
HETATM    2  C8  UNL     1      19.496   0.139  51.822  1.00  0.00     0.032 A 
HETATM    3  C9  UNL     1      19.701  -0.436  53.057  1.00  0.00     0.035 A 
HETATM    4  C10 UNL     1      20.988  -0.555  53.530  1.00  0.00     0.072 A 
HETATM    5  N4  UNL     1      21.094  -1.134  54.765  1.00  0.00    -0.241 NA
HETATM    6  C11 UNL     1      22.313  -1.280  55.286  1.00  0.00     0.236 A 
HETATM    7  N5  UNL     1      23.352  -0.859  54.586  1.00  0.00    -0.224 NA
HETATM    8  C12 UNL     1      23.345  -0.287  53.383  1.00  0.00     0.142 A 
HETATM    9  C19 UNL     1      22.103  -0.134  52.845  1.00  0.00     0.041 A 
HETATM   10  C20 UNL     1      21.852   0.433  51.619  1.00  0.00     0.047 A 
ENDROOT
BRANCH   1  11
HETATM   11  N3  UNL     1      20.215   1.142  49.851  1.00  0.00    -0.333 N 
HETATM   12  H12 UNL     1      19.409   0.816  49.310  1.00  0.00     0.168 HD
BRANCH  11  13
HETATM   13  C1  UNL     1      21.028   2.209  49.381  1.00  0.00     0.173 C 
HETATM   14  S1  UNL     1      22.117   2.015  48.154  1.00  0.00    -0.041 SA
BRANCH  13  15
HETATM   15  N1  UNL     1      20.930   3.522  49.970  1.00  0.00    -0.351 N 
HETATM   16  H1  UNL     1      20.169   3.714  50.664  1.00  0.00     0.163 HD
BRANCH  15  17
HETATM   17  C2  UNL     1      21.870   4.574  49.609  1.00  0.00     0.243 C 
BRANCH  17  18
HETATM   18  N2  UNL     1      22.844   4.697  50.632  1.00  0.00    -0.393 N 
HETATM   19  C3  UNL     1      24.201   4.477  50.282  1.00  0.00     0.144 C 
HETATM   20  C4  UNL     1      24.888   3.364  51.014  1.00  0.00     0.187 C 
HETATM   21  O1  UNL     1      24.349   3.039  52.233  1.00  0.00    -0.388 OA
HETATM   22  C5  UNL     1      23.629   4.036  52.846  1.00  0.00     0.187 C 
HETATM   23  C6  UNL     1      22.454   4.406  51.964  1.00  0.00     0.144 C 
ENDBRANCH  17  18
ENDBRANCH  15  17
ENDBRANCH  13  15
ENDBRANCH  11  13
ENDBRANCH   1  11
BRANCH   8  24
HETATM   24  N6  UNL     1      24.488   0.141  52.668  1.00  0.00    -0.340 N 
HETATM   25  H16 UNL     1      24.430   0.751  51.835  1.00  0.00     0.167 HD
BRANCH  24  26
HETATM   26  C13 UNL     1      25.856  -0.145  52.913  1.00  0.00     0.033 A 
HETATM   27  C14 UNL     1      26.521  -1.299  52.587  1.00  0.00     0.031 A 
HETATM   28  C15 UNL     1      27.840  -1.559  52.815  1.00  0.00     0.026 A 
HETATM   29  C16 UNL     1      28.587  -0.553  53.440  1.00  0.00     0.034 A 
HETATM   30 CL1  UNL     1      30.286  -0.903  53.726  1.00  0.00    -0.084 Cl
HETATM   31  C17 UNL     1      27.966   0.630  53.787  1.00  0.00     0.026 A 
HETATM   32  C18 UNL     1      26.613   0.850  53.534  1.00  0.00     0.031 A 
ENDBRANCH  24  26
ENDBRANCH   8  24
TORSDOF 7
ENDMDL
MODEL 3
REMARK VINA RESULT:      -8.0      3.206      5.690
REMARK  7 active torsions:
REMARK  status: ('A' for Active; 'I' for Inactive)
REMARK    1  A    between atoms: C1_2  and  N1_3 
REMARK    2  A    between atoms: C1_2  and  N3_11 
REMARK    3  A    between atoms: N1_3  and  C2_4 
REMARK    4  A    between atoms: C2_4  and  N2_5 
REMARK    5  A    between atoms: N3_11  and  C7_12 
REMARK    6  A    between atoms: C12_19  and  N6_20 
REMARK    7  A    between atoms: N6_20  and  C13_21 
ROOT
HETATM    1  C7  UNL     1      20.489   0.753  51.458  1.00  0.00     0.035 A 
HETATM    2  C8  UNL     1      19.434   0.169  52.168  1.00  0.00     0.032 A 
HETATM    3  C9  UNL     1      19.706  -0.556  53.307  1.00  0.00     0.035 A 
HETATM    4  C10 UNL     1      21.014  -0.686  53.716  1.00  0.00     0.072 A 
HETATM    5  N4  UNL     1      21.187  -1.420  54.858  1.00  0.00    -0.241 NA
HETATM    6  C11 UNL     1      22.430  -1.585  55.314  1.00  0.00     0.236 A 
HETATM    7  N5  UNL     1      23.426  -1.034  54.641  1.00  0.00    -0.224 NA
HETATM    8  C12 UNL     1      23.353  -0.308  53.527  1.00  0.00     0.142 A 
HETATM    9  C19 UNL     1      22.087  -0.134  53.057  1.00  0.00     0.041 A 
HETATM   10  C20 UNL     1      21.769   0.580  51.926  1.00  0.00     0.047 A 
ENDROOT
BRANCH   1  11
HETATM   11  N3  UNL     1      20.042   1.453  50.326  1.00  0.00    -0.333 N 
HETATM   12  H12 UNL     1      19.377   1.066  49.650  1.00  0.00     0.168 HD
BRANCH  11  13
HETATM   13  C1  UNL     1      20.575   2.760  50.162  1.00  0.00     0.173 C 
HETATM   14  S1  UNL     1      20.347   3.953  51.282  1.00  0.00    -0.041 SA
BRANCH  13  15
HETATM   15  N1  UNL     1      21.347   3.097  48.992  1.00  0.00    -0.351 N 
HETATM   16  H1  UNL     1      20.962   3.791  48.308  1.00  0.00     0.163 HD
BRANCH  15  17
HETATM   17  C2  UNL     1      22.647   2.484  48.753  1.00  0.00     0.243 C 
BRANCH  17  18
HETATM   18  N2  UNL     1      23.659   3.320  49.290  1.00  0.00    -0.393 N 
HETATM   19  C3  UNL     1      24.327   2.880  50.461  1.00  0.00     0.144 C 
HETATM   20  C4  UNL     1      24.215   3.784  51.651  1.00  0.00     0.187 C 
HETATM   21  O1  UNL     1      23.953   5.100  51.368  1.00  0.00    -0.388 OA
HETATM   22  C5  UNL     1      24.319   5.520  50.113  1.00  0.00     0.187 C 
HETATM   23  C6  UNL     1      23.550   4.718  49.083  1.00  0.00     0.144 C 
ENDBRANCH  17  18
ENDBRANCH  15  17
ENDBRANCH  13  15
ENDBRANCH  11  13
ENDBRANCH   1  11
BRANCH   8  24
HETATM   24  N6  UNL     1      24.452   0.256  52.838  1.00  0.00    -0.340 N 
HETATM   25  H16 UNL     1      24.338   0.920  52.053  1.00  0.00     0.167 HD
BRANCH  24  26
HETATM   26  C13 UNL     1      25.841   0.057  53.052  1.00  0.00     0.033 A 
HETATM   27  C14 UNL     1      26.714   0.940  53.631  1.00  0.00     0.031 A 
HETATM   28  C15 UNL     1      28.045   0.733  53.843  1.00  0.00     0.026 A 
HETATM   29  C16 UNL     1      28.570  -0.498  53.431  1.00  0.00     0.034 A 
HETATM   30 CL1  UNL     1      30.287  -0.750  53.712  1.00  0.00    -0.084 Cl
HETATM   31  C17 UNL     1      27.733  -1.424  52.843  1.00  0.00     0.026 A 
HETATM   32  C18 UNL     1      26.377  -1.167  52.646  1.00  0.00     0.031 A 
ENDBRANCH  24  26
ENDBRANCH   8  24
TORSDOF 7
ENDMDL
MODEL 4
REMARK VINA RESULT:      -7.8      3.758      6.461
REMARK  7 active torsions:
REMARK  status: ('A' for Active; 'I' for Inactive)
REMARK    1  A    between atoms: C1_2  and  N1_3 
REMARK    2  A    between atoms: C1_2  and  N3_11 
REMARK    3  A    between atoms: N1_3  and  C2_4 
REMARK    4  A    between atoms: C2_4  and  N2_5 
REMARK    5  A    between atoms: N3_11  and  C7_12 
REMARK    6  A    between atoms: C12_19  and  N6_20 
REMARK    7  A    between atoms: N6_20  and  C13_21 
ROOT
HETATM    1  C7  UNL     1      25.032   3.955  50.201  1.00  0.00     0.035 A 
HETATM    2  C8  UNL     1      24.175   4.027  49.097  1.00  0.00     0.032 A 
HETATM    3  C9  UNL     1      23.098   3.172  49.022  1.00  0.00     0.035 A 
HETATM    4  C10 UNL     1      22.893   2.268  50.039  1.00  0.00     0.072 A 
HETATM    5  N4  UNL     1      21.798   1.464  49.880  1.00  0.00    -0.241 NA
HETATM    6  C11 UNL     1      21.538   0.565  50.831  1.00  0.00     0.236 A 
HETATM    7  N5  UNL     1      22.349   0.497  51.873  1.00  0.00    -0.224 NA
HETATM    8  C12 UNL     1      23.432   1.235  52.111  1.00  0.00     0.142 A 
HETATM    9  C19 UNL     1      23.703   2.156  51.145  1.00  0.00     0.041 A 
HETATM   10  C20 UNL     1      24.765   3.027  51.178  1.00  0.00     0.047 A 
ENDROOT
BRANCH   1  11
HETATM   11  N3  UNL     1      26.076   4.891  50.122  1.00  0.00    -0.333 N 
HETATM   12  H12 UNL     1      27.067   4.631  50.111  1.00  0.00     0.168 HD
BRANCH  11  13
HETATM   13  C1  UNL     1      25.676   6.253  50.059  1.00  0.00     0.173 C 
HETATM   14  S1  UNL     1      26.085   7.235  48.794  1.00  0.00    -0.041 SA
BRANCH  13  15
HETATM   15  N1  UNL     1      24.886   6.837  51.114  1.00  0.00    -0.351 N 
HETATM   16  H1  UNL     1      25.160   6.667  52.111  1.00  0.00     0.163 HD
BRANCH  15  17
HETATM   17  C2  UNL     1      23.719   7.652  50.809  1.00  0.00     0.243 C 
BRANCH  17  18
HETATM   18  N2  UNL     1      22.727   6.837  50.208  1.00  0.00    -0.393 N 
HETATM   19  C3  UNL     1      22.219   7.237  48.946  1.00  0.00     0.144 C 
HETATM   20  C4  UNL     1      20.744   7.498  48.893  1.00  0.00     0.187 C 
HETATM   21  O1  UNL     1      19.998   6.862  49.851  1.00  0.00    -0.388 OA
HETATM   22  C5  UNL     1      20.561   5.727  50.383  1.00  0.00     0.187 C 
HETATM   23  C6  UNL     1      21.867   6.096  51.057  1.00  0.00     0.144 C 
ENDBRANCH  17  18
ENDBRANCH  15  17
ENDBRANCH  13  15
ENDBRANCH  11  13
ENDBRANCH   1  11
BRANCH   8  24
HETATM   24  N6  UNL     1      24.274   1.120  53.241  1.00  0.00    -0.340 N 
HETATM   25  H16 UNL     1      24.009   1.478  54.175  1.00  0.00     0.167 HD
BRANCH  24  26
HETATM   26  C13 UNL     1      25.564   0.537  53.341  1.00  0.00     0.033 A 
HETATM   27  C14 UNL     1      26.069  -0.469  52.559  1.00  0.00     0.031 A 
HETATM   28  C15 UNL     1      27.315  -1.014  52.654  1.00  0.00     0.026 A 
HETATM   29  C16 UNL     1      28.160  -0.498  53.644  1.00  0.00     0.034 A 
HETATM   30 CL1  UNL     1      29.764  -1.209  53.754  1.00  0.00    -0.084 Cl
HETATM   31  C17 UNL     1      27.701   0.518  54.459  1.00  0.00     0.026 A 
HETATM   32  C18 UNL     1      26.417   1.043  54.324  1.00  0.00     0.031 A 
ENDBRANCH  24  26
ENDBRANCH   8  24
TORSDOF 7
ENDMDL
MODEL 5
REMARK VINA RESULT:      -7.8      4.739      7.671
REMARK  7 active torsions:
REMARK  status: ('A' for Active; 'I' for Inactive)
REMARK    1  A    between atoms: C1_2  and  N1_3 
REMARK    2  A    between atoms: C1_2  and  N3_11 
REMARK    3  A    between atoms: N1_3  and  C2_4 
REMARK    4  A    between atoms: C2_4  and  N2_5 
REMARK    5  A    between atoms: N3_11  and  C7_12 
REMARK    6  A    between atoms: C12_19  and  N6_20 
REMARK    7  A    between atoms: N6_20  and  C13_21 
ROOT
HETATM    1  C7  UNL     1      26.436   4.792  48.917  1.00  0.00     0.035 A 
HETATM    2  C8  UNL     1      25.513   5.805  48.635  1.00  0.00     0.032 A 
HETATM    3  C9  UNL     1      25.966   7.028  48.193  1.00  0.00     0.035 A 
HETATM    4  C10 UNL     1      27.321   7.220  48.041  1.00  0.00     0.072 A 
HETATM    5  N4  UNL     1      27.677   8.464  47.594  1.00  0.00    -0.241 NA
HETATM    6  C11 UNL     1      28.975   8.719  47.422  1.00  0.00     0.236 A 
HETATM    7  N5  UNL     1      29.847   7.761  47.690  1.00  0.00    -0.224 NA
HETATM    8  C12 UNL     1      29.593   6.529  48.125  1.00  0.00     0.142 A 
HETATM    9  C19 UNL     1      28.270   6.261  48.303  1.00  0.00     0.041 A 
HETATM   10  C20 UNL     1      27.772   5.057  48.741  1.00  0.00     0.047 A 
ENDROOT
BRANCH   1  11
HETATM   11  N3  UNL     1      25.811   3.614  49.356  1.00  0.00    -0.333 N 
HETATM   12  H12 UNL     1      25.540   2.852  48.728  1.00  0.00     0.168 HD
BRANCH  11  13
HETATM   13  C1  UNL     1      25.565   3.534  50.753  1.00  0.00     0.173 C 
HETATM   14  S1  UNL     1      24.116   3.966  51.421  1.00  0.00    -0.041 SA
BRANCH  13  15
HETATM   15  N1  UNL     1      26.588   3.063  51.654  1.00  0.00    -0.351 N 
HETATM   16  H1  UNL     1      27.399   3.688  51.876  1.00  0.00     0.163 HD
BRANCH  15  17
HETATM   17  C2  UNL     1      26.505   1.738  52.251  1.00  0.00     0.243 C 
BRANCH  17  18
HETATM   18  N2  UNL     1      27.762   1.404  52.815  1.00  0.00    -0.393 N 
HETATM   19  C3  UNL     1      27.950   0.074  53.271  1.00  0.00     0.144 C 
HETATM   20  C4  UNL     1      28.277  -0.074  54.726  1.00  0.00     0.187 C 
HETATM   21  O1  UNL     1      28.846   1.024  55.317  1.00  0.00    -0.388 OA
HETATM   22  C5  UNL     1      29.495   1.885  54.465  1.00  0.00     0.187 C 
HETATM   23  C6  UNL     1      28.497   2.429  53.463  1.00  0.00     0.144 C 
ENDBRANCH  17  18
ENDBRANCH  15  17
ENDBRANCH  13  15
ENDBRANCH  11  13
ENDBRANCH   1  11
BRANCH   8  24
HETATM   24  N6  UNL     1      30.564   5.539  48.405  1.00  0.00    -0.340 N 
HETATM   25  H16 UNL     1      30.533   4.952  49.257  1.00  0.00     0.167 HD
BRANCH  24  26
HETATM   26  C13 UNL     1      31.701   5.159  47.646  1.00  0.00     0.033 A 
HETATM   27  C14 UNL     1      32.877   5.852  47.533  1.00  0.00     0.031 A 
HETATM   28  C15 UNL     1      33.969   5.472  46.811  1.00  0.00     0.026 A 
HETATM   29  C16 UNL     1      33.881   4.258  46.118  1.00  0.00     0.034 A 
HETATM   30 CL1  UNL     1      35.297   3.780  45.192  1.00  0.00    -0.084 Cl
HETATM   31  C17 UNL     1      32.718   3.519  46.199  1.00  0.00     0.026 A 
HETATM   32  C18 UNL     1      31.626   3.950  46.950  1.00  0.00     0.031 A 
ENDBRANCH  24  26
ENDBRANCH   8  24
TORSDOF 7
ENDMDL
MODEL 6
REMARK VINA RESULT:      -7.6      3.504      5.919
REMARK  7 active torsions:
REMARK  status: ('A' for Active; 'I' for Inactive)
REMARK    1  A    between atoms: C1_2  and  N1_3 
REMARK    2  A    between atoms: C1_2  and  N3_11 
REMARK    3  A    between atoms: N1_3  and  C2_4 
REMARK    4  A    between atoms: C2_4  and  N2_5 
REMARK    5  A    between atoms: N3_11  and  C7_12 
REMARK    6  A    between atoms: C12_19  and  N6_20 
REMARK    7  A    between atoms: N6_20  and  C13_21 
ROOT
HETATM    1  C7  UNL     1      20.546   1.207  51.701  1.00  0.00     0.035 A 
HETATM    2  C8  UNL     1      19.452   0.468  52.165  1.00  0.00     0.032 A 
HETATM    3  C9  UNL     1      19.642  -0.469  53.157  1.00  0.00     0.035 A 
HETATM    4  C10 UNL     1      20.908  -0.652  53.666  1.00  0.00     0.072 A 
HETATM    5  N4  UNL     1      21.000  -1.599  54.649  1.00  0.00    -0.241 NA
HETATM    6  C11 UNL     1      22.199  -1.827  55.189  1.00  0.00     0.236 A 
HETATM    7  N5  UNL     1      23.231  -1.128  54.749  1.00  0.00    -0.224 NA
HETATM    8  C12 UNL     1      23.236  -0.191  53.802  1.00  0.00     0.142 A 
HETATM    9  C19 UNL     1      22.016   0.047  53.247  1.00  0.00     0.041 A 
HETATM   10  C20 UNL     1      21.780   0.970  52.256  1.00  0.00     0.047 A 
ENDROOT
BRANCH   1  11
HETATM   11  N3  UNL     1      20.181   2.113  50.693  1.00  0.00    -0.333 N 
HETATM   12  H12 UNL     1      19.215   2.406  50.519  1.00  0.00     0.168 HD
BRANCH  11  13
HETATM   13  C1  UNL     1      21.250   2.616  49.903  1.00  0.00     0.173 C 
HETATM   14  S1  UNL     1      21.852   1.791  48.604  1.00  0.00    -0.041 SA
BRANCH  13  15
HETATM   15  N1  UNL     1      21.859   3.886  50.213  1.00  0.00    -0.351 N 
HETATM   16  H1  UNL     1      22.851   4.060  49.927  1.00  0.00     0.163 HD
BRANCH  15  17
HETATM   17  C2  UNL     1      21.111   4.920  50.915  1.00  0.00     0.243 C 
BRANCH  17  18
HETATM   18  N2  UNL     1      21.985   5.992  51.229  1.00  0.00    -0.393 N 
HETATM   19  C3  UNL     1      21.632   7.287  50.772  1.00  0.00     0.144 C 
HETATM   20  C4  UNL     1      22.621   7.945  49.858  1.00  0.00     0.187 C 
HETATM   21  O1  UNL     1      23.913   7.497  49.966  1.00  0.00    -0.388 OA
HETATM   22  C5  UNL     1      24.240   6.922  51.170  1.00  0.00     0.187 C 
HETATM   23  C6  UNL     1      23.364   5.705  51.386  1.00  0.00     0.144 C 
ENDBRANCH  17  18
ENDBRANCH  15  17
ENDBRANCH  13  15
ENDBRANCH  11  13
ENDBRANCH   1  11
BRANCH   8  24
HETATM   24  N6  UNL     1      24.372   0.526  53.359  1.00  0.00    -0.340 N 
HETATM   25  H16 UNL     1      24.303   1.433  52.867  1.00  0.00     0.167 HD
BRANCH  24  26
HETATM   26  C13 UNL     1      25.746   0.191  53.480  1.00  0.00     0.033 A 
HETATM   27  C14 UNL     1      26.648   0.742  54.352  1.00  0.00     0.031 A 
HETATM   28  C15 UNL     1      27.963   0.404  54.470  1.00  0.00     0.026 A 
HETATM   29  C16 UNL     1      28.439  -0.602  53.620  1.00  0.00     0.034 A 
HETATM   30 CL1  UNL     1      30.137  -1.028  53.783  1.00  0.00    -0.084 Cl
HETATM   31  C17 UNL     1      27.571  -1.192  52.723  1.00  0.00     0.026 A 
HETATM   32  C18 UNL     1      26.233  -0.812  52.639  1.00  0.00     0.031 A 
ENDBRANCH  24  26
ENDBRANCH   8  24
TORSDOF 7
ENDMDL
MODEL 7
REMARK VINA RESULT:      -7.6      4.176      7.634
REMARK  7 active torsions:
REMARK  status: ('A' for Active; 'I' for Inactive)
REMARK    1  A    between atoms: C1_2  and  N1_3 
REMARK    2  A    between atoms: C1_2  and  N3_11 
REMARK    3  A    between atoms: N1_3  and  C2_4 
REMARK    4  A    between atoms: C2_4  and  N2_5 
REMARK    5  A    between atoms: N3_11  and  C7_12 
REMARK    6  A    between atoms: C12_19  and  N6_20 
REMARK    7  A    between atoms: N6_20  and  C13_21 
ROOT
HETATM    1  C7  UNL     1      24.940   3.958  50.222  1.00  0.00     0.035 A 
HETATM    2  C8  UNL     1      24.100   3.984  49.103  1.00  0.00     0.032 A 
HETATM    3  C9  UNL     1      23.055   3.091  49.022  1.00  0.00     0.035 A 
HETATM    4  C10 UNL     1      22.865   2.194  50.049  1.00  0.00     0.072 A 
HETATM    5  N4  UNL     1      21.802   1.349  49.883  1.00  0.00    -0.241 NA
HETATM    6  C11 UNL     1      21.558   0.455  50.842  1.00  0.00     0.236 A 
HETATM    7  N5  UNL     1      22.352   0.430  51.899  1.00  0.00    -0.224 NA
HETATM    8  C12 UNL     1      23.404   1.209  52.144  1.00  0.00     0.142 A 
HETATM    9  C19 UNL     1      23.659   2.126  51.169  1.00  0.00     0.041 A 
HETATM   10  C20 UNL     1      24.689   3.035  51.208  1.00  0.00     0.047 A 
ENDROOT
BRANCH   1  11
HETATM   11  N3  UNL     1      25.951   4.929  50.146  1.00  0.00    -0.333 N 
HETATM   12  H12 UNL     1      26.950   4.703  50.125  1.00  0.00     0.168 HD
BRANCH  11  13
HETATM   13  C1  UNL     1      25.506   6.278  50.103  1.00  0.00     0.173 C 
HETATM   14  S1  UNL     1      24.284   6.835  51.067  1.00  0.00    -0.041 SA
BRANCH  13  15
HETATM   15  N1  UNL     1      26.114   7.224  49.201  1.00  0.00    -0.351 N 
HETATM   16  H1  UNL     1      25.986   7.100  48.169  1.00  0.00     0.163 HD
BRANCH  15  17
HETATM   17  C2  UNL     1      26.899   8.341  49.708  1.00  0.00     0.243 C 
BRANCH  17  18
HETATM   18  N2  UNL     1      28.077   8.471  48.930  1.00  0.00    -0.393 N 
HETATM   19  C3  UNL     1      28.427   7.394  48.076  1.00  0.00     0.144 C 
HETATM   20  C4  UNL     1      29.760   6.763  48.341  1.00  0.00     0.187 C 
HETATM   21  O1  UNL     1      30.674   7.561  48.980  1.00  0.00    -0.388 OA
HETATM   22  C5  UNL     1      30.475   8.914  48.845  1.00  0.00     0.187 C 
HETATM   23  C6  UNL     1      29.128   9.274  49.439  1.00  0.00     0.144 C 
ENDBRANCH  17  18
ENDBRANCH  15  17
ENDBRANCH  13  15
ENDBRANCH  11  13
ENDBRANCH   1  11
BRANCH   8  24
HETATM   24  N6  UNL     1      24.231   1.140  53.289  1.00  0.00    -0.340 N 
HETATM   25  H16 UNL     1      23.923   1.469  54.221  1.00  0.00     0.167 HD
BRANCH  24  26
HETATM   26  C13 UNL     1      25.555   0.646  53.409  1.00  0.00     0.033 A 
HETATM   27  C14 UNL     1      26.550   1.157  54.201  1.00  0.00     0.031 A 
HETATM   28  C15 UNL     1      27.817   0.666  54.319  1.00  0.00     0.026 A 
HETATM   29  C16 UNL     1      28.132  -0.467  53.560  1.00  0.00     0.034 A 
HETATM   30 CL1  UNL     1      29.768  -1.089  53.722  1.00  0.00    -0.084 Cl
HETATM   31  C17 UNL     1      27.165  -1.023  52.746  1.00  0.00     0.026 A 
HETATM   32  C18 UNL     1      25.883  -0.485  52.658  1.00  0.00     0.031 A 
ENDBRANCH  24  26
ENDBRANCH   8  24
TORSDOF 7
ENDMDL
MODEL 8
REMARK VINA RESULT:      -7.5      1.553      2.104
REMARK  7 active torsions:
REMARK  status: ('A' for Active; 'I' for Inactive)
REMARK    1  A    between atoms: C1_2  and  N1_3 
REMARK    2  A    between atoms: C1_2  and  N3_11 
REMARK    3  A    between atoms: N1_3  and  C2_4 
REMARK    4  A    between atoms: C2_4  and  N2_5 
REMARK    5  A    between atoms: N3_11  and  C7_12 
REMARK    6  A    between atoms: C12_19  and  N6_20 
REMARK    7  A    between atoms: N6_20  and  C13_21 
ROOT
HETATM    1  C7  UNL     1      22.908   0.852  51.752  1.00  0.00     0.035 A 
HETATM    2  C8  UNL     1      23.260   0.127  52.896  1.00  0.00     0.032 A 
HETATM    3  C9  UNL     1      24.532   0.250  53.409  1.00  0.00     0.035 A 
HETATM    4  C10 UNL     1      25.425   1.087  52.779  1.00  0.00     0.072 A 
HETATM    5  N4  UNL     1      26.662   1.148  53.362  1.00  0.00    -0.241 NA
HETATM    6  C11 UNL     1      27.578   1.942  52.804  1.00  0.00     0.236 A 
HETATM    7  N5  UNL     1      27.245   2.625  51.722  1.00  0.00    -0.224 NA
HETATM    8  C12 UNL     1      26.073   2.629  51.090  1.00  0.00     0.142 A 
HETATM    9  C19 UNL     1      25.133   1.821  51.654  1.00  0.00     0.041 A 
HETATM   10  C20 UNL     1      23.853   1.667  51.177  1.00  0.00     0.047 A 
ENDROOT
BRANCH   1  11
HETATM   11  N3  UNL     1      21.581   0.612  51.361  1.00  0.00    -0.333 N 
HETATM   12  H12 UNL     1      21.325   0.196  50.461  1.00  0.00     0.168 HD
BRANCH  11  13
HETATM   13  C1  UNL     1      20.586   0.990  52.303  1.00  0.00     0.173 C 
HETATM   14  S1  UNL     1      19.610  -0.116  53.047  1.00  0.00    -0.041 SA
BRANCH  13  15
HETATM   15  N1  UNL     1      20.389   2.376  52.647  1.00  0.00    -0.351 N 
HETATM   16  H1  UNL     1      20.920   2.782  53.455  1.00  0.00     0.163 HD
BRANCH  15  17
HETATM   17  C2  UNL     1      19.466   3.210  51.890  1.00  0.00     0.243 C 
BRANCH  17  18
HETATM   18  N2  UNL     1      20.209   4.111  51.085  1.00  0.00    -0.393 N 
HETATM   19  C3  UNL     1      20.178   3.919  49.680  1.00  0.00     0.144 C 
HETATM   20  C4  UNL     1      21.505   3.667  49.030  1.00  0.00     0.187 C 
HETATM   21  O1  UNL     1      22.596   4.139  49.714  1.00  0.00    -0.388 OA
HETATM   22  C5  UNL     1      22.347   5.174  50.583  1.00  0.00     0.187 C 
HETATM   23  C6  UNL     1      21.370   4.703  51.641  1.00  0.00     0.144 C 
ENDBRANCH  17  18
ENDBRANCH  15  17
ENDBRANCH  13  15
ENDBRANCH  11  13
ENDBRANCH   1  11
BRANCH   8  24
HETATM   24  N6  UNL     1      25.767   3.374  49.928  1.00  0.00    -0.340 N 
HETATM   25  H16 UNL     1      24.980   3.132  49.300  1.00  0.00     0.167 HD
BRANCH  24  26
HETATM   26  C13 UNL     1      26.413   4.524  49.405  1.00  0.00     0.033 A 
HETATM   27  C14 UNL     1      27.619   4.560  48.757  1.00  0.00     0.031 A 
HETATM   28  C15 UNL     1      28.226   5.669  48.247  1.00  0.00     0.026 A 
HETATM   29  C16 UNL     1      27.553   6.888  48.399  1.00  0.00     0.034 A 
HETATM   30 CL1  UNL     1      28.347   8.309  47.736  1.00  0.00    -0.084 Cl
HETATM   31  C17 UNL     1      26.333   6.907  49.044  1.00  0.00     0.026 A 
HETATM   32  C18 UNL     1      25.752   5.746  49.550  1.00  0.00     0.031 A 
ENDBRANCH  24  26
ENDBRANCH   8  24
TORSDOF 7
ENDMDL
MODEL 9
REMARK VINA RESULT:      -7.4      3.814      7.497
REMARK  7 active torsions:
REMARK  status: ('A' for Active; 'I' for Inactive)
REMARK    1  A    between atoms: C1_2  and  N1_3 
REMARK    2  A    between atoms: C1_2  and  N3_11 
REMARK    3  A    between atoms: N1_3  and  C2_4 
REMARK    4  A    between atoms: C2_4  and  N2_5 
REMARK    5  A    between atoms: N3_11  and  C7_12 
REMARK    6  A    between atoms: C12_19  and  N6_20 
REMARK    7  A    between atoms: N6_20  and  C13_21 
ROOT
HETATM    1  C7  UNL     1      25.454   3.767  50.265  1.00  0.00     0.035 A 
HETATM    2  C8  UNL     1      25.718   5.097  49.918  1.00  0.00     0.032 A 
HETATM    3  C9  UNL     1      24.879   5.745  49.040  1.00  0.00     0.035 A 
HETATM    4  C10 UNL     1      23.798   5.063  48.526  1.00  0.00     0.072 A 
HETATM    5  N4  UNL     1      23.019   5.788  47.666  1.00  0.00    -0.241 NA
HETATM    6  C11 UNL     1      21.953   5.190  47.132  1.00  0.00     0.236 A 
HETATM    7  N5  UNL     1      21.704   3.934  47.460  1.00  0.00    -0.224 NA
HETATM    8  C12 UNL     1      22.402   3.154  48.284  1.00  0.00     0.142 A 
HETATM    9  C19 UNL     1      23.493   3.759  48.833  1.00  0.00     0.041 A 
HETATM   10  C20 UNL     1      24.357   3.151  49.713  1.00  0.00     0.047 A 
ENDROOT
BRANCH   1  11
HETATM   11  N3  UNL     1      26.403   3.257  51.165  1.00  0.00    -0.333 N 
HETATM   12  H12 UNL     1      27.378   3.570  51.194  1.00  0.00     0.168 HD
BRANCH  11  13
HETATM   13  C1  UNL     1      25.928   2.256  52.056  1.00  0.00     0.173 C 
HETATM   14  S1  UNL     1      24.855   2.590  53.267  1.00  0.00    -0.041 SA
BRANCH  13  15
HETATM   15  N1  UNL     1      26.375   0.891  51.933  1.00  0.00    -0.351 N 
HETATM   16  H1  UNL     1      26.948   0.615  51.100  1.00  0.00     0.163 HD
BRANCH  15  17
HETATM   17  C2  UNL     1      26.038  -0.099  52.946  1.00  0.00     0.243 C 
BRANCH  17  18
HETATM   18  N2  UNL     1      27.216  -0.471  53.641  1.00  0.00    -0.393 N 
HETATM   19  C3  UNL     1      27.692   0.405  54.650  1.00  0.00     0.144 C 
HETATM   20  C4  UNL     1      29.074   0.947  54.442  1.00  0.00     0.187 C 
HETATM   21  O1  UNL     1      29.888   0.190  53.639  1.00  0.00    -0.388 OA
HETATM   22  C5  UNL     1      29.561  -1.141  53.551  1.00  0.00     0.187 C 
HETATM   23  C6  UNL     1      28.171  -1.267  52.960  1.00  0.00     0.144 C 
ENDBRANCH  17  18
ENDBRANCH  15  17
ENDBRANCH  13  15
ENDBRANCH  11  13
ENDBRANCH   1  11
BRANCH   8  24
HETATM   24  N6  UNL     1      22.100   1.809  48.599  1.00  0.00    -0.340 N 
HETATM   25  H16 UNL     1      22.553   1.009  48.124  1.00  0.00     0.167 HD
BRANCH  24  26
HETATM   26  C13 UNL     1      21.186   1.297  49.556  1.00  0.00     0.033 A 
HETATM   27  C14 UNL     1      19.819   1.302  49.465  1.00  0.00     0.031 A 
HETATM   28  C15 UNL     1      18.949   0.795  50.384  1.00  0.00     0.026 A 
HETATM   29  C16 UNL     1      19.505   0.215  51.532  1.00  0.00     0.034 A 
HETATM   30 CL1  UNL     1      18.372  -0.434  52.708  1.00  0.00    -0.084 Cl
HETATM   31  C17 UNL     1      20.877   0.184  51.673  1.00  0.00     0.026 A 
HETATM   32  C18 UNL     1      21.727   0.715  50.704  1.00  0.00     0.031 A 
ENDBRANCH  24  26
ENDBRANCH   8  24
TORSDOF 7
ENDMDL
