MODEL 1
REMARK VINA RESULT:      -7.1      0.000      0.000
REMARK  4 active torsions:
REMARK  status: ('A' for Active; 'I' for Inactive)
REMARK    1  A    between atoms: C6_7  and  C7_8 
REMARK       I    between atoms: C7_8  and  N2_10 
REMARK    2  A    between atoms: N2_10  and  C8_11 
REMARK    3  A    between atoms: C12_16  and  O2_18 
REMARK    4  A    between atoms: O2_18  and  C14_19 
ROOT
HETATM    1  C8  UNL     1      25.535   2.552  51.484  1.00  0.00     0.363 C 
HETATM    2  N3  UNL     1      24.306   3.287  51.951  1.00  0.00     0.122 N 
HETATM    3  C9  UNL     1      24.433   3.341  53.452  1.00  0.00     0.311 C 
HETATM    4  C10 UNL     1      24.641   1.851  53.182  1.00  0.00    -0.025 C 
HETATM    5  C11 UNL     1      25.564   1.126  53.569  1.00  0.00     0.021 C 
HETATM    6  C12 UNL     1      26.268   1.694  52.350  1.00  0.00     0.125 C 
HETATM    7  C13 UNL     1      27.549   2.232  53.005  1.00  0.00     0.055 C 
HETATM    8  C15 UNL     1      23.378   2.148  52.388  1.00  0.00     0.311 C 
ENDROOT
BRANCH   1   9
HETATM    9  N2  UNL     1      26.255   3.654  50.853  1.00  0.00    -0.324 N 
HETATM   10  C7  UNL     1      26.046   4.088  49.518  1.00  0.00     0.255 C 
HETATM   11  O1  UNL     1      25.137   3.333  49.042  1.00  0.00    -0.268 OA
HETATM   12  H7  UNL     1      26.949   4.077  51.532  1.00  0.00     0.165 HD
BRANCH  10  13
HETATM   13  C6  UNL     1      26.797   5.192  48.958  1.00  0.00     0.056 A 
HETATM   14  C2  UNL     1      26.214   6.430  48.843  1.00  0.00     0.046 A 
HETATM   15  C1  UNL     1      24.824   6.727  49.250  1.00  0.00     0.071 C 
HETATM   16  N1  UNL     1      26.993   7.424  48.311  1.00  0.00    -0.265 NA
HETATM   17  C3  UNL     1      28.255   7.173  47.933  1.00  0.00     0.117 A 
HETATM   18  C4  UNL     1      28.847   5.956  48.038  1.00  0.00     0.020 A 
HETATM   19  C5  UNL     1      28.089   4.899  48.577  1.00  0.00     0.020 A 
ENDBRANCH  10  13
ENDBRANCH   1   9
BRANCH   6  20
HETATM   20  O2  UNL     1      26.648   0.450  51.742  1.00  0.00    -0.358 OA
BRANCH  20  21
HETATM   21  C14 UNL     1      27.268  -0.449  52.506  1.00  0.00     0.283 C 
HETATM   22 CL1  UNL     1      26.853  -2.137  52.387  1.00  0.00    -0.102 Cl
ENDBRANCH  20  21
ENDBRANCH   6  20
TORSDOF 4
ENDMDL
MODEL 2
REMARK VINA RESULT:      -6.9      3.349      6.320
REMARK  4 active torsions:
REMARK  status: ('A' for Active; 'I' for Inactive)
REMARK    1  A    between atoms: C6_7  and  C7_8 
REMARK       I    between atoms: C7_8  and  N2_10 
REMARK    2  A    between atoms: N2_10  and  C8_11 
REMARK    3  A    between atoms: C12_16  and  O2_18 
REMARK    4  A    between atoms: O2_18  and  C14_19 
ROOT
HETATM    1  C8  UNL     1      24.349   3.678  50.939  1.00  0.00     0.363 C 
HETATM    2  N3  UNL     1      23.344   2.663  50.459  1.00  0.00     0.122 N 
HETATM    3  C9  UNL     1      23.465   2.677  48.957  1.00  0.00     0.311 C 
HETATM    4  C10 UNL     1      23.288   4.164  49.262  1.00  0.00    -0.025 C 
HETATM    5  C11 UNL     1      23.990   5.110  48.890  1.00  0.00     0.021 C 
HETATM    6  C12 UNL     1      24.828   4.714  50.092  1.00  0.00     0.125 C 
HETATM    7  C13 UNL     1      26.197   4.537  49.418  1.00  0.00     0.055 C 
HETATM    8  C15 UNL     1      22.151   3.536  50.054  1.00  0.00     0.311 C 
ENDROOT
BRANCH   1   9
HETATM    9  N2  UNL     1      25.333   2.782  51.540  1.00  0.00    -0.324 N 
HETATM   10  C7  UNL     1      25.435   2.520  52.931  1.00  0.00     0.255 C 
HETATM   11  O1  UNL     1      24.516   3.208  53.485  1.00  0.00    -0.268 OA
HETATM   12  H7  UNL     1      25.953   2.363  50.792  1.00  0.00     0.165 HD
BRANCH  10  13
HETATM   13  C6  UNL     1      26.436   1.617  53.456  1.00  0.00     0.056 A 
HETATM   14  C2  UNL     1      26.085   0.343  53.828  1.00  0.00     0.046 A 
HETATM   15  C1  UNL     1      24.709  -0.190  53.743  1.00  0.00     0.071 C 
HETATM   16  N1  UNL     1      27.092  -0.452  54.308  1.00  0.00    -0.265 NA
HETATM   17  C3  UNL     1      28.347   0.014  54.397  1.00  0.00     0.117 A 
HETATM   18  C4  UNL     1      28.712   1.271  54.035  1.00  0.00     0.020 A 
HETATM   19  C5  UNL     1      27.714   2.129  53.537  1.00  0.00     0.020 A 
ENDBRANCH  10  13
ENDBRANCH   1   9
BRANCH   6  20
HETATM   20  O2  UNL     1      24.883   5.999  50.729  1.00  0.00    -0.358 OA
BRANCH  20  21
HETATM   21  C14 UNL     1      25.616   6.949  50.147  1.00  0.00     0.283 C 
HETATM   22 CL1  UNL     1      25.066   8.602  50.142  1.00  0.00    -0.102 Cl
ENDBRANCH  20  21
ENDBRANCH   6  20
TORSDOF 4
ENDMDL
MODEL 3
REMARK VINA RESULT:      -6.8      3.567      5.636
REMARK  4 active torsions:
REMARK  status: ('A' for Active; 'I' for Inactive)
REMARK    1  A    between atoms: C6_7  and  C7_8 
REMARK       I    between atoms: C7_8  and  N2_10 
REMARK    2  A    between atoms: N2_10  and  C8_11 
REMARK    3  A    between atoms: C12_16  and  O2_18 
REMARK    4  A    between atoms: O2_18  and  C14_19 
ROOT
HETATM    1  C8  UNL     1      24.401   3.595  51.324  1.00  0.00     0.363 C 
HETATM    2  N3  UNL     1      24.156   4.798  52.197  1.00  0.00     0.122 N 
HETATM    3  C9  UNL     1      22.729   4.656  52.662  1.00  0.00     0.311 C 
HETATM    4  C10 UNL     1      22.574   4.492  51.150  1.00  0.00    -0.025 C 
HETATM    5  C11 UNL     1      22.003   3.588  50.533  1.00  0.00     0.021 C 
HETATM    6  C12 UNL     1      23.332   2.879  50.719  1.00  0.00     0.125 C 
HETATM    7  C13 UNL     1      22.853   1.577  51.380  1.00  0.00     0.055 C 
HETATM    8  C15 UNL     1      23.419   5.754  51.252  1.00  0.00     0.311 C 
ENDROOT
BRANCH   1   9
HETATM    9  N2  UNL     1      25.314   2.850  52.186  1.00  0.00    -0.324 N 
HETATM   10  C7  UNL     1      26.631   2.467  51.819  1.00  0.00     0.255 C 
HETATM   11  O1  UNL     1      26.807   2.908  50.636  1.00  0.00    -0.268 OA
HETATM   12  H7  UNL     1      24.853   2.639  53.115  1.00  0.00     0.165 HD
BRANCH  10  13
HETATM   13  C6  UNL     1      27.482   1.730  52.728  1.00  0.00     0.056 A 
HETATM   14  C2  UNL     1      27.378   0.364  52.811  1.00  0.00     0.046 A 
HETATM   15  C1  UNL     1      26.417  -0.438  52.024  1.00  0.00     0.071 C 
HETATM   16  N1  UNL     1      28.224  -0.261  53.689  1.00  0.00    -0.265 NA
HETATM   17  C3  UNL     1      29.100   0.450  54.415  1.00  0.00     0.117 A 
HETATM   18  C4  UNL     1      29.217   1.801  54.346  1.00  0.00     0.020 A 
HETATM   19  C5  UNL     1      28.368   2.492  53.461  1.00  0.00     0.020 A 
ENDBRANCH  10  13
ENDBRANCH   1   9
BRANCH   6  20
HETATM   20  O2  UNL     1      23.571   2.541  49.344  1.00  0.00    -0.358 OA
BRANCH  20  21
HETATM   21  C14 UNL     1      22.532   2.130  48.618  1.00  0.00     0.283 C 
HETATM   22 CL1  UNL     1      22.241   2.810  47.040  1.00  0.00    -0.102 Cl
ENDBRANCH  20  21
ENDBRANCH   6  20
TORSDOF 4
ENDMDL
MODEL 4
REMARK VINA RESULT:      -6.7      5.685      7.949
REMARK  4 active torsions:
REMARK  status: ('A' for Active; 'I' for Inactive)
REMARK    1  A    between atoms: C6_7  and  C7_8 
REMARK       I    between atoms: C7_8  and  N2_10 
REMARK    2  A    between atoms: N2_10  and  C8_11 
REMARK    3  A    between atoms: C12_16  and  O2_18 
REMARK    4  A    between atoms: O2_18  and  C14_19 
ROOT
HETATM    1  C8  UNL     1      32.984   4.768  48.044  1.00  0.00     0.363 C 
HETATM    2  N3  UNL     1      33.926   5.875  48.441  1.00  0.00     0.122 N 
HETATM    3  C9  UNL     1      34.873   6.016  47.276  1.00  0.00     0.311 C 
HETATM    4  C10 UNL     1      34.951   4.515  47.552  1.00  0.00    -0.025 C 
HETATM    5  C11 UNL     1      34.804   3.582  46.756  1.00  0.00     0.021 C 
HETATM    6  C12 UNL     1      33.334   3.807  47.055  1.00  0.00     0.125 C 
HETATM    7  C13 UNL     1      32.793   3.991  45.630  1.00  0.00     0.055 C 
HETATM    8  C15 UNL     1      35.156   5.108  48.938  1.00  0.00     0.311 C 
ENDROOT
BRANCH   1   9
HETATM    9  N2  UNL     1      31.767   5.547  47.833  1.00  0.00    -0.324 N 
HETATM   10  C7  UNL     1      30.854   5.901  48.860  1.00  0.00     0.255 C 
HETATM   11  O1  UNL     1      31.328   5.409  49.936  1.00  0.00    -0.268 OA
HETATM   12  H7  UNL     1      31.668   5.805  46.811  1.00  0.00     0.165 HD
BRANCH  10  13
HETATM   13  C6  UNL     1      29.666   6.679  48.577  1.00  0.00     0.056 A 
HETATM   14  C2  UNL     1      29.710   8.049  48.644  1.00  0.00     0.046 A 
HETATM   15  C1  UNL     1      30.919   8.817  49.011  1.00  0.00     0.071 C 
HETATM   16  N1  UNL     1      28.547   8.712  48.355  1.00  0.00    -0.265 NA
HETATM   17  C3  UNL     1      27.438   8.033  48.024  1.00  0.00     0.117 A 
HETATM   18  C4  UNL     1      27.376   6.678  47.952  1.00  0.00     0.020 A 
HETATM   19  C5  UNL     1      28.544   5.949  48.243  1.00  0.00     0.020 A 
ENDBRANCH  10  13
ENDBRANCH   1   9
BRANCH   6  20
HETATM   20  O2  UNL     1      32.995   2.460  47.418  1.00  0.00    -0.358 OA
BRANCH  20  21
HETATM   21  C14 UNL     1      32.084   1.829  46.678  1.00  0.00     0.283 C 
HETATM   22 CL1  UNL     1      31.994   0.089  46.692  1.00  0.00    -0.102 Cl
ENDBRANCH  20  21
ENDBRANCH   6  20
TORSDOF 4
ENDMDL
MODEL 5
REMARK VINA RESULT:      -6.6      3.518      5.243
REMARK  4 active torsions:
REMARK  status: ('A' for Active; 'I' for Inactive)
REMARK    1  A    between atoms: C6_7  and  C7_8 
REMARK       I    between atoms: C7_8  and  N2_10 
REMARK    2  A    between atoms: N2_10  and  C8_11 
REMARK    3  A    between atoms: C12_16  and  O2_18 
REMARK    4  A    between atoms: O2_18  and  C14_19 
ROOT
HETATM    1  C8  UNL     1      22.334   1.060  52.979  1.00  0.00     0.363 C 
HETATM    2  N3  UNL     1      23.106  -0.084  53.582  1.00  0.00     0.122 N 
HETATM    3  C9  UNL     1      22.424  -1.326  53.068  1.00  0.00     0.311 C 
HETATM    4  C10 UNL     1      21.240  -0.538  53.628  1.00  0.00    -0.025 C 
HETATM    5  C11 UNL     1      20.178  -0.252  53.066  1.00  0.00     0.021 C 
HETATM    6  C12 UNL     1      20.998   0.901  52.517  1.00  0.00     0.125 C 
HETATM    7  C13 UNL     1      20.759   0.709  51.012  1.00  0.00     0.055 C 
HETATM    8  C15 UNL     1      22.235  -0.485  54.778  1.00  0.00     0.311 C 
ENDROOT
BRANCH   1   9
HETATM    9  N2  UNL     1      23.327   1.550  52.027  1.00  0.00    -0.324 N 
HETATM   10  C7  UNL     1      24.036   2.771  52.165  1.00  0.00     0.255 C 
HETATM   11  O1  UNL     1      23.624   3.295  53.251  1.00  0.00    -0.268 OA
HETATM   12  H7  UNL     1      23.437   0.867  51.226  1.00  0.00     0.165 HD
BRANCH  10  13
HETATM   13  C6  UNL     1      25.009   3.193  51.180  1.00  0.00     0.056 A 
HETATM   14  C2  UNL     1      26.266   2.640  51.176  1.00  0.00     0.046 A 
HETATM   15  C1  UNL     1      26.720   1.619  52.145  1.00  0.00     0.071 C 
HETATM   16  N1  UNL     1      27.126   3.086  50.208  1.00  0.00    -0.265 NA
HETATM   17  C3  UNL     1      26.735   4.015  49.323  1.00  0.00     0.117 A 
HETATM   18  C4  UNL     1      25.497   4.573  49.312  1.00  0.00     0.020 A 
HETATM   19  C5  UNL     1      24.575   4.151  50.288  1.00  0.00     0.020 A 
ENDBRANCH  10  13
ENDBRANCH   1   9
BRANCH   6  20
HETATM   20  O2  UNL     1      20.124   1.971  52.906  1.00  0.00    -0.358 OA
BRANCH  20  21
HETATM   21  C14 UNL     1      19.761   2.846  51.969  1.00  0.00     0.283 C 
HETATM   22 CL1  UNL     1      20.702   4.288  51.703  1.00  0.00    -0.102 Cl
ENDBRANCH  20  21
ENDBRANCH   6  20
TORSDOF 4
ENDMDL
MODEL 6
REMARK VINA RESULT:      -6.5      4.316      6.739
REMARK  4 active torsions:
REMARK  status: ('A' for Active; 'I' for Inactive)
REMARK    1  A    between atoms: C6_7  and  C7_8 
REMARK       I    between atoms: C7_8  and  N2_10 
REMARK    2  A    between atoms: N2_10  and  C8_11 
REMARK    3  A    between atoms: C12_16  and  O2_18 
REMARK    4  A    between atoms: O2_18  and  C14_19 
ROOT
HETATM    1  C8  UNL     1      21.361   1.892  51.056  1.00  0.00     0.363 C 
HETATM    2  N3  UNL     1      20.330   1.295  51.978  1.00  0.00     0.122 N 
HETATM    3  C9  UNL     1      19.398   0.529  51.074  1.00  0.00     0.311 C 
HETATM    4  C10 UNL     1      19.429   1.896  50.391  1.00  0.00    -0.025 C 
HETATM    5  C11 UNL     1      19.662   2.154  49.205  1.00  0.00     0.021 C 
HETATM    6  C12 UNL     1      21.105   2.082  49.670  1.00  0.00     0.125 C 
HETATM    7  C13 UNL     1      21.658   1.051  48.674  1.00  0.00     0.055 C 
HETATM    8  C15 UNL     1      19.153   2.267  51.840  1.00  0.00     0.311 C 
ENDROOT
BRANCH   1   9
HETATM    9  N2  UNL     1      22.519   1.084  51.428  1.00  0.00    -0.324 N 
HETATM   10  C7  UNL     1      23.544   1.511  52.311  1.00  0.00     0.255 C 
HETATM   11  O1  UNL     1      23.225   2.690  52.676  1.00  0.00    -0.268 OA
HETATM   12  H7  UNL     1      22.480   0.142  50.946  1.00  0.00     0.165 HD
BRANCH  10  13
HETATM   13  C6  UNL     1      24.664   0.653  52.636  1.00  0.00     0.056 A 
HETATM   14  C2  UNL     1      24.509  -0.364  53.545  1.00  0.00     0.046 A 
HETATM   15  C1  UNL     1      23.242  -0.651  54.251  1.00  0.00     0.071 C 
HETATM   16  N1  UNL     1      25.613  -1.136  53.792  1.00  0.00    -0.265 NA
HETATM   17  C3  UNL     1      26.772  -0.889  53.165  1.00  0.00     0.117 A 
HETATM   18  C4  UNL     1      26.945   0.112  52.264  1.00  0.00     0.020 A 
HETATM   19  C5  UNL     1      25.841   0.936  51.975  1.00  0.00     0.020 A 
ENDBRANCH  10  13
ENDBRANCH   1   9
BRANCH   6  20
HETATM   20  O2  UNL     1      21.538   3.358  49.174  1.00  0.00    -0.358 OA
BRANCH  20  21
HETATM   21  C14 UNL     1      22.674   3.398  48.477  1.00  0.00     0.283 C 
HETATM   22 CL1  UNL     1      24.205   3.517  49.300  1.00  0.00    -0.102 Cl
ENDBRANCH  20  21
ENDBRANCH   6  20
TORSDOF 4
ENDMDL
MODEL 7
REMARK VINA RESULT:      -6.5      3.632      6.556
REMARK  4 active torsions:
REMARK  status: ('A' for Active; 'I' for Inactive)
REMARK    1  A    between atoms: C6_7  and  C7_8 
REMARK       I    between atoms: C7_8  and  N2_10 
REMARK    2  A    between atoms: N2_10  and  C8_11 
REMARK    3  A    between atoms: C12_16  and  O2_18 
REMARK    4  A    between atoms: O2_18  and  C14_19 
ROOT
HETATM    1  C8  UNL     1      22.463   2.444  50.177  1.00  0.00     0.363 C 
HETATM    2  N3  UNL     1      21.924   1.367  49.272  1.00  0.00     0.122 N 
HETATM    3  C9  UNL     1      22.243   1.837  47.876  1.00  0.00     0.311 C 
HETATM    4  C10 UNL     1      21.548   3.067  48.460  1.00  0.00    -0.025 C 
HETATM    5  C11 UNL     1      21.947   4.236  48.474  1.00  0.00     0.021 C 
HETATM    6  C12 UNL     1      22.691   3.768  49.711  1.00  0.00     0.125 C 
HETATM    7  C13 UNL     1      24.123   4.177  49.336  1.00  0.00     0.055 C 
HETATM    8  C15 UNL     1      20.580   1.950  48.819  1.00  0.00     0.311 C 
ENDROOT
BRANCH   1   9
HETATM    9  N2  UNL     1      23.591   1.727  50.764  1.00  0.00    -0.324 N 
HETATM   10  C7  UNL     1      23.689   1.372  52.135  1.00  0.00     0.255 C 
HETATM   11  O1  UNL     1      22.622   1.799  52.685  1.00  0.00    -0.268 OA
HETATM   12  H7  UNL     1      24.318   1.516  50.025  1.00  0.00     0.165 HD
BRANCH  10  13
HETATM   13  C6  UNL     1      24.839   0.658  52.648  1.00  0.00     0.056 A 
HETATM   14  C2  UNL     1      24.669  -0.353  53.561  1.00  0.00     0.046 A 
HETATM   15  C1  UNL     1      23.354  -0.773  54.089  1.00  0.00     0.071 C 
HETATM   16  N1  UNL     1      25.806  -0.984  53.991  1.00  0.00    -0.265 NA
HETATM   17  C3  UNL     1      27.009  -0.615  53.527  1.00  0.00     0.117 A 
HETATM   18  C4  UNL     1      27.196   0.383  52.625  1.00  0.00     0.020 A 
HETATM   19  C5  UNL     1      26.060   1.065  52.152  1.00  0.00     0.020 A 
ENDBRANCH  10  13
ENDBRANCH   1   9
BRANCH   6  20
HETATM   20  O2  UNL     1      22.231   4.784  50.616  1.00  0.00    -0.358 OA
BRANCH  20  21
HETATM   21  C14 UNL     1      23.149   5.445  51.322  1.00  0.00     0.283 C 
HETATM   22 CL1  UNL     1      23.562   4.924  52.932  1.00  0.00    -0.102 Cl
ENDBRANCH  20  21
ENDBRANCH   6  20
TORSDOF 4
ENDMDL
MODEL 8
REMARK VINA RESULT:      -6.4      3.229      6.928
REMARK  4 active torsions:
REMARK  status: ('A' for Active; 'I' for Inactive)
REMARK    1  A    between atoms: C6_7  and  C7_8 
REMARK       I    between atoms: C7_8  and  N2_10 
REMARK    2  A    between atoms: N2_10  and  C8_11 
REMARK    3  A    between atoms: C12_16  and  O2_18 
REMARK    4  A    between atoms: O2_18  and  C14_19 
ROOT
HETATM    1  C8  UNL     1      22.993   4.399  51.061  1.00  0.00     0.363 C 
HETATM    2  N3  UNL     1      21.631   5.043  51.085  1.00  0.00     0.122 N 
HETATM    3  C9  UNL     1      21.258   5.216  49.634  1.00  0.00     0.311 C 
HETATM    4  C10 UNL     1      22.646   5.855  49.669  1.00  0.00    -0.025 C 
HETATM    5  C11 UNL     1      23.615   5.620  48.939  1.00  0.00     0.021 C 
HETATM    6  C12 UNL     1      23.843   4.489  49.924  1.00  0.00     0.125 C 
HETATM    7  C13 UNL     1      23.903   3.297  48.958  1.00  0.00     0.055 C 
HETATM    8  C15 UNL     1      21.954   6.523  50.848  1.00  0.00     0.311 C 
ENDROOT
BRANCH   1   9
HETATM    9  N2  UNL     1      22.640   3.067  51.542  1.00  0.00    -0.324 N 
HETATM   10  C7  UNL     1      23.223   2.444  52.677  1.00  0.00     0.255 C 
HETATM   11  O1  UNL     1      24.067   3.279  53.141  1.00  0.00    -0.268 OA
HETATM   12  H7  UNL     1      21.895   2.638  50.925  1.00  0.00     0.165 HD
BRANCH  10  13
HETATM   13  C6  UNL     1      22.823   1.118  53.097  1.00  0.00     0.056 A 
HETATM   14  C2  UNL     1      23.750   0.108  53.160  1.00  0.00     0.046 A 
HETATM   15  C1  UNL     1      25.175   0.275  52.803  1.00  0.00     0.071 C 
HETATM   16  N1  UNL     1      23.293  -1.115  53.575  1.00  0.00    -0.265 NA
HETATM   17  C3  UNL     1      22.003  -1.288  53.898  1.00  0.00     0.117 A 
HETATM   18  C4  UNL     1      21.072  -0.301  53.842  1.00  0.00     0.020 A 
HETATM   19  C5  UNL     1      21.489   0.975  53.420  1.00  0.00     0.020 A 
ENDBRANCH  10  13
ENDBRANCH   1   9
BRANCH   6  20
HETATM   20  O2  UNL     1      25.210   4.781  50.251  1.00  0.00    -0.358 OA
BRANCH  20  21
HETATM   21  C14 UNL     1      26.149   3.961  49.778  1.00  0.00     0.283 C 
HETATM   22 CL1  UNL     1      27.439   4.583  48.786  1.00  0.00    -0.102 Cl
ENDBRANCH  20  21
ENDBRANCH   6  20
TORSDOF 4
ENDMDL
MODEL 9
REMARK VINA RESULT:      -6.4      1.356      2.329
REMARK  4 active torsions:
REMARK  status: ('A' for Active; 'I' for Inactive)
REMARK    1  A    between atoms: C6_7  and  C7_8 
REMARK       I    between atoms: C7_8  and  N2_10 
REMARK    2  A    between atoms: N2_10  and  C8_11 
REMARK    3  A    between atoms: C12_16  and  O2_18 
REMARK    4  A    between atoms: O2_18  and  C14_19 
ROOT
HETATM    1  C8  UNL     1      24.225   1.985  51.490  1.00  0.00     0.363 C 
HETATM    2  N3  UNL     1      22.725   2.112  51.564  1.00  0.00     0.122 N 
HETATM    3  C9  UNL     1      22.376   1.775  52.991  1.00  0.00     0.311 C 
HETATM    4  C10 UNL     1      23.242   0.578  52.599  1.00  0.00    -0.025 C 
HETATM    5  C11 UNL     1      24.224   0.117  53.190  1.00  0.00     0.021 C 
HETATM    6  C12 UNL     1      24.957   1.206  52.428  1.00  0.00     0.125 C 
HETATM    7  C13 UNL     1      25.656   1.925  53.592  1.00  0.00     0.055 C 
HETATM    8  C15 UNL     1      22.258   0.657  51.441  1.00  0.00     0.311 C 
ENDROOT
BRANCH   1   9
HETATM    9  N2  UNL     1      24.582   3.394  51.352  1.00  0.00    -0.324 N 
HETATM   10  C7  UNL     1      24.725   4.067  50.110  1.00  0.00     0.255 C 
HETATM   11  O1  UNL     1      24.477   3.199  49.211  1.00  0.00    -0.268 OA
HETATM   12  H7  UNL     1      24.719   3.834  52.305  1.00  0.00     0.165 HD
BRANCH  10  13
HETATM   13  C6  UNL     1      25.080   5.468  50.049  1.00  0.00     0.056 A 
HETATM   14  C2  UNL     1      26.236   5.858  49.419  1.00  0.00     0.046 A 
HETATM   15  C1  UNL     1      27.186   4.917  48.788  1.00  0.00     0.071 C 
HETATM   16  N1  UNL     1      26.497   7.202  49.398  1.00  0.00    -0.265 NA
HETATM   17  C3  UNL     1      25.650   8.071  49.969  1.00  0.00     0.117 A 
HETATM   18  C4  UNL     1      24.503   7.705  50.596  1.00  0.00     0.020 A 
HETATM   19  C5  UNL     1      24.189   6.334  50.649  1.00  0.00     0.020 A 
ENDBRANCH  10  13
ENDBRANCH   1   9
BRANCH   6  20
HETATM   20  O2  UNL     1      25.968   0.384  51.828  1.00  0.00    -0.358 OA
BRANCH  20  21
HETATM   21  C14 UNL     1      26.778  -0.295  52.641  1.00  0.00     0.283 C 
HETATM   22 CL1  UNL     1      26.946  -2.021  52.472  1.00  0.00    -0.102 Cl
ENDBRANCH  20  21
ENDBRANCH   6  20
TORSDOF 4
ENDMDL
