MODEL 1
REMARK VINA RESULT:      -9.1      0.000      0.000
REMARK  9 active torsions:
REMARK  status: ('A' for Active; 'I' for Inactive)
REMARK    1  A    between atoms: C6_6  and  C7_7 
REMARK    2  A    between atoms: C7_7  and  N1_8 
REMARK    3  A    between atoms: N1_8  and  C8_9 
REMARK    4  A    between atoms: N1_8  and  C15_17 
REMARK    5  A    between atoms: C8_9  and  C9_10 
REMARK    6  A    between atoms: C12_13  and  O1_14 
REMARK    7  A    between atoms: C15_17  and  N2_19 
REMARK    8  A    between atoms: N2_19  and  C16_20 
REMARK    9  A    between atoms: C22_26  and  O2_27 
ROOT
HETATM    1  N1  UNL     1      25.895   2.096  51.696  1.00  0.00    -0.349 N 
ENDROOT
BRANCH   1   2
HETATM    2  C7  UNL     1      26.297   2.279  50.289  1.00  0.00     0.167 C 
BRANCH   2   3
HETATM    3  C6  UNL     1      25.701   3.484  49.687  1.00  0.00    -0.007 A 
HETATM    4  C5  UNL     1      24.345   3.601  49.409  1.00  0.00     0.011 A 
HETATM    5  C4  UNL     1      23.726   4.699  48.850  1.00  0.00     0.001 A 
HETATM    6  C3  UNL     1      24.543   5.769  48.547  1.00  0.00     0.009 A 
HETATM    7  C2  UNL     1      25.904   5.724  48.797  1.00  0.00    -0.028 A 
HETATM    8  C1  UNL     1      26.765   6.885  48.462  1.00  0.00     0.051 C 
HETATM    9  C22 UNL     1      26.483   4.592  49.362  1.00  0.00     0.079 A 
BRANCH   9  10
HETATM   10  O2  UNL     1      27.827   4.499  49.629  1.00  0.00    -0.360 OA
HETATM   11  H22 UNL     1      28.444   3.799  49.234  1.00  0.00     0.217 HD
ENDBRANCH   9  10
ENDBRANCH   2   3
ENDBRANCH   1   2
BRANCH   1  12
HETATM   12  C8  UNL     1      27.125   1.890  52.398  1.00  0.00     0.164 C 
BRANCH  12  13
HETATM   13  C9  UNL     1      27.513   0.496  52.666  1.00  0.00    -0.040 A 
HETATM   14  C10 UNL     1      28.745   0.274  53.299  1.00  0.00     0.011 A 
HETATM   15  C11 UNL     1      29.175  -1.032  53.561  1.00  0.00     0.037 A 
HETATM   16  C12 UNL     1      28.362  -2.067  53.182  1.00  0.00     0.065 A 
HETATM   17  C13 UNL     1      27.127  -1.910  52.549  1.00  0.00     0.037 A 
HETATM   18  C14 UNL     1      26.722  -0.603  52.300  1.00  0.00     0.011 A 
BRANCH  16  19
HETATM   19  O1  UNL     1      28.731  -3.395  53.413  1.00  0.00    -0.361 OA
HETATM   20  H13 UNL     1      29.594  -3.717  52.992  1.00  0.00     0.217 HD
ENDBRANCH  16  19
ENDBRANCH  12  13
ENDBRANCH   1  12
BRANCH   1  21
HETATM   21  C15 UNL     1      24.575   2.124  52.224  1.00  0.00     0.174 C 
HETATM   22  S1  UNL     1      24.234   3.426  53.132  1.00  0.00    -0.041 SA
BRANCH  21  23
HETATM   23  N2  UNL     1      23.654   1.091  51.968  1.00  0.00    -0.333 N 
HETATM   24  H16 UNL     1      23.584   0.815  50.965  1.00  0.00     0.168 HD
BRANCH  23  25
HETATM   25  C16 UNL     1      22.799   0.351  52.807  1.00  0.00     0.034 A 
HETATM   26  C17 UNL     1      23.329  -0.469  53.807  1.00  0.00     0.029 A 
HETATM   27  C18 UNL     1      22.548  -1.212  54.650  1.00  0.00     0.002 A 
HETATM   28  C19 UNL     1      21.182  -1.172  54.537  1.00  0.00     0.000 A 
HETATM   29  C20 UNL     1      20.589  -0.391  53.581  1.00  0.00     0.002 A 
HETATM   30  C21 UNL     1      21.423   0.329  52.765  1.00  0.00     0.029 A 
ENDBRANCH  23  25
ENDBRANCH  21  23
ENDBRANCH   1  21
TORSDOF 9
ENDMDL
MODEL 2
REMARK VINA RESULT:      -8.9      2.232      4.561
REMARK  9 active torsions:
REMARK  status: ('A' for Active; 'I' for Inactive)
REMARK    1  A    between atoms: C6_6  and  C7_7 
REMARK    2  A    between atoms: C7_7  and  N1_8 
REMARK    3  A    between atoms: N1_8  and  C8_9 
REMARK    4  A    between atoms: N1_8  and  C15_17 
REMARK    5  A    between atoms: C8_9  and  C9_10 
REMARK    6  A    between atoms: C12_13  and  O1_14 
REMARK    7  A    between atoms: C15_17  and  N2_19 
REMARK    8  A    between atoms: N2_19  and  C16_20 
REMARK    9  A    between atoms: C22_26  and  O2_27 
ROOT
HETATM    1  N1  UNL     1      23.330   2.869  51.163  1.00  0.00    -0.349 N 
ENDROOT
BRANCH   1   2
HETATM    2  C7  UNL     1      23.801   2.730  49.773  1.00  0.00     0.167 C 
BRANCH   2   3
HETATM    3  C6  UNL     1      24.800   3.751  49.415  1.00  0.00    -0.007 A 
HETATM    4  C5  UNL     1      26.168   3.507  49.423  1.00  0.00     0.011 A 
HETATM    5  C4  UNL     1      27.153   4.416  49.097  1.00  0.00     0.001 A 
HETATM    6  C3  UNL     1      26.722   5.675  48.733  1.00  0.00     0.009 A 
HETATM    7  C2  UNL     1      25.374   5.989  48.702  1.00  0.00    -0.028 A 
HETATM    8  C1  UNL     1      24.933   7.350  48.307  1.00  0.00     0.051 C 
HETATM    9  C22 UNL     1      24.418   5.037  49.040  1.00  0.00     0.079 A 
BRANCH   9  10
HETATM   10  O2  UNL     1      23.070   5.300  49.024  1.00  0.00    -0.360 OA
HETATM   11  H22 UNL     1      22.563   5.656  48.221  1.00  0.00     0.217 HD
ENDBRANCH   9  10
ENDBRANCH   2   3
ENDBRANCH   1   2
BRANCH   1  12
HETATM   12  C8  UNL     1      22.041   2.246  51.170  1.00  0.00     0.164 C 
BRANCH  12  13
HETATM   13  C9  UNL     1      21.820   1.185  52.165  1.00  0.00    -0.040 A 
HETATM   14  C10 UNL     1      20.869   1.423  53.169  1.00  0.00     0.011 A 
HETATM   15  C11 UNL     1      20.631   0.459  54.155  1.00  0.00     0.037 A 
HETATM   16  C12 UNL     1      21.349  -0.708  54.103  1.00  0.00     0.065 A 
HETATM   17  C13 UNL     1      22.306  -1.002  53.130  1.00  0.00     0.037 A 
HETATM   18  C14 UNL     1      22.525  -0.027  52.162  1.00  0.00     0.011 A 
BRANCH  16  19
HETATM   19  O1  UNL     1      21.161  -1.712  55.056  1.00  0.00    -0.361 OA
HETATM   20  H13 UNL     1      21.855  -1.794  55.788  1.00  0.00     0.217 HD
ENDBRANCH  16  19
ENDBRANCH  12  13
ENDBRANCH   1  12
BRANCH   1  21
HETATM   21  C15 UNL     1      24.015   3.485  52.246  1.00  0.00     0.174 C 
HETATM   22  S1  UNL     1      23.346   4.866  52.775  1.00  0.00    -0.041 SA
BRANCH  21  23
HETATM   23  N2  UNL     1      25.181   2.924  52.799  1.00  0.00    -0.333 N 
HETATM   24  H16 UNL     1      25.861   3.623  53.169  1.00  0.00     0.168 HD
BRANCH  23  25
HETATM   25  C16 UNL     1      25.616   1.593  52.952  1.00  0.00     0.034 A 
HETATM   26  C17 UNL     1      26.268   0.939  51.904  1.00  0.00     0.029 A 
HETATM   27  C18 UNL     1      26.710  -0.353  51.995  1.00  0.00     0.002 A 
HETATM   28  C19 UNL     1      26.523  -1.065  53.153  1.00  0.00     0.000 A 
HETATM   29  C20 UNL     1      25.892  -0.490  54.224  1.00  0.00     0.002 A 
HETATM   30  C21 UNL     1      25.470   0.806  54.072  1.00  0.00     0.029 A 
ENDBRANCH  23  25
ENDBRANCH  21  23
ENDBRANCH   1  21
TORSDOF 9
ENDMDL
MODEL 3
REMARK VINA RESULT:      -8.8      1.741      5.861
REMARK  9 active torsions:
REMARK  status: ('A' for Active; 'I' for Inactive)
REMARK    1  A    between atoms: C6_6  and  C7_7 
REMARK    2  A    between atoms: C7_7  and  N1_8 
REMARK    3  A    between atoms: N1_8  and  C8_9 
REMARK    4  A    between atoms: N1_8  and  C15_17 
REMARK    5  A    between atoms: C8_9  and  C9_10 
REMARK    6  A    between atoms: C12_13  and  O1_14 
REMARK    7  A    between atoms: C15_17  and  N2_19 
REMARK    8  A    between atoms: N2_19  and  C16_20 
REMARK    9  A    between atoms: C22_26  and  O2_27 
ROOT
HETATM    1  N1  UNL     1      25.242   3.044  51.005  1.00  0.00    -0.349 N 
ENDROOT
BRANCH   1   2
HETATM    2  C7  UNL     1      26.606   2.973  51.561  1.00  0.00     0.167 C 
BRANCH   2   3
HETATM    3  C6  UNL     1      26.905   1.656  52.147  1.00  0.00    -0.007 A 
HETATM    4  C5  UNL     1      26.553   0.458  51.537  1.00  0.00     0.011 A 
HETATM    5  C4  UNL     1      26.805  -0.805  52.031  1.00  0.00     0.001 A 
HETATM    6  C3  UNL     1      27.467  -0.864  53.240  1.00  0.00     0.009 A 
HETATM    7  C2  UNL     1      27.849   0.288  53.905  1.00  0.00    -0.028 A 
HETATM    8  C1  UNL     1      28.560   0.202  55.204  1.00  0.00     0.051 C 
HETATM    9  C22 UNL     1      27.572   1.541  53.366  1.00  0.00     0.079 A 
BRANCH   9  10
HETATM   10  O2  UNL     1      27.930   2.712  53.986  1.00  0.00    -0.360 OA
HETATM   11  H22 UNL     1      27.798   2.904  54.973  1.00  0.00     0.217 HD
ENDBRANCH   9  10
ENDBRANCH   2   3
ENDBRANCH   1   2
BRANCH   1  12
HETATM   12  C8  UNL     1      25.435   3.285  49.607  1.00  0.00     0.164 C 
BRANCH  12  13
HETATM   13  C9  UNL     1      26.080   4.553  49.232  1.00  0.00    -0.040 A 
HETATM   14  C10 UNL     1      27.400   4.496  48.761  1.00  0.00     0.011 A 
HETATM   15  C11 UNL     1      28.072   5.672  48.409  1.00  0.00     0.037 A 
HETATM   16  C12 UNL     1      27.403   6.861  48.540  1.00  0.00     0.065 A 
HETATM   17  C13 UNL     1      26.091   6.981  49.002  1.00  0.00     0.037 A 
HETATM   18  C14 UNL     1      25.445   5.799  49.346  1.00  0.00     0.011 A 
BRANCH  16  19
HETATM   19  O1  UNL     1      28.015   8.072  48.207  1.00  0.00    -0.361 OA
HETATM   20  H13 UNL     1      29.013   8.059  48.042  1.00  0.00     0.217 HD
ENDBRANCH  16  19
ENDBRANCH  12  13
ENDBRANCH   1  12
BRANCH   1  21
HETATM   21  C15 UNL     1      24.017   2.902  51.712  1.00  0.00     0.174 C 
HETATM   22  S1  UNL     1      23.542   4.226  52.521  1.00  0.00    -0.041 SA
BRANCH  21  23
HETATM   23  N2  UNL     1      23.290   1.696  51.699  1.00  0.00    -0.333 N 
HETATM   24  H16 UNL     1      23.123   1.305  50.747  1.00  0.00     0.168 HD
BRANCH  23  25
HETATM   25  C16 UNL     1      22.740   0.907  52.727  1.00  0.00     0.034 A 
HETATM   26  C17 UNL     1      23.524  -0.047  53.380  1.00  0.00     0.029 A 
HETATM   27  C18 UNL     1      23.043  -0.843  54.385  1.00  0.00     0.002 A 
HETATM   28  C19 UNL     1      21.739  -0.722  54.794  1.00  0.00     0.000 A 
HETATM   29  C20 UNL     1      20.910   0.193  54.201  1.00  0.00     0.002 A 
HETATM   30  C21 UNL     1      21.448   0.959  53.201  1.00  0.00     0.029 A 
ENDBRANCH  23  25
ENDBRANCH  21  23
ENDBRANCH   1  21
TORSDOF 9
ENDMDL
MODEL 4
REMARK VINA RESULT:      -8.6      2.615      5.158
REMARK  9 active torsions:
REMARK  status: ('A' for Active; 'I' for Inactive)
REMARK    1  A    between atoms: C6_6  and  C7_7 
REMARK    2  A    between atoms: C7_7  and  N1_8 
REMARK    3  A    between atoms: N1_8  and  C8_9 
REMARK    4  A    between atoms: N1_8  and  C15_17 
REMARK    5  A    between atoms: C8_9  and  C9_10 
REMARK    6  A    between atoms: C12_13  and  O1_14 
REMARK    7  A    between atoms: C15_17  and  N2_19 
REMARK    8  A    between atoms: N2_19  and  C16_20 
REMARK    9  A    between atoms: C22_26  and  O2_27 
ROOT
HETATM    1  N1  UNL     1      24.453   2.714  51.705  1.00  0.00    -0.349 N 
ENDROOT
BRANCH   1   2
HETATM    2  C7  UNL     1      23.647   3.590  52.574  1.00  0.00     0.167 C 
BRANCH   2   3
HETATM    3  C6  UNL     1      22.826   4.541  51.806  1.00  0.00    -0.007 A 
HETATM    4  C5  UNL     1      21.509   4.285  51.444  1.00  0.00     0.011 A 
HETATM    5  C4  UNL     1      20.688   5.132  50.729  1.00  0.00     0.001 A 
HETATM    6  C3  UNL     1      21.241   6.337  50.350  1.00  0.00     0.009 A 
HETATM    7  C2  UNL     1      22.546   6.661  50.676  1.00  0.00    -0.028 A 
HETATM    8  C1  UNL     1      23.121   7.963  50.256  1.00  0.00     0.051 C 
HETATM    9  C22 UNL     1      23.336   5.772  51.398  1.00  0.00     0.079 A 
BRANCH   9  10
HETATM   10  O2  UNL     1      24.636   6.048  51.746  1.00  0.00    -0.360 OA
HETATM   11  H22 UNL     1      24.914   6.749  52.423  1.00  0.00     0.217 HD
ENDBRANCH   9  10
ENDBRANCH   2   3
ENDBRANCH   1   2
BRANCH   1  12
HETATM   12  C8  UNL     1      23.524   1.742  51.213  1.00  0.00     0.164 C 
BRANCH  12  13
HETATM   13  C9  UNL     1      22.922   0.835  52.203  1.00  0.00    -0.040 A 
HETATM   14  C10 UNL     1      21.537   0.624  52.133  1.00  0.00     0.011 A 
HETATM   15  C11 UNL     1      20.906  -0.212  53.061  1.00  0.00     0.037 A 
HETATM   16  C12 UNL     1      21.679  -0.807  54.024  1.00  0.00     0.065 A 
HETATM   17  C13 UNL     1      23.059  -0.635  54.144  1.00  0.00     0.037 A 
HETATM   18  C14 UNL     1      23.663   0.200  53.211  1.00  0.00     0.011 A 
BRANCH  16  19
HETATM   19  O1  UNL     1      21.113  -1.652  54.982  1.00  0.00    -0.361 OA
HETATM   20  H13 UNL     1      20.784  -1.228  55.840  1.00  0.00     0.217 HD
ENDBRANCH  16  19
ENDBRANCH  12  13
ENDBRANCH   1  12
BRANCH   1  21
HETATM   21  C15 UNL     1      25.842   2.823  51.425  1.00  0.00     0.174 C 
HETATM   22  S1  UNL     1      26.196   3.272  49.905  1.00  0.00    -0.041 SA
BRANCH  21  23
HETATM   23  N2  UNL     1      26.818   2.554  52.403  1.00  0.00    -0.333 N 
HETATM   24  H16 UNL     1      27.096   3.383  52.972  1.00  0.00     0.168 HD
BRANCH  23  25
HETATM   25  C16 UNL     1      27.499   1.377  52.768  1.00  0.00     0.034 A 
HETATM   26  C17 UNL     1      28.727   1.450  53.431  1.00  0.00     0.029 A 
HETATM   27  C18 UNL     1      29.434   0.340  53.809  1.00  0.00     0.002 A 
HETATM   28  C19 UNL     1      28.943  -0.913  53.541  1.00  0.00     0.000 A 
HETATM   29  C20 UNL     1      27.745  -1.064  52.895  1.00  0.00     0.002 A 
HETATM   30  C21 UNL     1      27.085   0.084  52.541  1.00  0.00     0.029 A 
ENDBRANCH  23  25
ENDBRANCH  21  23
ENDBRANCH   1  21
TORSDOF 9
ENDMDL
MODEL 5
REMARK VINA RESULT:      -8.5      2.044      6.317
REMARK  9 active torsions:
REMARK  status: ('A' for Active; 'I' for Inactive)
REMARK    1  A    between atoms: C6_6  and  C7_7 
REMARK    2  A    between atoms: C7_7  and  N1_8 
REMARK    3  A    between atoms: N1_8  and  C8_9 
REMARK    4  A    between atoms: N1_8  and  C15_17 
REMARK    5  A    between atoms: C8_9  and  C9_10 
REMARK    6  A    between atoms: C12_13  and  O1_14 
REMARK    7  A    between atoms: C15_17  and  N2_19 
REMARK    8  A    between atoms: N2_19  and  C16_20 
REMARK    9  A    between atoms: C22_26  and  O2_27 
ROOT
HETATM    1  N1  UNL     1      24.365   2.346  52.362  1.00  0.00    -0.349 N 
ENDROOT
BRANCH   1   2
HETATM    2  C7  UNL     1      24.153   0.937  51.983  1.00  0.00     0.167 C 
BRANCH   2   3
HETATM    3  C6  UNL     1      22.992   0.341  52.665  1.00  0.00    -0.007 A 
HETATM    4  C5  UNL     1      23.094  -0.372  53.853  1.00  0.00     0.011 A 
HETATM    5  C4  UNL     1      22.049  -0.951  54.541  1.00  0.00     0.001 A 
HETATM    6  C3  UNL     1      20.796  -0.798  53.985  1.00  0.00     0.009 A 
HETATM    7  C2  UNL     1      20.618  -0.100  52.803  1.00  0.00    -0.028 A 
HETATM    8  C1  UNL     1      19.261   0.052  52.222  1.00  0.00     0.051 C 
HETATM    9  C22 UNL     1      21.704   0.467  52.145  1.00  0.00     0.079 A 
BRANCH   9  10
HETATM   10  O2  UNL     1      21.578   1.169  50.972  1.00  0.00    -0.360 OA
HETATM   11  H22 UNL     1      22.291   1.779  50.587  1.00  0.00     0.217 HD
ENDBRANCH   9  10
ENDBRANCH   2   3
ENDBRANCH   1   2
BRANCH   1  12
HETATM   12  C8  UNL     1      24.952   2.284  53.666  1.00  0.00     0.164 C 
BRANCH  12  13
HETATM   13  C9  UNL     1      26.325   1.764  53.754  1.00  0.00    -0.040 A 
HETATM   14  C10 UNL     1      27.322   2.433  53.029  1.00  0.00     0.011 A 
HETATM   15  C11 UNL     1      28.642   1.972  53.058  1.00  0.00     0.037 A 
HETATM   16  C12 UNL     1      28.921   0.860  53.809  1.00  0.00     0.065 A 
HETATM   17  C13 UNL     1      27.973   0.152  54.551  1.00  0.00     0.037 A 
HETATM   18  C14 UNL     1      26.668   0.630  54.506  1.00  0.00     0.011 A 
BRANCH  16  19
HETATM   19  O1  UNL     1      30.217   0.346  53.882  1.00  0.00    -0.361 OA
HETATM   20  H13 UNL     1      30.982   1.008  53.867  1.00  0.00     0.217 HD
ENDBRANCH  16  19
ENDBRANCH  12  13
ENDBRANCH   1  12
BRANCH   1  21
HETATM   21  C15 UNL     1      24.052   3.500  51.592  1.00  0.00     0.174 C 
HETATM   22  S1  UNL     1      23.199   4.633  52.382  1.00  0.00    -0.041 SA
BRANCH  21  23
HETATM   23  N2  UNL     1      24.459   3.628  50.251  1.00  0.00    -0.333 N 
HETATM   24  H16 UNL     1      23.967   2.990  49.589  1.00  0.00     0.168 HD
BRANCH  23  25
HETATM   25  C16 UNL     1      25.409   4.455  49.620  1.00  0.00     0.034 A 
HETATM   26  C17 UNL     1      26.692   3.974  49.348  1.00  0.00     0.029 A 
HETATM   27  C18 UNL     1      27.656   4.732  48.739  1.00  0.00     0.002 A 
HETATM   28  C19 UNL     1      27.382   6.024  48.367  1.00  0.00     0.000 A 
HETATM   29  C20 UNL     1      26.146   6.565  48.601  1.00  0.00     0.002 A 
HETATM   30  C21 UNL     1      25.224   5.757  49.214  1.00  0.00     0.029 A 
ENDBRANCH  23  25
ENDBRANCH  21  23
ENDBRANCH   1  21
TORSDOF 9
ENDMDL
MODEL 6
REMARK VINA RESULT:      -8.4      2.458      6.473
REMARK  9 active torsions:
REMARK  status: ('A' for Active; 'I' for Inactive)
REMARK    1  A    between atoms: C6_6  and  C7_7 
REMARK    2  A    between atoms: C7_7  and  N1_8 
REMARK    3  A    between atoms: N1_8  and  C8_9 
REMARK    4  A    between atoms: N1_8  and  C15_17 
REMARK    5  A    between atoms: C8_9  and  C9_10 
REMARK    6  A    between atoms: C12_13  and  O1_14 
REMARK    7  A    between atoms: C15_17  and  N2_19 
REMARK    8  A    between atoms: N2_19  and  C16_20 
REMARK    9  A    between atoms: C22_26  and  O2_27 
ROOT
HETATM    1  N1  UNL     1      22.679   2.641  50.615  1.00  0.00    -0.349 N 
ENDROOT
BRANCH   1   2
HETATM    2  C7  UNL     1      22.223   1.346  50.079  1.00  0.00     0.167 C 
BRANCH   2   3
HETATM    3  C6  UNL     1      20.828   1.046  50.445  1.00  0.00    -0.007 A 
HETATM    4  C5  UNL     1      19.739   1.491  49.706  1.00  0.00     0.011 A 
HETATM    5  C4  UNL     1      18.413   1.244  49.993  1.00  0.00     0.001 A 
HETATM    6  C3  UNL     1      18.165   0.485  51.118  1.00  0.00     0.009 A 
HETATM    7  C2  UNL     1      19.201   0.007  51.902  1.00  0.00    -0.028 A 
HETATM    8  C1  UNL     1      18.912  -0.807  53.108  1.00  0.00     0.051 C 
HETATM    9  C22 UNL     1      20.524   0.284  51.571  1.00  0.00     0.079 A 
BRANCH   9  10
HETATM   10  O2  UNL     1      21.585  -0.168  52.316  1.00  0.00    -0.360 OA
HETATM   11  H22 UNL     1      21.743   0.061  53.291  1.00  0.00     0.217 HD
ENDBRANCH   9  10
ENDBRANCH   2   3
ENDBRANCH   1   2
BRANCH   1  12
HETATM   12  C8  UNL     1      22.987   3.423  49.456  1.00  0.00     0.164 C 
BRANCH  12  13
HETATM   13  C9  UNL     1      24.368   3.915  49.333  1.00  0.00    -0.040 A 
HETATM   14  C10 UNL     1      25.406   3.015  49.613  1.00  0.00     0.011 A 
HETATM   15  C11 UNL     1      26.739   3.432  49.532  1.00  0.00     0.037 A 
HETATM   16  C12 UNL     1      26.988   4.732  49.176  1.00  0.00     0.065 A 
HETATM   17  C13 UNL     1      25.998   5.673  48.886  1.00  0.00     0.037 A 
HETATM   18  C14 UNL     1      24.682   5.234  48.973  1.00  0.00     0.011 A 
BRANCH  16  19
HETATM   19  O1  UNL     1      28.295   5.214  49.077  1.00  0.00    -0.361 OA
HETATM   20  H13 UNL     1      28.718   5.589  49.917  1.00  0.00     0.217 HD
ENDBRANCH  16  19
ENDBRANCH  12  13
ENDBRANCH   1  12
BRANCH   1  21
HETATM   21  C15 UNL     1      22.782   3.017  51.982  1.00  0.00     0.174 C 
HETATM   22  S1  UNL     1      22.040   4.410  52.362  1.00  0.00    -0.041 SA
BRANCH  21  23
HETATM   23  N2  UNL     1      23.481   2.229  52.916  1.00  0.00    -0.333 N 
HETATM   24  H16 UNL     1      22.946   2.016  53.785  1.00  0.00     0.168 HD
BRANCH  23  25
HETATM   25  C16 UNL     1      24.772   1.666  52.907  1.00  0.00     0.034 A 
HETATM   26  C17 UNL     1      25.873   2.421  53.321  1.00  0.00     0.029 A 
HETATM   27  C18 UNL     1      27.150   1.928  53.332  1.00  0.00     0.002 A 
HETATM   28  C19 UNL     1      27.394   0.640  52.928  1.00  0.00     0.000 A 
HETATM   29  C20 UNL     1      26.365  -0.161  52.510  1.00  0.00     0.002 A 
HETATM   30  C21 UNL     1      25.109   0.390  52.520  1.00  0.00     0.029 A 
ENDBRANCH  23  25
ENDBRANCH  21  23
ENDBRANCH   1  21
TORSDOF 9
ENDMDL
MODEL 7
REMARK VINA RESULT:      -8.2      1.601      2.301
REMARK  9 active torsions:
REMARK  status: ('A' for Active; 'I' for Inactive)
REMARK    1  A    between atoms: C6_6  and  C7_7 
REMARK    2  A    between atoms: C7_7  and  N1_8 
REMARK    3  A    between atoms: N1_8  and  C8_9 
REMARK    4  A    between atoms: N1_8  and  C15_17 
REMARK    5  A    between atoms: C8_9  and  C9_10 
REMARK    6  A    between atoms: C12_13  and  O1_14 
REMARK    7  A    between atoms: C15_17  and  N2_19 
REMARK    8  A    between atoms: N2_19  and  C16_20 
REMARK    9  A    between atoms: C22_26  and  O2_27 
ROOT
HETATM    1  N1  UNL     1      24.288   3.241  51.139  1.00  0.00    -0.349 N 
ENDROOT
BRANCH   1   2
HETATM    2  C7  UNL     1      24.587   3.163  49.697  1.00  0.00     0.167 C 
BRANCH   2   3
HETATM    3  C6  UNL     1      25.493   4.234  49.253  1.00  0.00    -0.007 A 
HETATM    4  C5  UNL     1      26.866   4.061  49.126  1.00  0.00     0.011 A 
HETATM    5  C4  UNL     1      27.767   5.020  48.714  1.00  0.00     0.001 A 
HETATM    6  C3  UNL     1      27.240   6.257  48.404  1.00  0.00     0.009 A 
HETATM    7  C2  UNL     1      25.882   6.502  48.506  1.00  0.00    -0.028 A 
HETATM    8  C1  UNL     1      25.336   7.840  48.168  1.00  0.00     0.051 C 
HETATM    9  C22 UNL     1      25.012   5.501  48.927  1.00  0.00     0.079 A 
BRANCH   9  10
HETATM   10  O2  UNL     1      23.657   5.696  49.044  1.00  0.00    -0.360 OA
HETATM   11  H22 UNL     1      23.068   5.238  49.731  1.00  0.00     0.217 HD
ENDBRANCH   9  10
ENDBRANCH   2   3
ENDBRANCH   1   2
BRANCH   1  12
HETATM   12  C8  UNL     1      25.571   3.321  51.769  1.00  0.00     0.164 C 
BRANCH  12  13
HETATM   13  C9  UNL     1      26.136   2.066  52.289  1.00  0.00    -0.040 A 
HETATM   14  C10 UNL     1      26.536   2.042  53.634  1.00  0.00     0.011 A 
HETATM   15  C11 UNL     1      27.099   0.882  54.178  1.00  0.00     0.037 A 
HETATM   16  C12 UNL     1      27.243  -0.210  53.363  1.00  0.00     0.065 A 
HETATM   17  C13 UNL     1      26.864  -0.246  52.019  1.00  0.00     0.037 A 
HETATM   18  C14 UNL     1      26.308   0.918  51.501  1.00  0.00     0.011 A 
BRANCH  16  19
HETATM   19  O1  UNL     1      27.798  -1.399  53.842  1.00  0.00    -0.361 OA
HETATM   20  H13 UNL     1      27.200  -2.004  54.391  1.00  0.00     0.217 HD
ENDBRANCH  16  19
ENDBRANCH  12  13
ENDBRANCH   1  12
BRANCH   1  21
HETATM   21  C15 UNL     1      23.006   3.239  51.753  1.00  0.00     0.174 C 
HETATM   22  S1  UNL     1      22.512   4.686  52.299  1.00  0.00    -0.041 SA
BRANCH  21  23
HETATM   23  N2  UNL     1      22.242   2.062  51.869  1.00  0.00    -0.333 N 
HETATM   24  H16 UNL     1      21.587   1.894  51.076  1.00  0.00     0.168 HD
BRANCH  23  25
HETATM   25  C16 UNL     1      22.188   1.058  52.855  1.00  0.00     0.034 A 
HETATM   26  C17 UNL     1      21.017   0.854  53.589  1.00  0.00     0.029 A 
HETATM   27  C18 UNL     1      20.908  -0.105  54.560  1.00  0.00     0.002 A 
HETATM   28  C19 UNL     1      21.974  -0.918  54.849  1.00  0.00     0.000 A 
HETATM   29  C20 UNL     1      23.155  -0.777  54.170  1.00  0.00     0.002 A 
HETATM   30  C21 UNL     1      23.205   0.201  53.211  1.00  0.00     0.029 A 
ENDBRANCH  23  25
ENDBRANCH  21  23
ENDBRANCH   1  21
TORSDOF 9
ENDMDL
MODEL 8
REMARK VINA RESULT:      -8.1      1.474      2.045
REMARK  9 active torsions:
REMARK  status: ('A' for Active; 'I' for Inactive)
REMARK    1  A    between atoms: C6_6  and  C7_7 
REMARK    2  A    between atoms: C7_7  and  N1_8 
REMARK    3  A    between atoms: N1_8  and  C8_9 
REMARK    4  A    between atoms: N1_8  and  C15_17 
REMARK    5  A    between atoms: C8_9  and  C9_10 
REMARK    6  A    between atoms: C12_13  and  O1_14 
REMARK    7  A    between atoms: C15_17  and  N2_19 
REMARK    8  A    between atoms: N2_19  and  C16_20 
REMARK    9  A    between atoms: C22_26  and  O2_27 
ROOT
HETATM    1  N1  UNL     1      24.998   2.927  50.762  1.00  0.00    -0.349 N 
ENDROOT
BRANCH   1   2
HETATM    2  C7  UNL     1      24.780   3.773  49.575  1.00  0.00     0.167 C 
BRANCH   2   3
HETATM    3  C6  UNL     1      24.544   5.183  49.926  1.00  0.00    -0.007 A 
HETATM    4  C5  UNL     1      23.290   5.683  50.253  1.00  0.00     0.011 A 
HETATM    5  C4  UNL     1      23.003   6.989  50.592  1.00  0.00     0.001 A 
HETATM    6  C3  UNL     1      24.071   7.862  50.604  1.00  0.00     0.009 A 
HETATM    7  C2  UNL     1      25.349   7.435  50.289  1.00  0.00    -0.028 A 
HETATM    8  C1  UNL     1      26.483   8.392  50.307  1.00  0.00     0.051 C 
HETATM    9  C22 UNL     1      25.588   6.106  49.953  1.00  0.00     0.079 A 
BRANCH   9  10
HETATM   10  O2  UNL     1      26.838   5.635  49.634  1.00  0.00    -0.360 OA
HETATM   11  H22 UNL     1      27.469   6.077  48.977  1.00  0.00     0.217 HD
ENDBRANCH   9  10
ENDBRANCH   2   3
ENDBRANCH   1   2
BRANCH   1  12
HETATM   12  C8  UNL     1      26.370   2.527  50.674  1.00  0.00     0.164 C 
BRANCH  12  13
HETATM   13  C9  UNL     1      26.904   1.730  51.789  1.00  0.00    -0.040 A 
HETATM   14  C10 UNL     1      26.651   0.350  51.782  1.00  0.00     0.011 A 
HETATM   15  C11 UNL     1      27.117  -0.455  52.827  1.00  0.00     0.037 A 
HETATM   16  C12 UNL     1      27.818   0.144  53.840  1.00  0.00     0.065 A 
HETATM   17  C13 UNL     1      28.101   1.510  53.903  1.00  0.00     0.037 A 
HETATM   18  C14 UNL     1      27.627   2.289  52.853  1.00  0.00     0.011 A 
BRANCH  16  19
HETATM   19  O1  UNL     1      28.310  -0.602  54.914  1.00  0.00    -0.361 OA
HETATM   20  H13 UNL     1      28.178  -0.223  55.843  1.00  0.00     0.217 HD
ENDBRANCH  16  19
ENDBRANCH  12  13
ENDBRANCH   1  12
BRANCH   1  21
HETATM   21  C15 UNL     1      24.048   2.592  51.765  1.00  0.00     0.174 C 
HETATM   22  S1  UNL     1      24.060   3.565  53.065  1.00  0.00    -0.041 SA
BRANCH  21  23
HETATM   23  N2  UNL     1      23.176   1.496  51.623  1.00  0.00    -0.333 N 
HETATM   24  H16 UNL     1      22.885   1.302  50.641  1.00  0.00     0.168 HD
BRANCH  23  25
HETATM   25  C16 UNL     1      22.613   0.602  52.555  1.00  0.00     0.034 A 
HETATM   26  C17 UNL     1      23.427  -0.060  53.477  1.00  0.00     0.029 A 
HETATM   27  C18 UNL     1      22.936  -0.940  54.404  1.00  0.00     0.002 A 
HETATM   28  C19 UNL     1      21.592  -1.205  54.457  1.00  0.00     0.000 A 
HETATM   29  C20 UNL     1      20.731  -0.593  53.585  1.00  0.00     0.002 A 
HETATM   30  C21 UNL     1      21.281   0.277  52.680  1.00  0.00     0.029 A 
ENDBRANCH  23  25
ENDBRANCH  21  23
ENDBRANCH   1  21
TORSDOF 9
ENDMDL
MODEL 9
REMARK VINA RESULT:      -8.0      2.706      5.240
REMARK  9 active torsions:
REMARK  status: ('A' for Active; 'I' for Inactive)
REMARK    1  A    between atoms: C6_6  and  C7_7 
REMARK    2  A    between atoms: C7_7  and  N1_8 
REMARK    3  A    between atoms: N1_8  and  C8_9 
REMARK    4  A    between atoms: N1_8  and  C15_17 
REMARK    5  A    between atoms: C8_9  and  C9_10 
REMARK    6  A    between atoms: C12_13  and  O1_14 
REMARK    7  A    between atoms: C15_17  and  N2_19 
REMARK    8  A    between atoms: N2_19  and  C16_20 
REMARK    9  A    between atoms: C22_26  and  O2_27 
ROOT
HETATM    1  N1  UNL     1      23.492   3.234  51.863  1.00  0.00    -0.349 N 
ENDROOT
BRANCH   1   2
HETATM    2  C7  UNL     1      22.659   4.275  52.492  1.00  0.00     0.167 C 
BRANCH   2   3
HETATM    3  C6  UNL     1      22.649   5.528  51.718  1.00  0.00    -0.007 A 
HETATM    4  C5  UNL     1      23.699   6.438  51.734  1.00  0.00     0.011 A 
HETATM    5  C4  UNL     1      23.752   7.624  51.034  1.00  0.00     0.001 A 
HETATM    6  C3  UNL     1      22.655   7.917  50.250  1.00  0.00     0.009 A 
HETATM    7  C2  UNL     1      21.572   7.057  50.184  1.00  0.00    -0.028 A 
HETATM    8  C1  UNL     1      20.402   7.392  49.335  1.00  0.00     0.051 C 
HETATM    9  C22 UNL     1      21.565   5.871  50.911  1.00  0.00     0.079 A 
BRANCH   9  10
HETATM   10  O2  UNL     1      20.515   4.986  50.878  1.00  0.00    -0.360 OA
HETATM   11  H22 UNL     1      20.611   3.979  50.934  1.00  0.00     0.217 HD
ENDBRANCH   9  10
ENDBRANCH   2   3
ENDBRANCH   1   2
BRANCH   1  12
HETATM   12  C8  UNL     1      24.566   3.026  52.786  1.00  0.00     0.164 C 
BRANCH  12  13
HETATM   13  C9  UNL     1      25.144   1.674  52.842  1.00  0.00    -0.040 A 
HETATM   14  C10 UNL     1      26.417   1.488  52.282  1.00  0.00     0.011 A 
HETATM   15  C11 UNL     1      27.008   0.219  52.288  1.00  0.00     0.037 A 
HETATM   16  C12 UNL     1      26.309  -0.816  52.851  1.00  0.00     0.065 A 
HETATM   17  C13 UNL     1      25.041  -0.692  53.423  1.00  0.00     0.037 A 
HETATM   18  C14 UNL     1      24.474   0.577  53.405  1.00  0.00     0.011 A 
BRANCH  16  19
HETATM   19  O1  UNL     1      26.840  -2.107  52.890  1.00  0.00    -0.361 OA
HETATM   20  H13 UNL     1      27.835  -2.206  52.733  1.00  0.00     0.217 HD
ENDBRANCH  16  19
ENDBRANCH  12  13
ENDBRANCH   1  12
BRANCH   1  21
HETATM   21  C15 UNL     1      23.266   2.587  50.618  1.00  0.00     0.174 C 
HETATM   22  S1  UNL     1      22.012   1.556  50.606  1.00  0.00    -0.041 SA
BRANCH  21  23
HETATM   23  N2  UNL     1      24.079   2.835  49.496  1.00  0.00    -0.333 N 
HETATM   24  H16 UNL     1      23.981   2.135  48.729  1.00  0.00     0.168 HD
BRANCH  23  25
HETATM   25  C16 UNL     1      25.009   3.851  49.202  1.00  0.00     0.034 A 
HETATM   26  C17 UNL     1      26.378   3.622  49.363  1.00  0.00     0.029 A 
HETATM   27  C18 UNL     1      27.327   4.572  49.095  1.00  0.00     0.002 A 
HETATM   28  C19 UNL     1      26.951   5.813  48.646  1.00  0.00     0.000 A 
HETATM   29  C20 UNL     1      25.627   6.111  48.464  1.00  0.00     0.002 A 
HETATM   30  C21 UNL     1      24.724   5.120  48.750  1.00  0.00     0.029 A 
ENDBRANCH  23  25
ENDBRANCH  21  23
ENDBRANCH   1  21
TORSDOF 9
ENDMDL
