MODEL 1
REMARK VINA RESULT:      -8.2      0.000      0.000
REMARK  3 active torsions:
REMARK  status: ('A' for Active; 'I' for Inactive)
REMARK    1  A    between atoms: C8_9  and  C9_10 
REMARK    2  A    between atoms: N2_18  and  C15_19 
REMARK    3  A    between atoms: C16_21  and  O1_22 
ROOT
HETATM    1  C1  UNL     1      23.140   4.729  52.309  1.00  0.00     0.017 C 
HETATM    2  C2  UNL     1      23.526   4.947  50.899  1.00  0.00     0.046 A 
HETATM    3  C3  UNL     1      22.359   5.511  50.173  1.00  0.00    -0.000 A 
HETATM    4  C4  UNL     1      21.767   5.205  49.037  1.00  0.00     0.007 A 
HETATM    5 BR1  UNL     1      20.254   6.086  48.288  1.00  0.00    -0.051 Br
HETATM    6  C5  UNL     1      22.373   4.071  48.336  1.00  0.00     0.018 A 
HETATM    7  C6  UNL     1      23.404   3.506  48.899  1.00  0.00     0.015 A 
HETATM    8  C7  UNL     1      24.128   3.787  50.170  1.00  0.00     0.129 A 
HETATM    9  C8  UNL     1      24.482   2.589  50.952  1.00  0.00     0.100 A 
HETATM   10  N1  UNL     1      25.758   2.695  50.723  1.00  0.00    -0.170 NA
HETATM   11  N2  UNL     1      25.546   3.845  49.955  1.00  0.00    -0.225 N 
ENDROOT
BRANCH   9  12
HETATM   12  C9  UNL     1      23.805   1.565  51.739  1.00  0.00    -0.007 A 
HETATM   13  C10 UNL     1      22.509   1.199  51.488  1.00  0.00     0.015 A 
HETATM   14  C11 UNL     1      21.834   0.231  52.217  1.00  0.00     0.020 A 
HETATM   15  C12 UNL     1      22.513  -0.394  53.251  1.00  0.00     0.011 A 
HETATM   16 BR2  UNL     1      21.581  -1.726  54.252  1.00  0.00    -0.051 Br
HETATM   17  C13 UNL     1      23.836  -0.071  53.562  1.00  0.00     0.020 A 
HETATM   18  C14 UNL     1      24.427   0.907  52.778  1.00  0.00     0.015 A 
ENDBRANCH   9  12
BRANCH  11  19
HETATM   19  C15 UNL     1      26.564   4.581  49.323  1.00  0.00     0.193 A 
HETATM   20  N3  UNL     1      27.878   4.332  48.902  1.00  0.00    -0.198 NA
HETATM   21  C16 UNL     1      28.391   5.419  48.348  1.00  0.00     0.171 A 
HETATM   22  C17 UNL     1      27.786   6.725  48.149  1.00  0.00     0.111 A 
HETATM   23  S1  UNL     1      26.121   6.356  48.908  1.00  0.00    -0.058 SA
BRANCH  21  24
HETATM   24  O1  UNL     1      29.697   5.030  47.977  1.00  0.00    -0.344 OA
HETATM   25  H12 UNL     1      30.042   5.329  47.072  1.00  0.00     0.219 HD
ENDBRANCH  21  24
ENDBRANCH  11  19
TORSDOF 3
ENDMDL
MODEL 2
REMARK VINA RESULT:      -8.1      3.559      4.541
REMARK  3 active torsions:
REMARK  status: ('A' for Active; 'I' for Inactive)
REMARK    1  A    between atoms: C8_9  and  C9_10 
REMARK    2  A    between atoms: N2_18  and  C15_19 
REMARK    3  A    between atoms: C16_21  and  O1_22 
ROOT
HETATM    1  C1  UNL     1      23.222   3.872  53.083  1.00  0.00     0.017 C 
HETATM    2  C2  UNL     1      24.536   3.588  52.469  1.00  0.00     0.046 A 
HETATM    3  C3  UNL     1      24.779   4.585  51.394  1.00  0.00    -0.000 A 
HETATM    4  C4  UNL     1      25.166   4.484  50.139  1.00  0.00     0.007 A 
HETATM    5 BR1  UNL     1      25.415   5.929  48.924  1.00  0.00    -0.051 Br
HETATM    6  C5  UNL     1      25.405   3.108  49.697  1.00  0.00     0.018 A 
HETATM    7  C6  UNL     1      25.214   2.161  50.572  1.00  0.00     0.015 A 
HETATM    8  C7  UNL     1      24.781   2.190  51.998  1.00  0.00     0.129 A 
HETATM    9  C8  UNL     1      23.794   1.157  52.359  1.00  0.00     0.100 A 
HETATM   10  N1  UNL     1      24.626   0.475  53.090  1.00  0.00    -0.170 NA
HETATM   11  N2  UNL     1      25.648   1.390  52.817  1.00  0.00    -0.225 N 
ENDROOT
BRANCH   9  12
HETATM   12  C9  UNL     1      22.392   0.853  52.095  1.00  0.00    -0.007 A 
HETATM   13  C10 UNL     1      21.546   0.424  53.084  1.00  0.00     0.015 A 
HETATM   14  C11 UNL     1      20.209   0.124  52.868  1.00  0.00     0.020 A 
HETATM   15  C12 UNL     1      19.710   0.270  51.583  1.00  0.00     0.011 A 
HETATM   16 BR2  UNL     1      17.869  -0.142  51.290  1.00  0.00    -0.051 Br
HETATM   17  C13 UNL     1      20.515   0.704  50.527  1.00  0.00     0.020 A 
HETATM   18  C14 UNL     1      21.837   0.979  50.839  1.00  0.00     0.015 A 
ENDBRANCH   9  12
BRANCH  11  19
HETATM   19  C15 UNL     1      26.959   1.293  53.315  1.00  0.00     0.193 A 
HETATM   20  N3  UNL     1      27.858   2.149  53.966  1.00  0.00    -0.198 NA
HETATM   21  C16 UNL     1      28.993   1.515  54.212  1.00  0.00     0.171 A 
HETATM   22  C17 UNL     1      29.369   0.146  53.903  1.00  0.00     0.111 A 
HETATM   23  S1  UNL     1      27.777  -0.379  53.083  1.00  0.00    -0.058 SA
BRANCH  21  24
HETATM   24  O1  UNL     1      29.792   2.482  54.861  1.00  0.00    -0.344 OA
HETATM   25  H12 UNL     1      30.076   3.298  54.330  1.00  0.00     0.219 HD
ENDBRANCH  21  24
ENDBRANCH  11  19
TORSDOF 3
ENDMDL
MODEL 3
REMARK VINA RESULT:      -8.0      4.131      6.782
REMARK  3 active torsions:
REMARK  status: ('A' for Active; 'I' for Inactive)
REMARK    1  A    between atoms: C8_9  and  C9_10 
REMARK    2  A    between atoms: N2_18  and  C15_19 
REMARK    3  A    between atoms: C16_21  and  O1_22 
ROOT
HETATM    1  C1  UNL     1      22.503   1.917  48.937  1.00  0.00     0.017 C 
HETATM    2  C2  UNL     1      21.798   1.899  50.236  1.00  0.00     0.046 A 
HETATM    3  C3  UNL     1      20.503   2.611  50.079  1.00  0.00    -0.000 A 
HETATM    4  C4  UNL     1      19.902   3.556  50.773  1.00  0.00     0.007 A 
HETATM    5 BR1  UNL     1      18.209   4.332  50.375  1.00  0.00    -0.051 Br
HETATM    6  C5  UNL     1      20.658   4.011  51.941  1.00  0.00     0.018 A 
HETATM    7  C6  UNL     1      21.812   3.445  52.160  1.00  0.00     0.015 A 
HETATM    8  C7  UNL     1      22.557   2.381  51.431  1.00  0.00     0.129 A 
HETATM    9  C8  UNL     1      23.999   2.641  51.274  1.00  0.00     0.100 A 
HETATM   10  N1  UNL     1      24.360   1.704  52.102  1.00  0.00    -0.170 NA
HETATM   11  N2  UNL     1      23.023   1.366  52.334  1.00  0.00    -0.225 N 
ENDROOT
BRANCH   9  12
HETATM   12  C9  UNL     1      24.866   3.548  50.530  1.00  0.00    -0.007 A 
HETATM   13  C10 UNL     1      24.529   4.859  50.318  1.00  0.00     0.015 A 
HETATM   14  C11 UNL     1      25.328   5.748  49.615  1.00  0.00     0.020 A 
HETATM   15  C12 UNL     1      26.527   5.278  49.103  1.00  0.00     0.011 A 
HETATM   16 BR2  UNL     1      27.624   6.505  48.135  1.00  0.00    -0.051 Br
HETATM   17  C13 UNL     1      26.934   3.954  49.282  1.00  0.00     0.020 A 
HETATM   18  C14 UNL     1      26.071   3.141  49.998  1.00  0.00     0.015 A 
ENDBRANCH   9  12
BRANCH  11  19
HETATM   19  C15 UNL     1      22.598   0.344  53.201  1.00  0.00     0.193 A 
HETATM   20  N3  UNL     1      23.173  -0.408  54.234  1.00  0.00    -0.198 NA
HETATM   21  C16 UNL     1      22.287  -1.263  54.721  1.00  0.00     0.171 A 
HETATM   22  C17 UNL     1      20.905  -1.482  54.330  1.00  0.00     0.111 A 
HETATM   23  S1  UNL     1      20.818  -0.204  52.971  1.00  0.00    -0.058 SA
BRANCH  21  24
HETATM   24  O1  UNL     1      22.992  -1.943  55.739  1.00  0.00    -0.344 OA
HETATM   25  H12 UNL     1      23.058  -1.501  56.649  1.00  0.00     0.219 HD
ENDBRANCH  21  24
ENDBRANCH  11  19
TORSDOF 3
ENDMDL
MODEL 4
REMARK VINA RESULT:      -8.0      3.584      4.492
REMARK  3 active torsions:
REMARK  status: ('A' for Active; 'I' for Inactive)
REMARK    1  A    between atoms: C8_9  and  C9_10 
REMARK    2  A    between atoms: N2_18  and  C15_19 
REMARK    3  A    between atoms: C16_21  and  O1_22 
ROOT
HETATM    1  C1  UNL     1      21.150   3.534  52.701  1.00  0.00     0.017 C 
HETATM    2  C2  UNL     1      22.422   3.302  51.986  1.00  0.00     0.046 A 
HETATM    3  C3  UNL     1      22.460   4.185  50.792  1.00  0.00    -0.000 A 
HETATM    4  C4  UNL     1      22.735   3.975  49.521  1.00  0.00     0.007 A 
HETATM    5 BR1  UNL     1      22.720   5.286  48.140  1.00  0.00    -0.051 Br
HETATM    6  C5  UNL     1      23.070   2.585  49.205  1.00  0.00     0.018 A 
HETATM    7  C6  UNL     1      23.060   1.732  50.190  1.00  0.00     0.015 A 
HETATM    8  C7  UNL     1      22.762   1.886  51.642  1.00  0.00     0.129 A 
HETATM    9  C8  UNL     1      21.923   0.817  52.212  1.00  0.00     0.100 A 
HETATM   10  N1  UNL     1      22.886   0.302  52.921  1.00  0.00    -0.170 NA
HETATM   11  N2  UNL     1      23.779   1.268  52.446  1.00  0.00    -0.225 N 
ENDROOT
BRANCH   9  12
HETATM   12  C9  UNL     1      20.541   0.359  52.131  1.00  0.00    -0.007 A 
HETATM   13  C10 UNL     1      19.745   0.650  51.054  1.00  0.00     0.015 A 
HETATM   14  C11 UNL     1      18.427   0.233  50.945  1.00  0.00     0.020 A 
HETATM   15  C12 UNL     1      17.895  -0.518  51.982  1.00  0.00     0.011 A 
HETATM   16 BR2  UNL     1      16.081  -1.091  51.827  1.00  0.00    -0.051 Br
HETATM   17  C13 UNL     1      18.650  -0.852  53.108  1.00  0.00     0.020 A 
HETATM   18  C14 UNL     1      19.956  -0.391  53.128  1.00  0.00     0.015 A 
ENDBRANCH   9  12
BRANCH  11  19
HETATM   19  C15 UNL     1      25.134   1.350  52.812  1.00  0.00     0.193 A 
HETATM   20  N3  UNL     1      25.951   2.284  53.462  1.00  0.00    -0.198 NA
HETATM   21  C16 UNL     1      27.191   1.829  53.539  1.00  0.00     0.171 A 
HETATM   22  C17 UNL     1      27.744   0.574  53.060  1.00  0.00     0.111 A 
HETATM   23  S1  UNL     1      26.176  -0.137  52.338  1.00  0.00    -0.058 SA
BRANCH  21  24
HETATM   24  O1  UNL     1      27.893   2.857  54.207  1.00  0.00    -0.344 OA
HETATM   25  H12 UNL     1      28.687   2.596  54.779  1.00  0.00     0.219 HD
ENDBRANCH  21  24
ENDBRANCH  11  19
TORSDOF 3
ENDMDL
MODEL 5
REMARK VINA RESULT:      -7.9      4.575      7.913
REMARK  3 active torsions:
REMARK  status: ('A' for Active; 'I' for Inactive)
REMARK    1  A    between atoms: C8_9  and  C9_10 
REMARK    2  A    between atoms: N2_18  and  C15_19 
REMARK    3  A    between atoms: C16_21  and  O1_22 
ROOT
HETATM    1  C1  UNL     1      26.448   2.846  53.943  1.00  0.00     0.017 C 
HETATM    2  C2  UNL     1      26.076   1.424  53.790  1.00  0.00     0.046 A 
HETATM    3  C3  UNL     1      27.303   0.598  53.926  1.00  0.00    -0.000 A 
HETATM    4  C4  UNL     1      27.819  -0.379  53.209  1.00  0.00     0.007 A 
HETATM    5 BR1  UNL     1      29.437  -1.310  53.584  1.00  0.00    -0.051 Br
HETATM    6  C5  UNL     1      27.030  -0.732  52.027  1.00  0.00     0.018 A 
HETATM    7  C6  UNL     1      25.934  -0.057  51.821  1.00  0.00     0.015 A 
HETATM    8  C7  UNL     1      25.286   1.052  52.575  1.00  0.00     0.129 A 
HETATM    9  C8  UNL     1      24.763   2.142  51.732  1.00  0.00     0.100 A 
HETATM   10  N1  UNL     1      23.515   1.855  51.962  1.00  0.00    -0.170 NA
HETATM   11  N2  UNL     1      23.890   0.789  52.785  1.00  0.00    -0.225 N 
ENDROOT
BRANCH   9  12
HETATM   12  C9  UNL     1      25.285   3.216  50.895  1.00  0.00    -0.007 A 
HETATM   13  C10 UNL     1      24.688   4.448  50.843  1.00  0.00     0.015 A 
HETATM   14  C11 UNL     1      25.157   5.491  50.057  1.00  0.00     0.020 A 
HETATM   15  C12 UNL     1      26.288   5.267  49.288  1.00  0.00     0.011 A 
HETATM   16 BR2  UNL     1      26.929   6.705  48.209  1.00  0.00    -0.051 Br
HETATM   17  C13 UNL     1      26.947   4.036  49.294  1.00  0.00     0.020 A 
HETATM   18  C14 UNL     1      26.406   3.056  50.110  1.00  0.00     0.015 A 
ENDBRANCH   9  12
BRANCH  11  19
HETATM   19  C15 UNL     1      22.989  -0.062  53.449  1.00  0.00     0.193 A 
HETATM   20  N3  UNL     1      21.620  -0.347  53.365  1.00  0.00    -0.198 NA
HETATM   21  C16 UNL     1      21.289  -1.261  54.262  1.00  0.00     0.171 A 
HETATM   22  C17 UNL     1      22.125  -1.940  55.238  1.00  0.00     0.111 A 
HETATM   23  S1  UNL     1      23.743  -1.114  54.807  1.00  0.00    -0.058 SA
BRANCH  21  24
HETATM   24  O1  UNL     1      19.902  -1.448  54.066  1.00  0.00    -0.344 OA
HETATM   25  H12 UNL     1      19.437  -2.163  54.613  1.00  0.00     0.219 HD
ENDBRANCH  21  24
ENDBRANCH  11  19
TORSDOF 3
ENDMDL
MODEL 6
REMARK VINA RESULT:      -7.8      4.566      6.060
REMARK  3 active torsions:
REMARK  status: ('A' for Active; 'I' for Inactive)
REMARK    1  A    between atoms: C8_9  and  C9_10 
REMARK    2  A    between atoms: N2_18  and  C15_19 
REMARK    3  A    between atoms: C16_21  and  O1_22 
ROOT
HETATM    1  C1  UNL     1      24.682   2.754  49.682  1.00  0.00     0.017 C 
HETATM    2  C2  UNL     1      23.590   3.521  50.317  1.00  0.00     0.046 A 
HETATM    3  C3  UNL     1      23.891   4.970  50.184  1.00  0.00    -0.000 A 
HETATM    4  C4  UNL     1      23.895   5.974  51.036  1.00  0.00     0.007 A 
HETATM    5 BR1  UNL     1      24.324   7.785  50.632  1.00  0.00    -0.051 Br
HETATM    6  C5  UNL     1      23.533   5.597  52.404  1.00  0.00     0.018 A 
HETATM    7  C6  UNL     1      23.254   4.342  52.620  1.00  0.00     0.015 A 
HETATM    8  C7  UNL     1      23.226   3.154  51.721  1.00  0.00     0.129 A 
HETATM    9  C8  UNL     1      23.829   1.938  52.295  1.00  0.00     0.100 A 
HETATM   10  N1  UNL     1      22.693   1.313  52.417  1.00  0.00    -0.170 NA
HETATM   11  N2  UNL     1      22.009   2.410  51.885  1.00  0.00    -0.225 N 
ENDROOT
BRANCH   9  12
HETATM   12  C9  UNL     1      25.153   1.447  52.656  1.00  0.00    -0.007 A 
HETATM   13  C10 UNL     1      25.566   0.179  52.340  1.00  0.00     0.015 A 
HETATM   14  C11 UNL     1      26.817  -0.321  52.670  1.00  0.00     0.020 A 
HETATM   15  C12 UNL     1      27.690   0.511  53.353  1.00  0.00     0.011 A 
HETATM   16 BR2  UNL     1      29.411  -0.180  53.805  1.00  0.00    -0.051 Br
HETATM   17  C13 UNL     1      27.335   1.815  53.707  1.00  0.00     0.020 A 
HETATM   18  C14 UNL     1      26.065   2.226  53.335  1.00  0.00     0.015 A 
ENDBRANCH   9  12
BRANCH  11  19
HETATM   19  C15 UNL     1      20.617   2.467  51.697  1.00  0.00     0.193 A 
HETATM   20  N3  UNL     1      19.574   3.302  52.118  1.00  0.00    -0.198 NA
HETATM   21  C16 UNL     1      18.422   2.874  51.627  1.00  0.00     0.171 A 
HETATM   22  C17 UNL     1      18.152   1.731  50.773  1.00  0.00     0.111 A 
HETATM   23  S1  UNL     1      19.905   1.107  50.618  1.00  0.00    -0.058 SA
BRANCH  21  24
HETATM   24  O1  UNL     1      17.474   3.796  52.125  1.00  0.00    -0.344 OA
HETATM   25  H12 UNL     1      17.690   4.281  52.988  1.00  0.00     0.219 HD
ENDBRANCH  21  24
ENDBRANCH  11  19
TORSDOF 3
ENDMDL
MODEL 7
REMARK VINA RESULT:      -7.7      3.315      6.410
REMARK  3 active torsions:
REMARK  status: ('A' for Active; 'I' for Inactive)
REMARK    1  A    between atoms: C8_9  and  C9_10 
REMARK    2  A    between atoms: N2_18  and  C15_19 
REMARK    3  A    between atoms: C16_21  and  O1_22 
ROOT
HETATM    1  C1  UNL     1      23.776   2.832  48.556  1.00  0.00     0.017 C 
HETATM    2  C2  UNL     1      23.746   2.527  50.002  1.00  0.00     0.046 A 
HETATM    3  C3  UNL     1      22.360   2.726  50.497  1.00  0.00    -0.000 A 
HETATM    4  C4  UNL     1      21.852   3.371  51.527  1.00  0.00     0.007 A 
HETATM    5 BR1  UNL     1      20.005   3.491  51.974  1.00  0.00    -0.051 Br
HETATM    6  C5  UNL     1      22.851   4.040  52.363  1.00  0.00     0.018 A 
HETATM    7  C6  UNL     1      24.099   3.925  52.005  1.00  0.00     0.015 A 
HETATM    8  C7  UNL     1      24.752   3.221  50.866  1.00  0.00     0.129 A 
HETATM    9  C8  UNL     1      25.819   3.990  50.201  1.00  0.00     0.100 A 
HETATM   10  N1  UNL     1      26.778   3.226  50.639  1.00  0.00    -0.170 NA
HETATM   11  N2  UNL     1      25.856   2.422  51.316  1.00  0.00    -0.225 N 
ENDROOT
BRANCH   9  12
HETATM   12  C9  UNL     1      25.943   5.167  49.350  1.00  0.00    -0.007 A 
HETATM   13  C10 UNL     1      24.875   5.983  49.084  1.00  0.00     0.015 A 
HETATM   14  C11 UNL     1      24.956   7.109  48.278  1.00  0.00     0.020 A 
HETATM   15  C12 UNL     1      26.185   7.418  47.717  1.00  0.00     0.011 A 
HETATM   16 BR2  UNL     1      26.293   8.969  46.608  1.00  0.00    -0.051 Br
HETATM   17  C13 UNL     1      27.316   6.631  47.946  1.00  0.00     0.020 A 
HETATM   18  C14 UNL     1      27.138   5.528  48.764  1.00  0.00     0.015 A 
ENDBRANCH   9  12
BRANCH  11  19
HETATM   19  C15 UNL     1      26.195   1.293  52.084  1.00  0.00     0.193 A 
HETATM   20  N3  UNL     1      26.449  -0.061  51.830  1.00  0.00    -0.198 NA
HETATM   21  C16 UNL     1      26.728  -0.690  52.961  1.00  0.00     0.171 A 
HETATM   22  C17 UNL     1      26.793  -0.168  54.315  1.00  0.00     0.111 A 
HETATM   23  S1  UNL     1      26.367   1.608  53.925  1.00  0.00    -0.058 SA
BRANCH  21  24
HETATM   24  O1  UNL     1      26.959  -2.026  52.562  1.00  0.00    -0.344 OA
HETATM   25  H12 UNL     1      26.320  -2.738  52.894  1.00  0.00     0.219 HD
ENDBRANCH  21  24
ENDBRANCH  11  19
TORSDOF 3
ENDMDL
MODEL 8
REMARK VINA RESULT:      -7.6      5.667      8.724
REMARK  3 active torsions:
REMARK  status: ('A' for Active; 'I' for Inactive)
REMARK    1  A    between atoms: C8_9  and  C9_10 
REMARK    2  A    between atoms: N2_18  and  C15_19 
REMARK    3  A    between atoms: C16_21  and  O1_22 
ROOT
HETATM    1  C1  UNL     1      30.089   8.993  49.330  1.00  0.00     0.017 C 
HETATM    2  C2  UNL     1      31.127   8.533  48.383  1.00  0.00     0.046 A 
HETATM    3  C3  UNL     1      31.533   9.682  47.533  1.00  0.00    -0.000 A 
HETATM    4  C4  UNL     1      31.676   9.838  46.233  1.00  0.00     0.007 A 
HETATM    5 BR1  UNL     1      32.218  11.435  45.349  1.00  0.00    -0.051 Br
HETATM    6  C5  UNL     1      31.370   8.638  45.451  1.00  0.00     0.018 A 
HETATM    7  C6  UNL     1      31.000   7.577  46.111  1.00  0.00     0.015 A 
HETATM    8  C7  UNL     1      30.814   7.319  47.566  1.00  0.00     0.129 A 
HETATM    9  C8  UNL     1      29.600   6.555  47.903  1.00  0.00     0.100 A 
HETATM   10  N1  UNL     1      30.251   5.483  48.252  1.00  0.00    -0.170 NA
HETATM   11  N2  UNL     1      31.469   6.105  47.964  1.00  0.00    -0.225 N 
ENDROOT
BRANCH   9  12
HETATM   12  C9  UNL     1      28.155   6.755  47.906  1.00  0.00    -0.007 A 
HETATM   13  C10 UNL     1      27.315   5.947  48.626  1.00  0.00     0.015 A 
HETATM   14  C11 UNL     1      25.937   6.107  48.651  1.00  0.00     0.020 A 
HETATM   15  C12 UNL     1      25.390   7.141  47.906  1.00  0.00     0.011 A 
HETATM   16 BR2  UNL     1      23.494   7.358  47.943  1.00  0.00    -0.051 Br
HETATM   17  C13 UNL     1      26.187   8.003  47.150  1.00  0.00     0.020 A 
HETATM   18  C14 UNL     1      27.552   7.765  47.188  1.00  0.00     0.015 A 
ENDBRANCH   9  12
BRANCH  11  19
HETATM   19  C15 UNL     1      32.729   5.498  48.114  1.00  0.00     0.193 A 
HETATM   20  N3  UNL     1      33.798   5.599  49.014  1.00  0.00    -0.198 NA
HETATM   21  C16 UNL     1      34.766   4.765  48.666  1.00  0.00     0.171 A 
HETATM   22  C17 UNL     1      34.827   3.840  47.548  1.00  0.00     0.111 A 
HETATM   23  S1  UNL     1      33.154   4.217  46.811  1.00  0.00    -0.058 SA
BRANCH  21  24
HETATM   24  O1  UNL     1      35.763   4.970  49.645  1.00  0.00    -0.344 OA
HETATM   25  H12 UNL     1      35.626   5.721  50.313  1.00  0.00     0.219 HD
ENDBRANCH  21  24
ENDBRANCH  11  19
TORSDOF 3
ENDMDL
MODEL 9
REMARK VINA RESULT:      -7.5      4.404      7.087
REMARK  3 active torsions:
REMARK  status: ('A' for Active; 'I' for Inactive)
REMARK    1  A    between atoms: C8_9  and  C9_10 
REMARK    2  A    between atoms: N2_18  and  C15_19 
REMARK    3  A    between atoms: C16_21  and  O1_22 
ROOT
HETATM    1  C1  UNL     1      23.509   4.859  52.298  1.00  0.00     0.017 C 
HETATM    2  C2  UNL     1      22.507   3.865  51.858  1.00  0.00     0.046 A 
HETATM    3  C3  UNL     1      22.693   2.623  52.651  1.00  0.00    -0.000 A 
HETATM    4  C4  UNL     1      22.793   1.351  52.328  1.00  0.00     0.007 A 
HETATM    5 BR1  UNL     1      23.033  -0.098  53.540  1.00  0.00    -0.051 Br
HETATM    6  C5  UNL     1      22.707   1.093  50.889  1.00  0.00     0.018 A 
HETATM    7  C6  UNL     1      22.546   2.124  50.109  1.00  0.00     0.015 A 
HETATM    8  C7  UNL     1      22.426   3.582  50.391  1.00  0.00     0.129 A 
HETATM    9  C8  UNL     1      23.193   4.448  49.477  1.00  0.00     0.100 A 
HETATM   10  N1  UNL     1      22.138   4.930  48.888  1.00  0.00    -0.170 NA
HETATM   11  N2  UNL     1      21.305   4.152  49.698  1.00  0.00    -0.225 N 
ENDROOT
BRANCH   9  12
HETATM   12  C9  UNL     1      24.588   4.769  49.198  1.00  0.00    -0.007 A 
HETATM   13  C10 UNL     1      24.966   5.993  48.712  1.00  0.00     0.015 A 
HETATM   14  C11 UNL     1      26.282   6.331  48.434  1.00  0.00     0.020 A 
HETATM   15  C12 UNL     1      27.260   5.376  48.663  1.00  0.00     0.011 A 
HETATM   16 BR2  UNL     1      29.070   5.846  48.279  1.00  0.00    -0.051 Br
HETATM   17  C13 UNL     1      26.947   4.108  49.158  1.00  0.00     0.020 A 
HETATM   18  C14 UNL     1      25.606   3.863  49.406  1.00  0.00     0.015 A 
ENDBRANCH   9  12
BRANCH  11  19
HETATM   19  C15 UNL     1      19.900   4.147  49.626  1.00  0.00     0.193 A 
HETATM   20  N3  UNL     1      18.848   4.681  50.381  1.00  0.00    -0.198 NA
HETATM   21  C16 UNL     1      17.686   4.354  49.838  1.00  0.00     0.171 A 
HETATM   22  C17 UNL     1      17.415   3.569  48.646  1.00  0.00     0.111 A 
HETATM   23  S1  UNL     1      19.183   3.200  48.174  1.00  0.00    -0.058 SA
BRANCH  21  24
HETATM   24  O1  UNL     1      16.730   4.951  50.690  1.00  0.00    -0.344 OA
HETATM   25  H12 UNL     1      16.923   5.881  51.043  1.00  0.00     0.219 HD
ENDBRANCH  21  24
ENDBRANCH  11  19
TORSDOF 3
ENDMDL
