MODEL 1
REMARK VINA RESULT:      -8.4      0.000      0.000
REMARK  5 active torsions:
REMARK  status: ('A' for Active; 'I' for Inactive)
REMARK    1  A    between atoms: C4_5  and  N2_6 
REMARK    2  A    between atoms: N2_6  and  C5_7 
REMARK    3  A    between atoms: C8_10  and  O1_11 
REMARK    4  A    between atoms: O1_11  and  C9_12 
REMARK    5  A    between atoms: C14_18  and  N3_19 
ROOT
HETATM    1  C5  UNL     1      21.203  -0.316  54.037  1.00  0.00     0.034 A 
HETATM    2  C6  UNL     1      22.186  -1.205  54.420  1.00  0.00     0.032 A 
HETATM    3  C7  UNL     1      23.524  -0.960  54.250  1.00  0.00     0.041 A 
HETATM    4  C8  UNL     1      23.958   0.213  53.673  1.00  0.00     0.092 A 
HETATM    5  C15 UNL     1      22.979   1.134  53.274  1.00  0.00     0.069 A 
HETATM    6 CL1  UNL     1      23.247   2.707  52.515  1.00  0.00    -0.081 Cl
HETATM    7  C16 UNL     1      21.617   0.869  53.456  1.00  0.00     0.056 A 
ENDROOT
BRANCH   4   8
HETATM    8  O1  UNL     1      25.194   0.745  53.370  1.00  0.00    -0.334 OA
BRANCH   8   9
HETATM    9  C9  UNL     1      25.967   0.216  52.327  1.00  0.00     0.205 C 
HETATM   10  C10 UNL     1      26.608   1.378  51.608  1.00  0.00     0.024 C 
HETATM   11  C11 UNL     1      27.375   2.050  52.444  1.00  0.00    -0.024 C 
HETATM   12  C12 UNL     1      28.278   1.437  53.167  1.00  0.00     0.056 C 
HETATM   13  C13 UNL     1      28.218  -0.013  53.334  1.00  0.00     0.142 C 
HETATM   14  F1  UNL     1      29.247  -0.710  53.874  1.00  0.00    -0.204 F 
HETATM   15  C14 UNL     1      27.095  -0.580  52.922  1.00  0.00     0.075 C 
BRANCH  15  16
HETATM   16  N3  UNL     1      27.022  -1.985  53.078  1.00  0.00    -0.398 N 
HETATM   17  H11 UNL     1      26.652  -2.623  52.313  1.00  0.00     0.156 HD
HETATM   18  H12 UNL     1      27.001  -3.000  53.272  1.00  0.00     0.156 HD
ENDBRANCH  15  16
ENDBRANCH   8   9
ENDBRANCH   4   8
BRANCH   1  19
HETATM   19  N2  UNL     1      19.826  -0.615  54.235  1.00  0.00    -0.358 N 
HETATM   20  H5  UNL     1      19.493  -0.826  55.190  1.00  0.00     0.166 HD
BRANCH  19  21
HETATM   21  C4  UNL     1      18.905  -0.630  53.161  1.00  0.00     0.036 A 
HETATM   22  C3  UNL     1      19.086  -0.166  51.933  1.00  0.00     0.142 A 
HETATM   23  N1  UNL     1      17.895  -0.380  51.152  1.00  0.00    -0.267 NA
HETATM   24  C2  UNL     1      17.007  -0.965  51.902  1.00  0.00     0.018 A 
HETATM   25  C1  UNL     1      15.669  -1.313  51.364  1.00  0.00     0.066 C 
HETATM   26  C17 UNL     1      17.528  -1.208  53.295  1.00  0.00     0.080 A 
HETATM   27  C18 UNL     1      17.716  -2.697  53.496  1.00  0.00     0.023 C 
ENDBRANCH  19  21
ENDBRANCH   1  19
TORSDOF 5
ENDMDL
MODEL 2
REMARK VINA RESULT:      -8.4      5.143      8.112
REMARK  5 active torsions:
REMARK  status: ('A' for Active; 'I' for Inactive)
REMARK    1  A    between atoms: C4_5  and  N2_6 
REMARK    2  A    between atoms: N2_6  and  C5_7 
REMARK    3  A    between atoms: C8_10  and  O1_11 
REMARK    4  A    between atoms: O1_11  and  C9_12 
REMARK    5  A    between atoms: C14_18  and  N3_19 
ROOT
HETATM    1  C5  UNL     1      24.368   1.360  52.785  1.00  0.00     0.034 A 
HETATM    2  C6  UNL     1      24.549   2.613  53.331  1.00  0.00     0.032 A 
HETATM    3  C7  UNL     1      24.164   3.768  52.700  1.00  0.00     0.041 A 
HETATM    4  C8  UNL     1      23.564   3.726  51.462  1.00  0.00     0.092 A 
HETATM    5  C15 UNL     1      23.367   2.465  50.883  1.00  0.00     0.069 A 
HETATM    6 CL1  UNL     1      22.627   2.116  49.317  1.00  0.00    -0.081 Cl
HETATM    7  C16 UNL     1      23.766   1.295  51.542  1.00  0.00     0.056 A 
ENDROOT
BRANCH   4   8
HETATM    8  O1  UNL     1      23.075   4.676  50.589  1.00  0.00    -0.334 OA
BRANCH   8   9
HETATM    9  C9  UNL     1      23.931   5.614  49.994  1.00  0.00     0.205 C 
HETATM   10  C10 UNL     1      23.804   5.452  48.499  1.00  0.00     0.024 C 
HETATM   11  C11 UNL     1      22.559   5.680  48.131  1.00  0.00    -0.024 C 
HETATM   12  C12 UNL     1      21.937   6.770  48.502  1.00  0.00     0.056 C 
HETATM   13  C13 UNL     1      22.464   7.571  49.605  1.00  0.00     0.142 C 
HETATM   14  F1  UNL     1      21.991   8.813  49.871  1.00  0.00    -0.204 F 
HETATM   15  C14 UNL     1      23.425   6.994  50.310  1.00  0.00     0.075 C 
BRANCH  15  16
HETATM   16  N3  UNL     1      23.945   7.758  51.382  1.00  0.00    -0.398 N 
HETATM   17  H11 UNL     1      24.637   7.356  52.082  1.00  0.00     0.156 HD
HETATM   18  H12 UNL     1      24.275   8.382  52.136  1.00  0.00     0.156 HD
ENDBRANCH  15  16
ENDBRANCH   8   9
ENDBRANCH   4   8
BRANCH   1  19
HETATM   19  N2  UNL     1      24.785   0.189  53.480  1.00  0.00    -0.358 N 
HETATM   20  H5  UNL     1      24.081  -0.526  53.720  1.00  0.00     0.166 HD
BRANCH  19  21
HETATM   21  C4  UNL     1      26.136  -0.016  53.848  1.00  0.00     0.036 A 
HETATM   22  C3  UNL     1      26.681   0.138  55.045  1.00  0.00     0.142 A 
HETATM   23  N1  UNL     1      28.086  -0.175  54.984  1.00  0.00    -0.267 NA
HETATM   24  C2  UNL     1      28.382  -0.514  53.763  1.00  0.00     0.018 A 
HETATM   25  C1  UNL     1      29.768  -0.893  53.395  1.00  0.00     0.066 C 
HETATM   26  C17 UNL     1      27.175  -0.461  52.862  1.00  0.00     0.080 A 
HETATM   27  C18 UNL     1      26.797  -1.871  52.462  1.00  0.00     0.023 C 
ENDBRANCH  19  21
ENDBRANCH   1  19
TORSDOF 5
ENDMDL
MODEL 3
REMARK VINA RESULT:      -8.4      5.372      8.210
REMARK  5 active torsions:
REMARK  status: ('A' for Active; 'I' for Inactive)
REMARK    1  A    between atoms: C4_5  and  N2_6 
REMARK    2  A    between atoms: N2_6  and  C5_7 
REMARK    3  A    between atoms: C8_10  and  O1_11 
REMARK    4  A    between atoms: O1_11  and  C9_12 
REMARK    5  A    between atoms: C14_18  and  N3_19 
ROOT
HETATM    1  C5  UNL     1      25.286   1.522  51.860  1.00  0.00     0.034 A 
HETATM    2  C6  UNL     1      26.428   2.112  51.359  1.00  0.00     0.032 A 
HETATM    3  C7  UNL     1      26.404   3.188  50.510  1.00  0.00     0.041 A 
HETATM    4  C8  UNL     1      25.209   3.743  50.109  1.00  0.00     0.092 A 
HETATM    5  C15 UNL     1      24.032   3.163  50.604  1.00  0.00     0.069 A 
HETATM    6 CL1  UNL     1      22.374   3.665  50.260  1.00  0.00    -0.081 Cl
HETATM    7  C16 UNL     1      24.075   2.064  51.471  1.00  0.00     0.056 A 
ENDROOT
BRANCH   4   8
HETATM    8  O1  UNL     1      24.855   4.794  49.290  1.00  0.00    -0.334 OA
BRANCH   8   9
HETATM    9  C9  UNL     1      25.272   6.101  49.577  1.00  0.00     0.205 C 
HETATM   10  C10 UNL     1      25.215   6.885  48.289  1.00  0.00     0.024 C 
HETATM   11  C11 UNL     1      23.979   6.897  47.831  1.00  0.00    -0.024 C 
HETATM   12  C12 UNL     1      22.980   7.253  48.598  1.00  0.00     0.056 C 
HETATM   13  C13 UNL     1      23.155   7.295  50.049  1.00  0.00     0.142 C 
HETATM   14  F1  UNL     1      22.233   7.871  50.859  1.00  0.00    -0.204 F 
HETATM   15  C14 UNL     1      24.267   6.735  50.498  1.00  0.00     0.075 C 
BRANCH  15  16
HETATM   16  N3  UNL     1      24.449   6.768  51.901  1.00  0.00    -0.398 N 
HETATM   17  H11 UNL     1      24.010   6.047  52.547  1.00  0.00     0.156 HD
HETATM   18  H12 UNL     1      24.629   6.864  52.914  1.00  0.00     0.156 HD
ENDBRANCH  15  16
ENDBRANCH   8   9
ENDBRANCH   4   8
BRANCH   1  19
HETATM   19  N2  UNL     1      25.362   0.406  52.740  1.00  0.00    -0.358 N 
HETATM   20  H5  UNL     1      24.517  -0.167  52.893  1.00  0.00     0.166 HD
BRANCH  19  21
HETATM   21  C4  UNL     1      26.562   0.064  53.407  1.00  0.00     0.036 A 
HETATM   22  C3  UNL     1      26.906   0.351  54.653  1.00  0.00     0.142 A 
HETATM   23  N1  UNL     1      28.213  -0.184  54.933  1.00  0.00    -0.267 NA
HETATM   24  C2  UNL     1      28.652  -0.786  53.865  1.00  0.00     0.018 A 
HETATM   25  C1  UNL     1      29.984  -1.438  53.854  1.00  0.00     0.066 C 
HETATM   26  C17 UNL     1      27.656  -0.712  52.737  1.00  0.00     0.080 A 
HETATM   27  C18 UNL     1      27.095  -2.096  52.485  1.00  0.00     0.023 C 
ENDBRANCH  19  21
ENDBRANCH   1  19
TORSDOF 5
ENDMDL
MODEL 4
REMARK VINA RESULT:      -8.1      6.330      9.039
REMARK  5 active torsions:
REMARK  status: ('A' for Active; 'I' for Inactive)
REMARK    1  A    between atoms: C4_5  and  N2_6 
REMARK    2  A    between atoms: N2_6  and  C5_7 
REMARK    3  A    between atoms: C8_10  and  O1_11 
REMARK    4  A    between atoms: O1_11  and  C9_12 
REMARK    5  A    between atoms: C14_18  and  N3_19 
ROOT
HETATM    1  C5  UNL     1      25.628   3.350  50.611  1.00  0.00     0.034 A 
HETATM    2  C6  UNL     1      26.670   3.323  49.707  1.00  0.00     0.032 A 
HETATM    3  C7  UNL     1      27.059   4.417  48.979  1.00  0.00     0.041 A 
HETATM    4  C8  UNL     1      26.410   5.624  49.121  1.00  0.00     0.092 A 
HETATM    5  C15 UNL     1      25.347   5.680  50.033  1.00  0.00     0.069 A 
HETATM    6 CL1  UNL     1      24.346   7.085  50.414  1.00  0.00    -0.081 Cl
HETATM    7  C16 UNL     1      24.963   4.552  50.769  1.00  0.00     0.056 A 
ENDROOT
BRANCH   4   8
HETATM    8  O1  UNL     1      26.553   6.873  48.554  1.00  0.00    -0.334 OA
BRANCH   8   9
HETATM    9  C9  UNL     1      27.760   7.578  48.662  1.00  0.00     0.205 C 
HETATM   10  C10 UNL     1      28.274   7.807  47.261  1.00  0.00     0.024 C 
HETATM   11  C11 UNL     1      27.397   8.515  46.577  1.00  0.00    -0.024 C 
HETATM   12  C12 UNL     1      26.922   9.638  47.053  1.00  0.00     0.056 C 
HETATM   13  C13 UNL     1      27.066   9.948  48.474  1.00  0.00     0.142 C 
HETATM   14  F1  UNL     1      26.799  11.183  48.963  1.00  0.00    -0.204 F 
HETATM   15  C14 UNL     1      27.472   8.939  49.230  1.00  0.00     0.075 C 
BRANCH  15  16
HETATM   16  N3  UNL     1      27.616   9.224  50.609  1.00  0.00    -0.398 N 
HETATM   17  H11 UNL     1      28.412   9.819  50.985  1.00  0.00     0.156 HD
HETATM   18  H12 UNL     1      27.650   9.384  51.629  1.00  0.00     0.156 HD
ENDBRANCH  15  16
ENDBRANCH   8   9
ENDBRANCH   4   8
BRANCH   1  19
HETATM   19  N2  UNL     1      25.262   2.186  51.344  1.00  0.00    -0.358 N 
HETATM   20  H5  UNL     1      24.473   1.612  51.007  1.00  0.00     0.166 HD
BRANCH  19  21
HETATM   21  C4  UNL     1      25.948   1.800  52.519  1.00  0.00     0.036 A 
HETATM   22  C3  UNL     1      25.692   2.169  53.765  1.00  0.00     0.142 A 
HETATM   23  N1  UNL     1      26.632   1.547  54.661  1.00  0.00    -0.267 NA
HETATM   24  C2  UNL     1      27.446   0.811  53.961  1.00  0.00     0.018 A 
HETATM   25  C1  UNL     1      28.531   0.042  54.618  1.00  0.00     0.066 C 
HETATM   26  C17 UNL     1      27.123   0.869  52.490  1.00  0.00     0.080 A 
HETATM   27  C18 UNL     1      26.582  -0.475  52.052  1.00  0.00     0.023 C 
ENDBRANCH  19  21
ENDBRANCH   1  19
TORSDOF 5
ENDMDL
MODEL 5
REMARK VINA RESULT:      -8.0      5.361      8.200
REMARK  5 active torsions:
REMARK  status: ('A' for Active; 'I' for Inactive)
REMARK    1  A    between atoms: C4_5  and  N2_6 
REMARK    2  A    between atoms: N2_6  and  C5_7 
REMARK    3  A    between atoms: C8_10  and  O1_11 
REMARK    4  A    between atoms: O1_11  and  C9_12 
REMARK    5  A    between atoms: C14_18  and  N3_19 
ROOT
HETATM    1  C5  UNL     1      24.801   1.754  52.402  1.00  0.00     0.034 A 
HETATM    2  C6  UNL     1      23.849   2.560  52.990  1.00  0.00     0.032 A 
HETATM    3  C7  UNL     1      23.553   3.821  52.540  1.00  0.00     0.041 A 
HETATM    4  C8  UNL     1      24.210   4.352  51.452  1.00  0.00     0.092 A 
HETATM    5  C15 UNL     1      25.184   3.554  50.835  1.00  0.00     0.069 A 
HETATM    6 CL1  UNL     1      26.173   3.976  49.434  1.00  0.00    -0.081 Cl
HETATM    7  C16 UNL     1      25.473   2.268  51.308  1.00  0.00     0.056 A 
ENDROOT
BRANCH   4   8
HETATM    8  O1  UNL     1      24.148   5.551  50.773  1.00  0.00    -0.334 OA
BRANCH   8   9
HETATM    9  C9  UNL     1      22.965   5.957  50.139  1.00  0.00     0.205 C 
HETATM   10  C10 UNL     1      22.681   7.372  50.581  1.00  0.00     0.024 C 
HETATM   11  C11 UNL     1      23.678   8.157  50.223  1.00  0.00    -0.024 C 
HETATM   12  C12 UNL     1      24.115   8.168  48.989  1.00  0.00     0.056 C 
HETATM   13  C13 UNL     1      23.765   7.078  48.081  1.00  0.00     0.142 C 
HETATM   14  F1  UNL     1      23.998   7.159  46.749  1.00  0.00    -0.204 F 
HETATM   15  C14 UNL     1      23.212   6.022  48.658  1.00  0.00     0.075 C 
BRANCH  15  16
HETATM   16  N3  UNL     1      22.868   4.957  47.791  1.00  0.00    -0.398 N 
HETATM   17  H11 UNL     1      22.868   3.943  48.110  1.00  0.00     0.156 HD
HETATM   18  H12 UNL     1      22.606   4.239  47.096  1.00  0.00     0.156 HD
ENDBRANCH  15  16
ENDBRANCH   8   9
ENDBRANCH   4   8
BRANCH   1  19
HETATM   19  N2  UNL     1      25.073   0.451  52.907  1.00  0.00    -0.358 N 
HETATM   20  H5  UNL     1      24.336  -0.270  52.850  1.00  0.00     0.166 HD
BRANCH  19  21
HETATM   21  C4  UNL     1      26.323   0.122  53.482  1.00  0.00     0.036 A 
HETATM   22  C3  UNL     1      26.727   0.348  54.724  1.00  0.00     0.142 A 
HETATM   23  N1  UNL     1      28.069  -0.146  54.895  1.00  0.00    -0.267 NA
HETATM   24  C2  UNL     1      28.468  -0.663  53.769  1.00  0.00     0.018 A 
HETATM   25  C1  UNL     1      29.822  -1.255  53.643  1.00  0.00     0.066 C 
HETATM   26  C17 UNL     1      27.406  -0.565  52.705  1.00  0.00     0.080 A 
HETATM   27  C18 UNL     1      26.886  -1.954  52.400  1.00  0.00     0.023 C 
ENDBRANCH  19  21
ENDBRANCH   1  19
TORSDOF 5
ENDMDL
MODEL 6
REMARK VINA RESULT:      -7.9      5.212      8.882
REMARK  5 active torsions:
REMARK  status: ('A' for Active; 'I' for Inactive)
REMARK    1  A    between atoms: C4_5  and  N2_6 
REMARK    2  A    between atoms: N2_6  and  C5_7 
REMARK    3  A    between atoms: C8_10  and  O1_11 
REMARK    4  A    between atoms: O1_11  and  C9_12 
REMARK    5  A    between atoms: C14_18  and  N3_19 
ROOT
HETATM    1  C5  UNL     1      25.603   5.065  49.283  1.00  0.00     0.034 A 
HETATM    2  C6  UNL     1      26.642   4.177  49.464  1.00  0.00     0.032 A 
HETATM    3  C7  UNL     1      26.526   3.028  50.203  1.00  0.00     0.041 A 
HETATM    4  C8  UNL     1      25.336   2.701  50.813  1.00  0.00     0.092 A 
HETATM    5  C15 UNL     1      24.261   3.586  50.646  1.00  0.00     0.069 A 
HETATM    6 CL1  UNL     1      22.632   3.419  51.309  1.00  0.00    -0.081 Cl
HETATM    7  C16 UNL     1      24.398   4.755  49.887  1.00  0.00     0.056 A 
ENDROOT
BRANCH   4   8
HETATM    8  O1  UNL     1      24.906   1.652  51.600  1.00  0.00    -0.334 OA
BRANCH   8   9
HETATM    9  C9  UNL     1      24.807   1.791  52.991  1.00  0.00     0.205 C 
HETATM   10  C10 UNL     1      23.913   0.683  53.492  1.00  0.00     0.024 C 
HETATM   11  C11 UNL     1      24.443  -0.486  53.191  1.00  0.00    -0.024 C 
HETATM   12  C12 UNL     1      25.685  -0.760  53.500  1.00  0.00     0.056 C 
HETATM   13  C13 UNL     1      26.605   0.320  53.849  1.00  0.00     0.142 C 
HETATM   14  F1  UNL     1      27.822   0.070  54.392  1.00  0.00    -0.204 F 
HETATM   15  C14 UNL     1      26.160   1.542  53.596  1.00  0.00     0.075 C 
BRANCH  15  16
HETATM   16  N3  UNL     1      27.041   2.598  53.929  1.00  0.00    -0.398 N 
HETATM   17  H11 UNL     1      27.766   2.510  54.702  1.00  0.00     0.156 HD
HETATM   18  H12 UNL     1      27.646   3.416  54.111  1.00  0.00     0.156 HD
ENDBRANCH  15  16
ENDBRANCH   8   9
ENDBRANCH   4   8
BRANCH   1  19
HETATM   19  N2  UNL     1      25.772   6.245  48.506  1.00  0.00    -0.358 N 
HETATM   20  H5  UNL     1      25.322   6.301  47.579  1.00  0.00     0.166 HD
BRANCH  19  21
HETATM   21  C4  UNL     1      26.540   7.338  48.972  1.00  0.00     0.036 A 
HETATM   22  C3  UNL     1      26.388   8.011  50.103  1.00  0.00     0.142 A 
HETATM   23  N1  UNL     1      27.381   9.050  50.188  1.00  0.00    -0.267 NA
HETATM   24  C2  UNL     1      28.122   9.004  49.119  1.00  0.00     0.018 A 
HETATM   25  C1  UNL     1      29.238   9.963  48.925  1.00  0.00     0.066 C 
HETATM   26  C17 UNL     1      27.688   7.901  48.188  1.00  0.00     0.080 A 
HETATM   27  C18 UNL     1      28.752   6.824  48.173  1.00  0.00     0.023 C 
ENDBRANCH  19  21
ENDBRANCH   1  19
TORSDOF 5
ENDMDL
MODEL 7
REMARK VINA RESULT:      -7.8      2.744      3.743
REMARK  5 active torsions:
REMARK  status: ('A' for Active; 'I' for Inactive)
REMARK    1  A    between atoms: C4_5  and  N2_6 
REMARK    2  A    between atoms: N2_6  and  C5_7 
REMARK    3  A    between atoms: C8_10  and  O1_11 
REMARK    4  A    between atoms: O1_11  and  C9_12 
REMARK    5  A    between atoms: C14_18  and  N3_19 
ROOT
HETATM    1  C5  UNL     1      23.004   3.170  51.389  1.00  0.00     0.034 A 
HETATM    2  C6  UNL     1      23.126   2.740  52.693  1.00  0.00     0.032 A 
HETATM    3  C7  UNL     1      24.300   2.267  53.220  1.00  0.00     0.041 A 
HETATM    4  C8  UNL     1      25.440   2.199  52.450  1.00  0.00     0.092 A 
HETATM    5  C15 UNL     1      25.345   2.631  51.119  1.00  0.00     0.069 A 
HETATM    6 CL1  UNL     1      26.637   2.657  49.915  1.00  0.00    -0.081 Cl
HETATM    7  C16 UNL     1      24.137   3.112  50.598  1.00  0.00     0.056 A 
ENDROOT
BRANCH   4   8
HETATM    8  O1  UNL     1      26.737   1.787  52.673  1.00  0.00    -0.334 OA
BRANCH   8   9
HETATM    9  C9  UNL     1      27.160   1.409  53.955  1.00  0.00     0.205 C 
HETATM   10  C10 UNL     1      26.589   0.040  54.232  1.00  0.00     0.024 C 
HETATM   11  C11 UNL     1      27.038  -0.818  53.336  1.00  0.00    -0.024 C 
HETATM   12  C12 UNL     1      28.320  -0.925  53.091  1.00  0.00     0.056 C 
HETATM   13  C13 UNL     1      29.236   0.128  53.525  1.00  0.00     0.142 C 
HETATM   14  F1  UNL     1      30.580  -0.044  53.499  1.00  0.00    -0.204 F 
HETATM   15  C14 UNL     1      28.654   1.244  53.937  1.00  0.00     0.075 C 
BRANCH  15  16
HETATM   16  N3  UNL     1      29.530   2.273  54.360  1.00  0.00    -0.398 N 
HETATM   17  H11 UNL     1      29.314   3.302  54.201  1.00  0.00     0.156 HD
HETATM   18  H12 UNL     1      30.221   2.962  54.697  1.00  0.00     0.156 HD
ENDBRANCH  15  16
ENDBRANCH   8   9
ENDBRANCH   4   8
BRANCH   1  19
HETATM   19  N2  UNL     1      21.762   3.653  50.887  1.00  0.00    -0.358 N 
HETATM   20  H5  UNL     1      21.746   4.547  50.370  1.00  0.00     0.166 HD
BRANCH  19  21
HETATM   21  C4  UNL     1      20.555   2.942  51.081  1.00  0.00     0.036 A 
HETATM   22  C3  UNL     1      19.392   3.419  51.500  1.00  0.00     0.142 A 
HETATM   23  N1  UNL     1      18.422   2.356  51.557  1.00  0.00    -0.267 NA
HETATM   24  C2  UNL     1      18.995   1.251  51.177  1.00  0.00     0.018 A 
HETATM   25  C1  UNL     1      18.236  -0.023  51.134  1.00  0.00     0.066 C 
HETATM   26  C17 UNL     1      20.442   1.470  50.818  1.00  0.00     0.080 A 
HETATM   27  C18 UNL     1      20.609   1.297  49.323  1.00  0.00     0.023 C 
ENDBRANCH  19  21
ENDBRANCH   1  19
TORSDOF 5
ENDMDL
MODEL 8
REMARK VINA RESULT:      -7.6      7.178     11.497
REMARK  5 active torsions:
REMARK  status: ('A' for Active; 'I' for Inactive)
REMARK    1  A    between atoms: C4_5  and  N2_6 
REMARK    2  A    between atoms: N2_6  and  C5_7 
REMARK    3  A    between atoms: C8_10  and  O1_11 
REMARK    4  A    between atoms: O1_11  and  C9_12 
REMARK    5  A    between atoms: C14_18  and  N3_19 
ROOT
HETATM    1  C5  UNL     1      27.901   6.341  48.060  1.00  0.00     0.034 A 
HETATM    2  C6  UNL     1      26.769   7.123  47.969  1.00  0.00     0.032 A 
HETATM    3  C7  UNL     1      25.538   6.714  48.413  1.00  0.00     0.041 A 
HETATM    4  C8  UNL     1      25.373   5.472  48.985  1.00  0.00     0.092 A 
HETATM    5  C15 UNL     1      26.508   4.656  49.090  1.00  0.00     0.069 A 
HETATM    6 CL1  UNL     1      26.589   3.029  49.775  1.00  0.00    -0.081 Cl
HETATM    7  C16 UNL     1      27.758   5.090  48.632  1.00  0.00     0.056 A 
ENDROOT
BRANCH   4   8
HETATM    8  O1  UNL     1      24.302   4.783  49.515  1.00  0.00    -0.334 OA
BRANCH   8   9
HETATM    9  C9  UNL     1      23.280   5.459  50.198  1.00  0.00     0.205 C 
HETATM   10  C10 UNL     1      22.073   4.554  50.211  1.00  0.00     0.024 C 
HETATM   11  C11 UNL     1      22.367   3.430  50.835  1.00  0.00    -0.024 C 
HETATM   12  C12 UNL     1      22.909   3.445  52.027  1.00  0.00     0.056 C 
HETATM   13  C13 UNL     1      23.524   4.671  52.533  1.00  0.00     0.142 C 
HETATM   14  F1  UNL     1      23.888   4.799  53.832  1.00  0.00    -0.204 F 
HETATM   15  C14 UNL     1      23.693   5.628  51.633  1.00  0.00     0.075 C 
BRANCH  15  16
HETATM   16  N3  UNL     1      24.287   6.821  52.110  1.00  0.00    -0.398 N 
HETATM   17  H11 UNL     1      25.154   6.816  52.725  1.00  0.00     0.156 HD
HETATM   18  H12 UNL     1      24.659   7.735  52.416  1.00  0.00     0.156 HD
ENDBRANCH  15  16
ENDBRANCH   8   9
ENDBRANCH   4   8
BRANCH   1  19
HETATM   19  N2  UNL     1      29.158   6.810  47.584  1.00  0.00    -0.358 N 
HETATM   20  H5  UNL     1      29.578   6.359  46.756  1.00  0.00     0.166 HD
BRANCH  19  21
HETATM   21  C4  UNL     1      29.842   7.875  48.217  1.00  0.00     0.036 A 
HETATM   22  C3  UNL     1      30.840   7.794  49.084  1.00  0.00     0.142 A 
HETATM   23  N1  UNL     1      31.246   9.117  49.483  1.00  0.00    -0.267 NA
HETATM   24  C2  UNL     1      30.500   9.984  48.862  1.00  0.00     0.018 A 
HETATM   25  C1  UNL     1      30.689  11.440  49.076  1.00  0.00     0.066 C 
HETATM   26  C17 UNL     1      29.496   9.311  47.963  1.00  0.00     0.080 A 
HETATM   27  C18 UNL     1      29.867   9.584  46.521  1.00  0.00     0.023 C 
ENDBRANCH  19  21
ENDBRANCH   1  19
TORSDOF 5
ENDMDL
MODEL 9
REMARK VINA RESULT:      -7.5      6.167      9.952
REMARK  5 active torsions:
REMARK  status: ('A' for Active; 'I' for Inactive)
REMARK    1  A    between atoms: C4_5  and  N2_6 
REMARK    2  A    between atoms: N2_6  and  C5_7 
REMARK    3  A    between atoms: C8_10  and  O1_11 
REMARK    4  A    between atoms: O1_11  and  C9_12 
REMARK    5  A    between atoms: C14_18  and  N3_19 
ROOT
HETATM    1  C5  UNL     1      25.519   6.342  48.475  1.00  0.00     0.034 A 
HETATM    2  C6  UNL     1      24.149   6.400  48.618  1.00  0.00     0.032 A 
HETATM    3  C7  UNL     1      23.413   5.400  49.201  1.00  0.00     0.041 A 
HETATM    4  C8  UNL     1      24.026   4.265  49.684  1.00  0.00     0.092 A 
HETATM    5  C15 UNL     1      25.420   4.181  49.552  1.00  0.00     0.069 A 
HETATM    6 CL1  UNL     1      26.458   2.851  50.077  1.00  0.00    -0.081 Cl
HETATM    7  C16 UNL     1      26.155   5.211  48.953  1.00  0.00     0.056 A 
ENDROOT
BRANCH   4   8
HETATM    8  O1  UNL     1      23.586   3.116  50.305  1.00  0.00    -0.334 OA
BRANCH   8   9
HETATM    9  C9  UNL     1      22.888   3.177  51.519  1.00  0.00     0.205 C 
HETATM   10  C10 UNL     1      22.352   1.795  51.801  1.00  0.00     0.024 C 
HETATM   11  C11 UNL     1      23.352   0.941  51.897  1.00  0.00    -0.024 C 
HETATM   12  C12 UNL     1      24.366   1.182  52.690  1.00  0.00     0.056 C 
HETATM   13  C13 UNL     1      24.590   2.533  53.199  1.00  0.00     0.142 C 
HETATM   14  F1  UNL     1      25.478   2.780  54.192  1.00  0.00    -0.204 F 
HETATM   15  C14 UNL     1      23.866   3.479  52.620  1.00  0.00     0.075 C 
BRANCH  15  16
HETATM   16  N3  UNL     1      24.072   4.793  53.103  1.00  0.00    -0.398 N 
HETATM   17  H11 UNL     1      25.032   5.251  53.108  1.00  0.00     0.156 HD
HETATM   18  H12 UNL     1      24.139   5.755  53.473  1.00  0.00     0.156 HD
ENDBRANCH  15  16
ENDBRANCH   8   9
ENDBRANCH   4   8
BRANCH   1  19
HETATM   19  N2  UNL     1      26.239   7.406  47.862  1.00  0.00    -0.358 N 
HETATM   20  H5  UNL     1      26.071   7.612  46.864  1.00  0.00     0.166 HD
BRANCH  19  21
HETATM   21  C4  UNL     1      27.175   8.184  48.583  1.00  0.00     0.036 A 
HETATM   22  C3  UNL     1      26.985   8.826  49.726  1.00  0.00     0.142 A 
HETATM   23  N1  UNL     1      28.199   9.496  50.116  1.00  0.00    -0.267 NA
HETATM   24  C2  UNL     1      29.110   9.260  49.216  1.00  0.00     0.018 A 
HETATM   25  C1  UNL     1      30.474   9.826  49.351  1.00  0.00     0.066 C 
HETATM   26  C17 UNL     1      28.583   8.386  48.108  1.00  0.00     0.080 A 
HETATM   27  C18 UNL     1      29.252   7.030  48.191  1.00  0.00     0.023 C 
ENDBRANCH  19  21
ENDBRANCH   1  19
TORSDOF 5
ENDMDL
