MODEL 1
REMARK VINA RESULT:      -8.8      0.000      0.000
REMARK  3 active torsions:
REMARK  status: ('A' for Active; 'I' for Inactive)
REMARK    1  A    between atoms: N1_1  and  C1_2 
REMARK    2  A    between atoms: C6_8  and  C7_9 
REMARK    3  A    between atoms: C7_9  and  N2_10 
ROOT
HETATM    1  C1  UNL     1      26.055   0.400  53.329  1.00  0.00     0.052 C 
HETATM    2  C2  UNL     1      26.592   1.243  52.423  1.00  0.00     0.090 C 
HETATM    3  C3  UNL     1      26.509   2.224  51.276  1.00  0.00     0.096 A 
HETATM    4  C4  UNL     1      25.368   2.602  50.618  1.00  0.00     0.019 A 
HETATM    5 BR1  UNL     1      26.599   3.671  49.641  1.00  0.00    -0.155 Br
HETATM    6  C5  UNL     1      24.024   2.796  50.084  1.00  0.00     0.110 C 
HETATM    7  C6  UNL     1      22.807   2.300  50.233  1.00  0.00     0.012 C 
HETATM    8  N3  UNL     1      21.831   1.411  50.781  1.00  0.00    -0.361 N 
HETATM    9  C11 UNL     1      21.880   0.658  51.960  1.00  0.00     0.033 A 
HETATM   10  C12 UNL     1      20.971   0.059  52.768  1.00  0.00     0.032 A 
HETATM   11  C13 UNL     1      21.250  -0.634  53.924  1.00  0.00     0.035 A 
HETATM   12  C14 UNL     1      22.567  -0.778  54.377  1.00  0.00     0.070 A 
HETATM   13  N4  UNL     1      22.905  -1.437  55.527  1.00  0.00    -0.241 NA
HETATM   14  C15 UNL     1      24.240  -1.468  55.844  1.00  0.00     0.234 A 
HETATM   15  N5  UNL     1      25.241  -0.896  55.106  1.00  0.00    -0.243 NA
HETATM   16  C16 UNL     1      24.941  -0.252  53.987  1.00  0.00     0.071 A 
HETATM   17  C17 UNL     1      23.615  -0.235  53.686  1.00  0.00     0.022 A 
HETATM   18  C18 UNL     1      23.023   0.357  52.632  1.00  0.00     0.045 A 
HETATM   19  H10 UNL     1      20.924   1.168  50.377  1.00  0.00     0.165 HD
ENDROOT
BRANCH   7  20
HETATM   20  C7  UNL     1      22.078   3.124  49.271  1.00  0.00     0.193 C 
BRANCH  20  21
HETATM   21  N2  UNL     1      22.046   4.502  49.821  1.00  0.00    -0.279 N 
HETATM   22  S1  UNL     1      22.934   5.869  49.096  1.00  0.00    -0.021 SA
HETATM   23  C8  UNL     1      22.384   7.135  50.316  1.00  0.00     0.074 A 
HETATM   24  C9  UNL     1      21.547   6.320  51.173  1.00  0.00     0.083 A 
HETATM   25  C10 UNL     1      21.378   4.990  50.920  1.00  0.00     0.254 A 
HETATM   26  O1  UNL     1      20.671   4.234  51.622  1.00  0.00    -0.268 OA
ENDBRANCH  20  21
ENDBRANCH   7  20
BRANCH   1  27
HETATM   27  N1  UNL     1      27.395   0.134  53.814  1.00  0.00    -0.420 N 
HETATM   28  H1  UNL     1      28.165  -0.562  53.914  1.00  0.00     0.150 HD
HETATM   29  H2  UNL     1      28.074   0.740  54.303  1.00  0.00     0.150 HD
ENDBRANCH   1  27
TORSDOF 3
ENDMDL
MODEL 2
REMARK VINA RESULT:      -8.8      2.360      4.134
REMARK  3 active torsions:
REMARK  status: ('A' for Active; 'I' for Inactive)
REMARK    1  A    between atoms: N1_1  and  C1_2 
REMARK    2  A    between atoms: C6_8  and  C7_9 
REMARK    3  A    between atoms: C7_9  and  N2_10 
ROOT
HETATM    1  C1  UNL     1      24.737  -0.813  55.076  1.00  0.00     0.052 C 
HETATM    2  C2  UNL     1      23.449  -1.212  55.092  1.00  0.00     0.090 C 
HETATM    3  C3  UNL     1      22.046  -1.274  54.529  1.00  0.00     0.096 A 
HETATM    4  C4  UNL     1      21.599  -0.629  53.406  1.00  0.00     0.019 A 
HETATM    5 BR1  UNL     1      19.975  -1.500  53.872  1.00  0.00    -0.155 Br
HETATM    6  C5  UNL     1      21.391   0.183  52.212  1.00  0.00     0.110 C 
HETATM    7  C6  UNL     1      22.043   1.066  51.476  1.00  0.00     0.012 C 
HETATM    8  N3  UNL     1      23.154   1.901  51.141  1.00  0.00    -0.361 N 
HETATM    9  C11 UNL     1      24.490   1.804  51.546  1.00  0.00     0.033 A 
HETATM   10  C12 UNL     1      25.680   2.270  51.090  1.00  0.00     0.032 A 
HETATM   11  C13 UNL     1      26.912   2.027  51.653  1.00  0.00     0.035 A 
HETATM   12  C14 UNL     1      27.036   1.235  52.801  1.00  0.00     0.070 A 
HETATM   13  N4  UNL     1      28.233   0.941  53.394  1.00  0.00    -0.241 NA
HETATM   14  C15 UNL     1      28.184   0.130  54.500  1.00  0.00     0.234 A 
HETATM   15  N5  UNL     1      27.045  -0.398  55.043  1.00  0.00    -0.243 NA
HETATM   16  C16 UNL     1      25.871  -0.130  54.489  1.00  0.00     0.071 A 
HETATM   17  C17 UNL     1      25.937   0.679  53.397  1.00  0.00     0.022 A 
HETATM   18  C18 UNL     1      24.916   1.098  52.627  1.00  0.00     0.045 A 
HETATM   19  H10 UNL     1      23.142   2.732  50.546  1.00  0.00     0.165 HD
ENDROOT
BRANCH   7  20
HETATM   20  C7  UNL     1      21.033   1.346  50.458  1.00  0.00     0.193 C 
BRANCH  20  21
HETATM   21  N2  UNL     1      20.921   2.822  50.356  1.00  0.00    -0.279 N 
HETATM   22  S1  UNL     1      21.559   3.763  48.981  1.00  0.00    -0.021 SA
HETATM   23  C8  UNL     1      21.031   5.414  49.605  1.00  0.00     0.074 A 
HETATM   24  C9  UNL     1      20.401   5.029  50.852  1.00  0.00     0.083 A 
HETATM   25  C10 UNL     1      20.347   3.718  51.228  1.00  0.00     0.254 A 
HETATM   26  O1  UNL     1      19.820   3.322  52.291  1.00  0.00    -0.268 OA
ENDBRANCH  20  21
ENDBRANCH   7  20
BRANCH   1  27
HETATM   27  N1  UNL     1      24.937  -1.547  56.310  1.00  0.00    -0.420 N 
HETATM   28  H1  UNL     1      25.598  -2.092  56.904  1.00  0.00     0.150 HD
HETATM   29  H2  UNL     1      24.294  -1.751  57.092  1.00  0.00     0.150 HD
ENDBRANCH   1  27
TORSDOF 3
ENDMDL
MODEL 3
REMARK VINA RESULT:      -8.7      3.631      7.375
REMARK  3 active torsions:
REMARK  status: ('A' for Active; 'I' for Inactive)
REMARK    1  A    between atoms: N1_1  and  C1_2 
REMARK    2  A    between atoms: C6_8  and  C7_9 
REMARK    3  A    between atoms: C7_9  and  N2_10 
ROOT
HETATM    1  C1  UNL     1      21.657   1.272  50.516  1.00  0.00     0.052 C 
HETATM    2  C2  UNL     1      21.367   0.381  51.486  1.00  0.00     0.090 C 
HETATM    3  C3  UNL     1      21.687  -0.406  52.738  1.00  0.00     0.096 A 
HETATM    4  C4  UNL     1      22.870  -0.379  53.427  1.00  0.00     0.019 A 
HETATM    5 BR1  UNL     1      21.948  -1.617  54.537  1.00  0.00    -0.155 Br
HETATM    6  C5  UNL     1      24.223  -0.181  53.937  1.00  0.00     0.110 C 
HETATM    7  C6  UNL     1      25.343   0.430  53.591  1.00  0.00     0.012 C 
HETATM    8  N3  UNL     1      26.179   1.208  52.731  1.00  0.00    -0.361 N 
HETATM    9  C11 UNL     1      25.820   2.077  51.695  1.00  0.00     0.033 A 
HETATM   10  C12 UNL     1      26.418   3.100  51.034  1.00  0.00     0.032 A 
HETATM   11  C13 UNL     1      25.854   3.854  50.030  1.00  0.00     0.035 A 
HETATM   12  C14 UNL     1      24.547   3.607  49.593  1.00  0.00     0.070 A 
HETATM   13  N4  UNL     1      23.925   4.333  48.614  1.00  0.00    -0.241 NA
HETATM   14  C15 UNL     1      22.632   3.979  48.319  1.00  0.00     0.234 A 
HETATM   15  N5  UNL     1      21.932   2.970  48.922  1.00  0.00    -0.243 NA
HETATM   16  C16 UNL     1      22.510   2.250  49.873  1.00  0.00     0.071 A 
HETATM   17  C17 UNL     1      23.792   2.611  50.150  1.00  0.00     0.022 A 
HETATM   18  C18 UNL     1      24.611   2.075  51.074  1.00  0.00     0.045 A 
HETATM   19  H10 UNL     1      27.200   1.239  52.730  1.00  0.00     0.165 HD
ENDROOT
BRANCH   7  20
HETATM   20  C7  UNL     1      26.187   0.078  54.731  1.00  0.00     0.193 C 
BRANCH  20  21
HETATM   21  N2  UNL     1      27.529  -0.249  54.188  1.00  0.00    -0.279 N 
HETATM   22  S1  UNL     1      28.960   0.792  54.412  1.00  0.00    -0.021 SA
HETATM   23  C8  UNL     1      30.136  -0.281  53.485  1.00  0.00     0.074 A 
HETATM   24  C9  UNL     1      29.250  -1.359  53.096  1.00  0.00     0.083 A 
HETATM   25  C10 UNL     1      27.933  -1.340  53.453  1.00  0.00     0.254 A 
HETATM   26  O1  UNL     1      27.118  -2.237  53.147  1.00  0.00    -0.268 OA
ENDBRANCH  20  21
ENDBRANCH   7  20
BRANCH   1  27
HETATM   27  N1  UNL     1      20.346   1.022  49.951  1.00  0.00    -0.420 N 
HETATM   28  H1  UNL     1      19.659   1.256  49.203  1.00  0.00     0.150 HD
HETATM   29  H2  UNL     1      19.592   0.378  50.241  1.00  0.00     0.150 HD
ENDBRANCH   1  27
TORSDOF 3
ENDMDL
MODEL 4
REMARK VINA RESULT:      -7.8      1.584      2.068
REMARK  3 active torsions:
REMARK  status: ('A' for Active; 'I' for Inactive)
REMARK    1  A    between atoms: N1_1  and  C1_2 
REMARK    2  A    between atoms: C6_8  and  C7_9 
REMARK    3  A    between atoms: C7_9  and  N2_10 
ROOT
HETATM    1  C1  UNL     1      25.880   0.745  52.455  1.00  0.00     0.052 C 
HETATM    2  C2  UNL     1      26.353   1.673  51.598  1.00  0.00     0.090 C 
HETATM    3  C3  UNL     1      26.205   2.868  50.683  1.00  0.00     0.096 A 
HETATM    4  C4  UNL     1      25.037   3.521  50.393  1.00  0.00     0.019 A 
HETATM    5 BR1  UNL     1      26.202   4.589  49.337  1.00  0.00    -0.155 Br
HETATM    6  C5  UNL     1      23.666   3.999  50.240  1.00  0.00     0.110 C 
HETATM    7  C6  UNL     1      22.441   3.653  50.595  1.00  0.00     0.012 C 
HETATM    8  N3  UNL     1      21.461   2.812  51.208  1.00  0.00    -0.361 N 
HETATM    9  C11 UNL     1      21.624   1.836  52.199  1.00  0.00     0.033 A 
HETATM   10  C12 UNL     1      20.815   1.215  53.093  1.00  0.00     0.032 A 
HETATM   11  C13 UNL     1      21.205   0.272  54.017  1.00  0.00     0.035 A 
HETATM   12  C14 UNL     1      22.542  -0.137  54.107  1.00  0.00     0.070 A 
HETATM   13  N4  UNL     1      22.993  -1.054  55.016  1.00  0.00    -0.241 NA
HETATM   14  C15 UNL     1      24.338  -1.329  54.990  1.00  0.00     0.234 A 
HETATM   15  N5  UNL     1      25.244  -0.761  54.137  1.00  0.00    -0.243 NA
HETATM   16  C16 UNL     1      24.834   0.131  53.246  1.00  0.00     0.071 A 
HETATM   17  C17 UNL     1      23.498   0.387  53.282  1.00  0.00     0.022 A 
HETATM   18  C18 UNL     1      22.811   1.254  52.515  1.00  0.00     0.045 A 
HETATM   19  H10 UNL     1      20.460   2.780  51.001  1.00  0.00     0.165 HD
ENDROOT
BRANCH   7  20
HETATM   20  C7  UNL     1      21.682   4.744  49.988  1.00  0.00     0.193 C 
BRANCH  20  21
HETATM   21  N2  UNL     1      21.637   4.479  48.528  1.00  0.00    -0.279 N 
HETATM   22  S1  UNL     1      22.546   5.435  47.327  1.00  0.00    -0.021 SA
HETATM   23  C8  UNL     1      21.969   4.501  45.848  1.00  0.00     0.074 A 
HETATM   24  C9  UNL     1      21.108   3.523  46.481  1.00  0.00     0.083 A 
HETATM   25  C10 UNL     1      20.943   3.514  47.836  1.00  0.00     0.254 A 
HETATM   26  O1  UNL     1      20.213   2.698  48.441  1.00  0.00    -0.268 OA
ENDBRANCH  20  21
ENDBRANCH   7  20
BRANCH   1  27
HETATM   27  N1  UNL     1      27.223   0.208  52.551  1.00  0.00    -0.420 N 
HETATM   28  H1  UNL     1      28.159   0.273  53.005  1.00  0.00     0.150 HD
HETATM   29  H2  UNL     1      27.679  -0.576  52.056  1.00  0.00     0.150 HD
ENDBRANCH   1  27
TORSDOF 3
ENDMDL
MODEL 5
REMARK VINA RESULT:      -7.7      2.113      3.716
REMARK  3 active torsions:
REMARK  status: ('A' for Active; 'I' for Inactive)
REMARK    1  A    between atoms: N1_1  and  C1_2 
REMARK    2  A    between atoms: C6_8  and  C7_9 
REMARK    3  A    between atoms: C7_9  and  N2_10 
ROOT
HETATM    1  C1  UNL     1      22.529  -0.429  53.403  1.00  0.00     0.052 C 
HETATM    2  C2  UNL     1      21.646  -0.150  52.422  1.00  0.00     0.090 C 
HETATM    3  C3  UNL     1      21.217   0.540  51.147  1.00  0.00     0.096 A 
HETATM    4  C4  UNL     1      21.959   1.436  50.426  1.00  0.00     0.019 A 
HETATM    5 BR1  UNL     1      20.416   1.423  49.315  1.00  0.00    -0.155 Br
HETATM    6  C5  UNL     1      22.942   2.370  49.882  1.00  0.00     0.110 C 
HETATM    7  C6  UNL     1      24.109   2.896  50.210  1.00  0.00     0.012 C 
HETATM    8  N3  UNL     1      25.236   3.115  51.062  1.00  0.00    -0.361 N 
HETATM    9  C11 UNL     1      25.706   2.337  52.126  1.00  0.00     0.033 A 
HETATM   10  C12 UNL     1      26.882   2.210  52.792  1.00  0.00     0.032 A 
HETATM   11  C13 UNL     1      27.135   1.339  53.827  1.00  0.00     0.035 A 
HETATM   12  C14 UNL     1      26.142   0.469  54.295  1.00  0.00     0.070 A 
HETATM   13  N4  UNL     1      26.339  -0.432  55.305  1.00  0.00    -0.241 NA
HETATM   14  C15 UNL     1      25.270  -1.229  55.629  1.00  0.00     0.234 A 
HETATM   15  N5  UNL     1      24.043  -1.190  55.024  1.00  0.00    -0.243 NA
HETATM   16  C16 UNL     1      23.825  -0.327  54.042  1.00  0.00     0.071 A 
HETATM   17  C17 UNL     1      24.892   0.459  53.738  1.00  0.00     0.022 A 
HETATM   18  C18 UNL     1      24.967   1.402  52.781  1.00  0.00     0.045 A 
HETATM   19  H10 UNL     1      25.883   3.905  51.036  1.00  0.00     0.165 HD
ENDROOT
BRANCH   7  20
HETATM   20  C7  UNL     1      24.345   3.740  49.040  1.00  0.00     0.193 C 
BRANCH  20  21
HETATM   21  N2  UNL     1      23.526   4.964  49.220  1.00  0.00    -0.279 N 
HETATM   22  S1  UNL     1      22.001   5.264  48.344  1.00  0.00    -0.021 SA
HETATM   23  C8  UNL     1      21.651   6.904  49.106  1.00  0.00     0.074 A 
HETATM   24  C9  UNL     1      22.799   7.033  49.981  1.00  0.00     0.083 A 
HETATM   25  C10 UNL     1      23.745   6.050  50.036  1.00  0.00     0.254 A 
HETATM   26  O1  UNL     1      24.757   6.102  50.768  1.00  0.00    -0.268 OA
ENDBRANCH  20  21
ENDBRANCH   7  20
BRANCH   1  27
HETATM   27  N1  UNL     1      21.532  -1.295  53.998  1.00  0.00    -0.420 N 
HETATM   28  H1  UNL     1      20.615  -1.779  53.884  1.00  0.00     0.150 HD
HETATM   29  H2  UNL     1      21.494  -1.755  54.923  1.00  0.00     0.150 HD
ENDBRANCH   1  27
TORSDOF 3
ENDMDL
MODEL 6
REMARK VINA RESULT:      -7.6      2.177      3.534
REMARK  3 active torsions:
REMARK  status: ('A' for Active; 'I' for Inactive)
REMARK    1  A    between atoms: N1_1  and  C1_2 
REMARK    2  A    between atoms: C6_8  and  C7_9 
REMARK    3  A    between atoms: C7_9  and  N2_10 
ROOT
HETATM    1  C1  UNL     1      21.987  -0.571  53.574  1.00  0.00     0.052 C 
HETATM    2  C2  UNL     1      23.252  -0.105  53.588  1.00  0.00     0.090 C 
HETATM    3  C3  UNL     1      24.382   0.754  53.065  1.00  0.00     0.096 A 
HETATM    4  C4  UNL     1      24.330   1.576  51.971  1.00  0.00     0.019 A 
HETATM    5 BR1  UNL     1      26.129   1.926  52.475  1.00  0.00    -0.155 Br
HETATM    6  C5  UNL     1      24.006   2.333  50.767  1.00  0.00     0.110 C 
HETATM    7  C6  UNL     1      23.021   2.450  49.893  1.00  0.00     0.012 C 
HETATM    8  N3  UNL     1      21.748   2.126  49.328  1.00  0.00    -0.361 N 
HETATM    9  C11 UNL     1      20.652   1.487  49.920  1.00  0.00     0.033 A 
HETATM   10  C12 UNL     1      19.323   1.403  49.664  1.00  0.00     0.032 A 
HETATM   11  C13 UNL     1      18.398   0.713  50.414  1.00  0.00     0.035 A 
HETATM   12  C14 UNL     1      18.782   0.009  51.562  1.00  0.00     0.070 A 
HETATM   13  N4  UNL     1      17.907  -0.678  52.358  1.00  0.00    -0.241 NA
HETATM   14  C15 UNL     1      18.442  -1.296  53.461  1.00  0.00     0.234 A 
HETATM   15  N5  UNL     1      19.763  -1.274  53.817  1.00  0.00    -0.243 NA
HETATM   16  C16 UNL     1      20.632  -0.616  53.063  1.00  0.00     0.071 A 
HETATM   17  C17 UNL     1      20.087  -0.015  51.972  1.00  0.00     0.022 A 
HETATM   18  C18 UNL     1      20.720   0.732  51.048  1.00  0.00     0.045 A 
HETATM   19  H10 UNL     1      21.437   2.302  48.371  1.00  0.00     0.165 HD
ENDROOT
BRANCH   7  20
HETATM   20  C7  UNL     1      23.583   3.470  49.010  1.00  0.00     0.193 C 
BRANCH  20  21
HETATM   21  N2  UNL     1      23.450   4.770  49.713  1.00  0.00    -0.279 N 
HETATM   22  S1  UNL     1      24.843   5.709  50.313  1.00  0.00    -0.021 SA
HETATM   23  C8  UNL     1      23.860   7.102  51.012  1.00  0.00     0.074 A 
HETATM   24  C9  UNL     1      22.519   6.659  50.688  1.00  0.00     0.083 A 
HETATM   25  C10 UNL     1      22.316   5.481  50.031  1.00  0.00     0.254 A 
HETATM   26  O1  UNL     1      21.185   5.043  49.725  1.00  0.00    -0.268 OA
ENDBRANCH  20  21
ENDBRANCH   7  20
BRANCH   1  27
HETATM   27  N1  UNL     1      22.320  -1.392  54.721  1.00  0.00    -0.420 N 
HETATM   28  H1  UNL     1      22.522  -2.350  55.079  1.00  0.00     0.150 HD
HETATM   29  H2  UNL     1      22.476  -1.146  55.712  1.00  0.00     0.150 HD
ENDBRANCH   1  27
TORSDOF 3
ENDMDL
MODEL 7
REMARK VINA RESULT:      -7.6      4.934      7.529
REMARK  3 active torsions:
REMARK  status: ('A' for Active; 'I' for Inactive)
REMARK    1  A    between atoms: N1_1  and  C1_2 
REMARK    2  A    between atoms: C6_8  and  C7_9 
REMARK    3  A    between atoms: C7_9  and  N2_10 
ROOT
HETATM    1  C1  UNL     1      23.107   6.801  50.711  1.00  0.00     0.052 C 
HETATM    2  C2  UNL     1      23.390   7.966  50.094  1.00  0.00     0.090 C 
HETATM    3  C3  UNL     1      24.231   8.853  49.203  1.00  0.00     0.096 A 
HETATM    4  C4  UNL     1      25.409   8.504  48.598  1.00  0.00     0.019 A 
HETATM    5 BR1  UNL     1      25.295  10.285  47.941  1.00  0.00    -0.155 Br
HETATM    6  C5  UNL     1      26.636   7.883  48.109  1.00  0.00     0.110 C 
HETATM    7  C6  UNL     1      27.325   6.767  48.272  1.00  0.00     0.012 C 
HETATM    8  N3  UNL     1      27.597   5.487  48.848  1.00  0.00    -0.361 N 
HETATM    9  C11 UNL     1      26.729   4.609  49.507  1.00  0.00     0.033 A 
HETATM   10  C12 UNL     1      26.726   3.285  49.802  1.00  0.00     0.032 A 
HETATM   11  C13 UNL     1      25.727   2.607  50.462  1.00  0.00     0.035 A 
HETATM   12  C14 UNL     1      24.574   3.270  50.901  1.00  0.00     0.070 A 
HETATM   13  N4  UNL     1      23.540   2.647  51.544  1.00  0.00    -0.241 NA
HETATM   14  C15 UNL     1      22.470   3.436  51.887  1.00  0.00     0.234 A 
HETATM   15  N5  UNL     1      22.365   4.778  51.637  1.00  0.00    -0.243 NA
HETATM   16  C16 UNL     1      23.353   5.406  51.016  1.00  0.00     0.071 A 
HETATM   17  C17 UNL     1      24.407   4.611  50.688  1.00  0.00     0.022 A 
HETATM   18  C18 UNL     1      25.530   4.969  50.039  1.00  0.00     0.045 A 
HETATM   19  H10 UNL     1      28.498   5.007  48.882  1.00  0.00     0.165 HD
ENDROOT
BRANCH   7  20
HETATM   20  C7  UNL     1      28.438   7.020  47.359  1.00  0.00     0.193 C 
BRANCH  20  21
HETATM   21  N2  UNL     1      29.656   7.169  48.195  1.00  0.00    -0.279 N 
HETATM   22  S1  UNL     1      30.154   8.712  48.938  1.00  0.00    -0.021 SA
HETATM   23  C8  UNL     1      31.671   8.060  49.756  1.00  0.00     0.074 A 
HETATM   24  C9  UNL     1      31.611   6.673  49.341  1.00  0.00     0.083 A 
HETATM   25  C10 UNL     1      30.592   6.226  48.552  1.00  0.00     0.254 A 
HETATM   26  O1  UNL     1      30.485   5.043  48.160  1.00  0.00    -0.268 OA
ENDBRANCH  20  21
ENDBRANCH   7  20
BRANCH   1  27
HETATM   27  N1  UNL     1      21.929   7.432  51.271  1.00  0.00    -0.420 N 
HETATM   28  H1  UNL     1      21.339   7.584  52.117  1.00  0.00     0.150 HD
HETATM   29  H2  UNL     1      21.213   8.040  50.841  1.00  0.00     0.150 HD
ENDBRANCH   1  27
TORSDOF 3
ENDMDL
MODEL 8
REMARK VINA RESULT:      -7.4      3.237      3.839
REMARK  3 active torsions:
REMARK  status: ('A' for Active; 'I' for Inactive)
REMARK    1  A    between atoms: N1_1  and  C1_2 
REMARK    2  A    between atoms: C6_8  and  C7_9 
REMARK    3  A    between atoms: C7_9  and  N2_10 
ROOT
HETATM    1  C1  UNL     1      23.705   0.856  52.298  1.00  0.00     0.052 C 
HETATM    2  C2  UNL     1      23.869   1.795  51.344  1.00  0.00     0.090 C 
HETATM    3  C3  UNL     1      23.364   2.737  50.274  1.00  0.00     0.096 A 
HETATM    4  C4  UNL     1      22.065   2.863  49.859  1.00  0.00     0.019 A 
HETATM    5 BR1  UNL     1      22.834   4.170  48.713  1.00  0.00    -0.155 Br
HETATM    6  C5  UNL     1      20.633   2.766  49.596  1.00  0.00     0.110 C 
HETATM    7  C6  UNL     1      19.599   2.023  49.949  1.00  0.00     0.012 C 
HETATM    8  N3  UNL     1      18.954   0.946  50.634  1.00  0.00    -0.361 N 
HETATM    9  C11 UNL     1      19.385   0.220  51.750  1.00  0.00     0.033 A 
HETATM   10  C12 UNL     1      18.794  -0.560  52.689  1.00  0.00     0.032 A 
HETATM   11  C13 UNL     1      19.428  -1.178  53.742  1.00  0.00     0.035 A 
HETATM   12  C14 UNL     1      20.809  -1.039  53.933  1.00  0.00     0.070 A 
HETATM   13  N4  UNL     1      21.492  -1.611  54.971  1.00  0.00    -0.241 NA
HETATM   14  C15 UNL     1      22.840  -1.357  55.029  1.00  0.00     0.234 A 
HETATM   15  N5  UNL     1      23.537  -0.585  54.141  1.00  0.00    -0.243 NA
HETATM   16  C16 UNL     1      22.900  -0.019  53.126  1.00  0.00     0.071 A 
HETATM   17  C17 UNL     1      21.567  -0.285  53.080  1.00  0.00     0.022 A 
HETATM   18  C18 UNL     1      20.673   0.168  52.182  1.00  0.00     0.045 A 
HETATM   19  H10 UNL     1      18.057   0.516  50.397  1.00  0.00     0.165 HD
ENDROOT
BRANCH   7  20
HETATM   20  C7  UNL     1      18.542   2.673  49.177  1.00  0.00     0.193 C 
BRANCH  20  21
HETATM   21  N2  UNL     1      17.352   2.757  50.060  1.00  0.00    -0.279 N 
HETATM   22  S1  UNL     1      15.751   2.107  49.617  1.00  0.00    -0.021 SA
HETATM   23  C8  UNL     1      14.897   2.595  51.174  1.00  0.00     0.074 A 
HETATM   24  C9  UNL     1      15.992   3.229  51.881  1.00  0.00     0.083 A 
HETATM   25  C10 UNL     1      17.231   3.308  51.315  1.00  0.00     0.254 A 
HETATM   26  O1  UNL     1      18.215   3.843  51.872  1.00  0.00    -0.268 OA
ENDBRANCH  20  21
ENDBRANCH   7  20
BRANCH   1  27
HETATM   27  N1  UNL     1      25.139   0.881  52.512  1.00  0.00    -0.420 N 
HETATM   28  H1  UNL     1      26.066   1.220  52.175  1.00  0.00     0.150 HD
HETATM   29  H2  UNL     1      25.725   0.454  53.247  1.00  0.00     0.150 HD
ENDBRANCH   1  27
TORSDOF 3
ENDMDL
MODEL 9
REMARK VINA RESULT:      -7.4      3.038      5.430
REMARK  3 active torsions:
REMARK  status: ('A' for Active; 'I' for Inactive)
REMARK    1  A    between atoms: N1_1  and  C1_2 
REMARK    2  A    between atoms: C6_8  and  C7_9 
REMARK    3  A    between atoms: C7_9  and  N2_10 
ROOT
HETATM    1  C1  UNL     1      19.651  -1.068  53.266  1.00  0.00     0.052 C 
HETATM    2  C2  UNL     1      20.664  -1.334  54.116  1.00  0.00     0.090 C 
HETATM    3  C3  UNL     1      22.085  -1.186  54.613  1.00  0.00     0.096 A 
HETATM    4  C4  UNL     1      23.072  -0.443  54.023  1.00  0.00     0.019 A 
HETATM    5 BR1  UNL     1      24.080  -1.093  55.497  1.00  0.00    -0.155 Br
HETATM    6  C5  UNL     1      23.924   0.389  53.179  1.00  0.00     0.110 C 
HETATM    7  C6  UNL     1      23.875   1.016  52.016  1.00  0.00     0.012 C 
HETATM    8  N3  UNL     1      23.264   1.413  50.786  1.00  0.00    -0.361 N 
HETATM    9  C11 UNL     1      21.909   1.434  50.436  1.00  0.00     0.033 A 
HETATM   10  C12 UNL     1      21.158   2.062  49.496  1.00  0.00     0.032 A 
HETATM   11  C13 UNL     1      19.795   1.948  49.342  1.00  0.00     0.035 A 
HETATM   12  C14 UNL     1      19.040   1.130  50.192  1.00  0.00     0.070 A 
HETATM   13  N4  UNL     1      17.683   0.992  50.102  1.00  0.00    -0.241 NA
HETATM   14  C15 UNL     1      17.089   0.170  51.028  1.00  0.00     0.234 A 
HETATM   15  N5  UNL     1      17.746  -0.507  52.018  1.00  0.00    -0.243 NA
HETATM   16  C16 UNL     1      19.061  -0.391  52.129  1.00  0.00     0.071 A 
HETATM   17  C17 UNL     1      19.634   0.422  51.201  1.00  0.00     0.022 A 
HETATM   18  C18 UNL     1      20.936   0.739  51.084  1.00  0.00     0.045 A 
HETATM   19  H10 UNL     1      23.737   1.739  49.941  1.00  0.00     0.165 HD
ENDROOT
BRANCH   7  20
HETATM   20  C7  UNL     1      25.213   1.603  51.986  1.00  0.00     0.193 C 
BRANCH  20  21
HETATM   21  N2  UNL     1      25.085   2.934  51.342  1.00  0.00    -0.279 N 
HETATM   22  S1  UNL     1      25.994   3.411  49.883  1.00  0.00    -0.021 SA
HETATM   23  C8  UNL     1      25.289   5.108  49.754  1.00  0.00     0.074 A 
HETATM   24  C9  UNL     1      24.401   5.106  50.899  1.00  0.00     0.083 A 
HETATM   25  C10 UNL     1      24.299   4.006  51.699  1.00  0.00     0.254 A 
HETATM   26  O1  UNL     1      23.553   3.942  52.700  1.00  0.00    -0.268 OA
ENDBRANCH  20  21
ENDBRANCH   7  20
BRANCH   1  27
HETATM   27  N1  UNL     1      18.816  -1.958  54.048  1.00  0.00    -0.420 N 
HETATM   28  H1  UNL     1      18.713  -2.899  54.485  1.00  0.00     0.150 HD
HETATM   29  H2  UNL     1      17.880  -1.823  54.463  1.00  0.00     0.150 HD
ENDBRANCH   1  27
TORSDOF 3
ENDMDL
