MODEL 1
REMARK VINA RESULT:      -7.6      0.000      0.000
REMARK  7 active torsions:
REMARK  status: ('A' for Active; 'I' for Inactive)
REMARK    1  A    between atoms: C3_3  and  C4_4 
REMARK    2  A    between atoms: C6_6  and  N1_7 
REMARK    3  A    between atoms: N1_7  and  N2_8 
REMARK    4  A    between atoms: N2_8  and  C7_9 
REMARK    5  A    between atoms: N2_8  and  C10_15 
REMARK    6  A    between atoms: C8_11  and  O1_12 
REMARK    7  A    between atoms: C10_15  and  C12_17 
ROOT
HETATM    1  N2  UNL     1      24.759   1.004  52.804  1.00  0.00    -0.260 N 
ENDROOT
BRANCH   1   2
HETATM    2  N1  UNL     1      24.594   2.354  52.495  1.00  0.00    -0.294 N 
HETATM    3  H6  UNL     1      24.462   3.125  53.212  1.00  0.00     0.187 HD
BRANCH   2   4
HETATM    4  C6  UNL     1      24.586   2.841  51.157  1.00  0.00     0.071 A 
HETATM    5  C4  UNL     1      25.055   3.646  50.041  1.00  0.00     0.006 A 
HETATM    6  C5  UNL     1      24.044   2.872  49.843  1.00  0.00     0.019 A 
BRANCH   5   7
HETATM    7  C3  UNL     1      25.979   4.623  49.495  1.00  0.00     0.010 C 
HETATM    8  C2  UNL     1      27.177   4.306  49.004  1.00  0.00    -0.030 C 
HETATM    9  C1  UNL     1      28.113   5.304  48.450  1.00  0.00     0.036 C 
ENDBRANCH   5   7
ENDBRANCH   2   4
ENDBRANCH   1   2
BRANCH   1  10
HETATM   10  C7  UNL     1      23.909   0.099  53.534  1.00  0.00     0.190 A 
HETATM   11  N3  UNL     1      23.843  -0.595  54.457  1.00  0.00    -0.198 NA
HETATM   12  C8  UNL     1      22.794  -1.327  54.827  1.00  0.00     0.171 A 
HETATM   13  C9  UNL     1      21.624  -1.258  54.007  1.00  0.00     0.111 A 
HETATM   14  S1  UNL     1      22.223  -0.041  52.684  1.00  0.00    -0.058 SA
BRANCH  12  15
HETATM   15  O1  UNL     1      23.043  -2.064  56.007  1.00  0.00    -0.344 OA
HETATM   16  H7  UNL     1      22.354  -2.711  56.365  1.00  0.00     0.219 HD
ENDBRANCH  12  15
ENDBRANCH   1  10
BRANCH   1  17
HETATM   17  C10 UNL     1      26.017   0.556  52.249  1.00  0.00     0.139 C 
HETATM   18  C11 UNL     1      26.026  -0.941  52.019  1.00  0.00     0.039 C 
BRANCH  17  19
HETATM   19  C12 UNL     1      27.175   1.002  53.039  1.00  0.00    -0.034 A 
HETATM   20  C13 UNL     1      27.811   2.216  52.881  1.00  0.00     0.009 A 
HETATM   21  C14 UNL     1      28.889   2.500  53.695  1.00  0.00     0.001 A 
HETATM   22  C15 UNL     1      29.307   1.584  54.638  1.00  0.00     0.000 A 
HETATM   23  C16 UNL     1      28.686   0.353  54.820  1.00  0.00     0.001 A 
HETATM   24  C17 UNL     1      27.601   0.077  53.994  1.00  0.00     0.009 A 
ENDBRANCH  17  19
ENDBRANCH   1  17
TORSDOF 7
ENDMDL
MODEL 2
REMARK VINA RESULT:      -7.6      2.615      5.190
REMARK  7 active torsions:
REMARK  status: ('A' for Active; 'I' for Inactive)
REMARK    1  A    between atoms: C3_3  and  C4_4 
REMARK    2  A    between atoms: C6_6  and  N1_7 
REMARK    3  A    between atoms: N1_7  and  N2_8 
REMARK    4  A    between atoms: N2_8  and  C7_9 
REMARK    5  A    between atoms: N2_8  and  C10_15 
REMARK    6  A    between atoms: C8_11  and  O1_12 
REMARK    7  A    between atoms: C10_15  and  C12_17 
ROOT
HETATM    1  N2  UNL     1      24.858   0.564  52.821  1.00  0.00    -0.260 N 
ENDROOT
BRANCH   1   2
HETATM    2  N1  UNL     1      24.320  -0.550  53.466  1.00  0.00    -0.294 N 
HETATM    3  H6  UNL     1      24.855  -1.439  53.680  1.00  0.00     0.187 HD
BRANCH   2   4
HETATM    4  C6  UNL     1      22.969  -0.601  53.913  1.00  0.00     0.071 A 
HETATM    5  C4  UNL     1      21.529  -0.442  53.790  1.00  0.00     0.006 A 
HETATM    6  C5  UNL     1      21.993  -0.880  54.908  1.00  0.00     0.019 A 
BRANCH   5   7
HETATM    7  C3  UNL     1      20.367  -0.065  53.005  1.00  0.00     0.010 C 
HETATM    8  C2  UNL     1      19.214  -0.734  53.033  1.00  0.00    -0.030 C 
HETATM    9  C1  UNL     1      18.037  -0.347  52.232  1.00  0.00     0.036 C 
ENDBRANCH   5   7
ENDBRANCH   2   4
ENDBRANCH   1   2
BRANCH   1  10
HETATM   10  C7  UNL     1      24.333   1.894  52.653  1.00  0.00     0.190 A 
HETATM   11  N3  UNL     1      24.297   2.958  53.107  1.00  0.00    -0.198 NA
HETATM   12  C8  UNL     1      23.647   4.010  52.614  1.00  0.00     0.171 A 
HETATM   13  C9  UNL     1      22.913   3.818  51.401  1.00  0.00     0.111 A 
HETATM   14  S1  UNL     1      23.277   1.986  51.085  1.00  0.00    -0.058 SA
BRANCH  12  15
HETATM   15  O1  UNL     1      23.810   5.164  53.412  1.00  0.00    -0.344 OA
HETATM   16  H7  UNL     1      24.454   5.165  54.191  1.00  0.00     0.219 HD
ENDBRANCH  12  15
ENDBRANCH   1  10
BRANCH   1  17
HETATM   17  C10 UNL     1      26.147   0.200  52.276  1.00  0.00     0.139 C 
HETATM   18  C11 UNL     1      26.301  -1.302  52.159  1.00  0.00     0.039 C 
BRANCH  17  19
HETATM   19  C12 UNL     1      27.265   0.815  53.007  1.00  0.00    -0.034 A 
HETATM   20  C13 UNL     1      27.705   2.110  52.822  1.00  0.00     0.009 A 
HETATM   21  C14 UNL     1      28.768   2.555  53.580  1.00  0.00     0.001 A 
HETATM   22  C15 UNL     1      29.366   1.714  54.496  1.00  0.00     0.000 A 
HETATM   23  C16 UNL     1      28.945   0.405  54.706  1.00  0.00     0.001 A 
HETATM   24  C17 UNL     1      27.872  -0.032  53.935  1.00  0.00     0.009 A 
ENDBRANCH  17  19
ENDBRANCH   1  17
TORSDOF 7
ENDMDL
MODEL 3
REMARK VINA RESULT:      -7.6      2.154      3.040
REMARK  7 active torsions:
REMARK  status: ('A' for Active; 'I' for Inactive)
REMARK    1  A    between atoms: C3_3  and  C4_4 
REMARK    2  A    between atoms: C6_6  and  N1_7 
REMARK    3  A    between atoms: N1_7  and  N2_8 
REMARK    4  A    between atoms: N2_8  and  C7_9 
REMARK    5  A    between atoms: N2_8  and  C10_15 
REMARK    6  A    between atoms: C8_11  and  O1_12 
REMARK    7  A    between atoms: C10_15  and  C12_17 
ROOT
HETATM    1  N2  UNL     1      25.941   1.613  52.083  1.00  0.00    -0.260 N 
ENDROOT
BRANCH   1   2
HETATM    2  N1  UNL     1      26.829   2.052  51.101  1.00  0.00    -0.294 N 
HETATM    3  H6  UNL     1      27.810   1.675  50.963  1.00  0.00     0.187 HD
BRANCH   2   4
HETATM    4  C6  UNL     1      26.498   3.074  50.166  1.00  0.00     0.071 A 
HETATM    5  C4  UNL     1      26.776   4.155  49.236  1.00  0.00     0.006 A 
HETATM    6  C5  UNL     1      25.547   3.822  49.419  1.00  0.00     0.019 A 
BRANCH   5   7
HETATM    7  C3  UNL     1      27.727   5.019  48.559  1.00  0.00     0.010 C 
HETATM    8  C2  UNL     1      27.446   6.266  48.179  1.00  0.00    -0.030 C 
HETATM    9  C1  UNL     1      28.417   7.139  47.491  1.00  0.00     0.036 C 
ENDBRANCH   5   7
ENDBRANCH   2   4
ENDBRANCH   1   2
BRANCH   1  10
HETATM   10  C7  UNL     1      24.505   1.507  52.067  1.00  0.00     0.190 A 
HETATM   11  N3  UNL     1      23.613   0.817  51.810  1.00  0.00    -0.198 NA
HETATM   12  C8  UNL     1      22.320   1.104  51.949  1.00  0.00     0.171 A 
HETATM   13  C9  UNL     1      21.988   2.396  52.466  1.00  0.00     0.111 A 
HETATM   14  S1  UNL     1      23.726   3.106  52.714  1.00  0.00    -0.058 SA
BRANCH  12  15
HETATM   15  O1  UNL     1      21.487   0.038  51.542  1.00  0.00    -0.344 OA
HETATM   16  H7  UNL     1      20.512   0.199  51.328  1.00  0.00     0.219 HD
ENDBRANCH  12  15
ENDBRANCH   1  10
BRANCH   1  17
HETATM   17  C10 UNL     1      26.702   1.228  53.251  1.00  0.00     0.139 C 
HETATM   18  C11 UNL     1      27.716   2.287  53.631  1.00  0.00     0.039 C 
BRANCH  17  19
HETATM   19  C12 UNL     1      27.314  -0.102  53.117  1.00  0.00    -0.034 A 
HETATM   20  C13 UNL     1      26.653  -1.227  52.665  1.00  0.00     0.009 A 
HETATM   21  C14 UNL     1      27.355  -2.412  52.591  1.00  0.00     0.001 A 
HETATM   22  C15 UNL     1      28.684  -2.456  52.961  1.00  0.00     0.000 A 
HETATM   23  C16 UNL     1      29.376  -1.340  53.419  1.00  0.00     0.001 A 
HETATM   24  C17 UNL     1      28.657  -0.150  53.490  1.00  0.00     0.009 A 
ENDBRANCH  17  19
ENDBRANCH   1  17
TORSDOF 7
ENDMDL
MODEL 4
REMARK VINA RESULT:      -7.3      2.679      4.883
REMARK  7 active torsions:
REMARK  status: ('A' for Active; 'I' for Inactive)
REMARK    1  A    between atoms: C3_3  and  C4_4 
REMARK    2  A    between atoms: C6_6  and  N1_7 
REMARK    3  A    between atoms: N1_7  and  N2_8 
REMARK    4  A    between atoms: N2_8  and  C7_9 
REMARK    5  A    between atoms: N2_8  and  C10_15 
REMARK    6  A    between atoms: C8_11  and  O1_12 
REMARK    7  A    between atoms: C10_15  and  C12_17 
ROOT
HETATM    1  N2  UNL     1      26.337   2.095  52.101  1.00  0.00    -0.260 N 
ENDROOT
BRANCH   1   2
HETATM    2  N1  UNL     1      26.330   2.088  50.706  1.00  0.00    -0.294 N 
HETATM    3  H6  UNL     1      26.358   1.213  50.108  1.00  0.00     0.187 HD
BRANCH   2   4
HETATM    4  C6  UNL     1      26.283   3.281  49.931  1.00  0.00     0.071 A 
HETATM    5  C4  UNL     1      26.838   4.362  49.133  1.00  0.00     0.006 A 
HETATM    6  C5  UNL     1      25.568   4.359  49.341  1.00  0.00     0.019 A 
BRANCH   5   7
HETATM    7  C3  UNL     1      27.981   5.015  48.521  1.00  0.00     0.010 C 
HETATM    8  C2  UNL     1      27.988   6.298  48.160  1.00  0.00    -0.030 C 
HETATM    9  C1  UNL     1      29.153   6.957  47.537  1.00  0.00     0.036 C 
ENDBRANCH   5   7
ENDBRANCH   2   4
ENDBRANCH   1   2
BRANCH   1  10
HETATM   10  C7  UNL     1      27.381   1.759  53.034  1.00  0.00     0.190 A 
HETATM   11  N3  UNL     1      28.153   2.189  53.780  1.00  0.00    -0.198 NA
HETATM   12  C8  UNL     1      29.016   1.494  54.519  1.00  0.00     0.171 A 
HETATM   13  C9  UNL     1      28.996   0.070  54.385  1.00  0.00     0.111 A 
HETATM   14  S1  UNL     1      27.618  -0.118  53.099  1.00  0.00    -0.058 SA
BRANCH  12  15
HETATM   15  O1  UNL     1      29.821   2.327  55.329  1.00  0.00    -0.344 OA
HETATM   16  H7  UNL     1      29.422   2.827  56.111  1.00  0.00     0.219 HD
ENDBRANCH  12  15
ENDBRANCH   1  10
BRANCH   1  17
HETATM   17  C10 UNL     1      25.037   2.526  52.564  1.00  0.00     0.139 C 
HETATM   18  C11 UNL     1      25.121   3.198  53.919  1.00  0.00     0.039 C 
BRANCH  17  19
HETATM   19  C12 UNL     1      24.040   1.445  52.543  1.00  0.00    -0.034 A 
HETATM   20  C13 UNL     1      24.090   0.317  53.338  1.00  0.00     0.009 A 
HETATM   21  C14 UNL     1      23.084  -0.618  53.210  1.00  0.00     0.001 A 
HETATM   22  C15 UNL     1      22.061  -0.417  52.307  1.00  0.00     0.000 A 
HETATM   23  C16 UNL     1      21.983   0.709  51.494  1.00  0.00     0.001 A 
HETATM   24  C17 UNL     1      23.004   1.645  51.631  1.00  0.00     0.009 A 
ENDBRANCH  17  19
ENDBRANCH   1  17
TORSDOF 7
ENDMDL
MODEL 5
REMARK VINA RESULT:      -7.3      3.161      5.985
REMARK  7 active torsions:
REMARK  status: ('A' for Active; 'I' for Inactive)
REMARK    1  A    between atoms: C3_3  and  C4_4 
REMARK    2  A    between atoms: C6_6  and  N1_7 
REMARK    3  A    between atoms: N1_7  and  N2_8 
REMARK    4  A    between atoms: N2_8  and  C7_9 
REMARK    5  A    between atoms: N2_8  and  C10_15 
REMARK    6  A    between atoms: C8_11  and  O1_12 
REMARK    7  A    between atoms: C10_15  and  C12_17 
ROOT
HETATM    1  N2  UNL     1      24.089   2.571  50.800  1.00  0.00    -0.260 N 
ENDROOT
BRANCH   1   2
HETATM    2  N1  UNL     1      23.053   1.837  50.222  1.00  0.00    -0.294 N 
HETATM    3  H6  UNL     1      22.841   1.808  49.183  1.00  0.00     0.187 HD
BRANCH   2   4
HETATM    4  C6  UNL     1      22.158   1.035  50.987  1.00  0.00     0.071 A 
HETATM    5  C4  UNL     1      21.795   0.065  52.006  1.00  0.00     0.006 A 
HETATM    6  C5  UNL     1      20.847   0.588  51.309  1.00  0.00     0.019 A 
BRANCH   5   7
HETATM    7  C3  UNL     1      22.180  -0.854  53.063  1.00  0.00     0.010 C 
HETATM    8  C2  UNL     1      22.569  -0.457  54.275  1.00  0.00    -0.030 C 
HETATM    9  C1  UNL     1      22.959  -1.396  55.345  1.00  0.00     0.036 C 
ENDBRANCH   5   7
ENDBRANCH   2   4
ENDBRANCH   1   2
BRANCH   1  10
HETATM   10  C7  UNL     1      25.012   3.508  50.216  1.00  0.00     0.190 A 
HETATM   11  N3  UNL     1      26.129   3.735  50.022  1.00  0.00    -0.198 NA
HETATM   12  C8  UNL     1      26.627   4.797  49.391  1.00  0.00     0.171 A 
HETATM   13  C9  UNL     1      25.694   5.763  48.899  1.00  0.00     0.111 A 
HETATM   14  S1  UNL     1      24.069   4.960  49.450  1.00  0.00    -0.058 SA
BRANCH  12  15
HETATM   15  O1  UNL     1      28.038   4.769  49.323  1.00  0.00    -0.344 OA
HETATM   16  H7  UNL     1      28.566   4.094  49.859  1.00  0.00     0.219 HD
ENDBRANCH  12  15
ENDBRANCH   1  10
BRANCH   1  17
HETATM   17  C10 UNL     1      24.142   2.256  52.211  1.00  0.00     0.139 C 
HETATM   18  C11 UNL     1      23.980   3.495  53.067  1.00  0.00     0.039 C 
BRANCH  17  19
HETATM   19  C12 UNL     1      25.342   1.486  52.574  1.00  0.00    -0.034 A 
HETATM   20  C13 UNL     1      25.642   0.228  52.091  1.00  0.00     0.009 A 
HETATM   21  C14 UNL     1      26.805  -0.377  52.520  1.00  0.00     0.001 A 
HETATM   22  C15 UNL     1      27.637   0.271  53.409  1.00  0.00     0.000 A 
HETATM   23  C16 UNL     1      27.362   1.538  53.913  1.00  0.00     0.001 A 
HETATM   24  C17 UNL     1      26.186   2.139  53.473  1.00  0.00     0.009 A 
ENDBRANCH  17  19
ENDBRANCH   1  17
TORSDOF 7
ENDMDL
MODEL 6
REMARK VINA RESULT:      -7.3      2.546      6.135
REMARK  7 active torsions:
REMARK  status: ('A' for Active; 'I' for Inactive)
REMARK    1  A    between atoms: C3_3  and  C4_4 
REMARK    2  A    between atoms: C6_6  and  N1_7 
REMARK    3  A    between atoms: N1_7  and  N2_8 
REMARK    4  A    between atoms: N2_8  and  C7_9 
REMARK    5  A    between atoms: N2_8  and  C10_15 
REMARK    6  A    between atoms: C8_11  and  O1_12 
REMARK    7  A    between atoms: C10_15  and  C12_17 
ROOT
HETATM    1  N2  UNL     1      25.946   0.356  52.923  1.00  0.00    -0.260 N 
ENDROOT
BRANCH   1   2
HETATM    2  N1  UNL     1      24.595   0.069  52.728  1.00  0.00    -0.294 N 
HETATM    3  H6  UNL     1      24.070   0.226  51.820  1.00  0.00     0.187 HD
BRANCH   2   4
HETATM    4  C6  UNL     1      23.769  -0.477  53.752  1.00  0.00     0.071 A 
HETATM    5  C4  UNL     1      22.510  -0.811  54.397  1.00  0.00     0.006 A 
HETATM    6  C5  UNL     1      23.600  -1.150  54.993  1.00  0.00     0.019 A 
BRANCH   5   7
HETATM    7  C3  UNL     1      21.059  -0.795  54.406  1.00  0.00     0.010 C 
HETATM    8  C2  UNL     1      20.316  -0.840  53.300  1.00  0.00    -0.030 C 
HETATM    9  C1  UNL     1      18.840  -0.823  53.316  1.00  0.00     0.036 C 
ENDBRANCH   5   7
ENDBRANCH   2   4
ENDBRANCH   1   2
BRANCH   1  10
HETATM   10  C7  UNL     1      27.073  -0.521  53.103  1.00  0.00     0.190 A 
HETATM   11  N3  UNL     1      27.414  -1.627  53.126  1.00  0.00    -0.198 NA
HETATM   12  C8  UNL     1      28.650  -2.073  53.340  1.00  0.00     0.171 A 
HETATM   13  C9  UNL     1      29.669  -1.095  53.567  1.00  0.00     0.111 A 
HETATM   14  S1  UNL     1      28.640   0.489  53.434  1.00  0.00    -0.058 SA
BRANCH  12  15
HETATM   15  O1  UNL     1      28.726  -3.483  53.302  1.00  0.00    -0.344 OA
HETATM   16  H7  UNL     1      28.678  -3.978  52.423  1.00  0.00     0.219 HD
ENDBRANCH  12  15
ENDBRANCH   1  10
BRANCH   1  17
HETATM   17  C10 UNL     1      26.114   1.793  52.925  1.00  0.00     0.139 C 
HETATM   18  C11 UNL     1      25.484   2.428  54.148  1.00  0.00     0.039 C 
BRANCH  17  19
HETATM   19  C12 UNL     1      25.654   2.419  51.677  1.00  0.00    -0.034 A 
HETATM   20  C13 UNL     1      24.348   2.784  51.418  1.00  0.00     0.009 A 
HETATM   21  C14 UNL     1      24.060   3.362  50.199  1.00  0.00     0.001 A 
HETATM   22  C15 UNL     1      25.063   3.565  49.273  1.00  0.00     0.000 A 
HETATM   23  C16 UNL     1      26.387   3.208  49.505  1.00  0.00     0.001 A 
HETATM   24  C17 UNL     1      26.665   2.625  50.738  1.00  0.00     0.009 A 
ENDBRANCH  17  19
ENDBRANCH   1  17
TORSDOF 7
ENDMDL
MODEL 7
REMARK VINA RESULT:      -7.1      2.909      5.045
REMARK  7 active torsions:
REMARK  status: ('A' for Active; 'I' for Inactive)
REMARK    1  A    between atoms: C3_3  and  C4_4 
REMARK    2  A    between atoms: C6_6  and  N1_7 
REMARK    3  A    between atoms: N1_7  and  N2_8 
REMARK    4  A    between atoms: N2_8  and  C7_9 
REMARK    5  A    between atoms: N2_8  and  C10_15 
REMARK    6  A    between atoms: C8_11  and  O1_12 
REMARK    7  A    between atoms: C10_15  and  C12_17 
ROOT
HETATM    1  N2  UNL     1      25.891   1.492  52.456  1.00  0.00    -0.260 N 
ENDROOT
BRANCH   1   2
HETATM    2  N1  UNL     1      25.612   1.596  51.093  1.00  0.00    -0.294 N 
HETATM    3  H6  UNL     1      25.190   0.822  50.503  1.00  0.00     0.187 HD
BRANCH   2   4
HETATM    4  C6  UNL     1      25.872   2.778  50.343  1.00  0.00     0.071 A 
HETATM    5  C4  UNL     1      25.524   4.006  49.649  1.00  0.00     0.006 A 
HETATM    6  C5  UNL     1      26.765   3.666  49.682  1.00  0.00     0.019 A 
BRANCH   5   7
HETATM    7  C3  UNL     1      24.524   4.962  49.209  1.00  0.00     0.010 C 
HETATM    8  C2  UNL     1      23.382   4.611  48.616  1.00  0.00    -0.030 C 
HETATM    9  C1  UNL     1      22.370   5.589  48.170  1.00  0.00     0.036 C 
ENDBRANCH   5   7
ENDBRANCH   2   4
ENDBRANCH   1   2
BRANCH   1  10
HETATM   10  C7  UNL     1      27.148   1.393  53.150  1.00  0.00     0.190 A 
HETATM   11  N3  UNL     1      27.965   1.989  53.712  1.00  0.00    -0.198 NA
HETATM   12  C8  UNL     1      29.075   1.497  54.257  1.00  0.00     0.171 A 
HETATM   13  C9  UNL     1      29.292   0.088  54.141  1.00  0.00     0.111 A 
HETATM   14  S1  UNL     1      27.738  -0.406  53.178  1.00  0.00    -0.058 SA
BRANCH  12  15
HETATM   15  O1  UNL     1      29.861   2.497  54.872  1.00  0.00    -0.344 OA
HETATM   16  H7  UNL     1      30.869   2.430  54.877  1.00  0.00     0.219 HD
ENDBRANCH  12  15
ENDBRANCH   1  10
BRANCH   1  17
HETATM   17  C10 UNL     1      24.639   1.496  53.182  1.00  0.00     0.139 C 
HETATM   18  C11 UNL     1      23.910   0.176  53.046  1.00  0.00     0.039 C 
BRANCH  17  19
HETATM   19  C12 UNL     1      23.785   2.640  52.830  1.00  0.00    -0.034 A 
HETATM   20  C13 UNL     1      24.080   3.957  53.118  1.00  0.00     0.009 A 
HETATM   21  C14 UNL     1      23.182   4.929  52.727  1.00  0.00     0.001 A 
HETATM   22  C15 UNL     1      22.024   4.578  52.065  1.00  0.00     0.000 A 
HETATM   23  C16 UNL     1      21.699   3.260  51.760  1.00  0.00     0.001 A 
HETATM   24  C17 UNL     1      22.612   2.288  52.160  1.00  0.00     0.009 A 
ENDBRANCH  17  19
ENDBRANCH   1  17
TORSDOF 7
ENDMDL
MODEL 8
REMARK VINA RESULT:      -7.1      2.414      4.933
REMARK  7 active torsions:
REMARK  status: ('A' for Active; 'I' for Inactive)
REMARK    1  A    between atoms: C3_3  and  C4_4 
REMARK    2  A    between atoms: C6_6  and  N1_7 
REMARK    3  A    between atoms: N1_7  and  N2_8 
REMARK    4  A    between atoms: N2_8  and  C7_9 
REMARK    5  A    between atoms: N2_8  and  C10_15 
REMARK    6  A    between atoms: C8_11  and  O1_12 
REMARK    7  A    between atoms: C10_15  and  C12_17 
ROOT
HETATM    1  N2  UNL     1      25.773   2.207  51.507  1.00  0.00    -0.260 N 
ENDROOT
BRANCH   1   2
HETATM    2  N1  UNL     1      26.444   2.417  50.302  1.00  0.00    -0.294 N 
HETATM    3  H6  UNL     1      26.914   1.655  49.733  1.00  0.00     0.187 HD
BRANCH   2   4
HETATM    4  C6  UNL     1      26.566   3.703  49.704  1.00  0.00     0.071 A 
HETATM    5  C4  UNL     1      26.144   5.055  49.380  1.00  0.00     0.006 A 
HETATM    6  C5  UNL     1      27.276   4.652  48.919  1.00  0.00     0.019 A 
BRANCH   5   7
HETATM    7  C3  UNL     1      25.169   6.127  49.478  1.00  0.00     0.010 C 
HETATM    8  C2  UNL     1      24.949   6.820  50.595  1.00  0.00    -0.030 C 
HETATM    9  C1  UNL     1      23.956   7.908  50.689  1.00  0.00     0.036 C 
ENDBRANCH   5   7
ENDBRANCH   2   4
ENDBRANCH   1   2
BRANCH   1  10
HETATM   10  C7  UNL     1      26.123   1.399  52.646  1.00  0.00     0.190 A 
HETATM   11  N3  UNL     1      25.745   0.590  53.381  1.00  0.00    -0.198 NA
HETATM   12  C8  UNL     1      26.427   0.051  54.389  1.00  0.00     0.171 A 
HETATM   13  C9  UNL     1      27.764   0.513  54.597  1.00  0.00     0.111 A 
HETATM   14  S1  UNL     1      27.896   1.779  53.193  1.00  0.00    -0.058 SA
BRANCH  12  15
HETATM   15  O1  UNL     1      25.671  -0.914  55.093  1.00  0.00    -0.344 OA
HETATM   16  H7  UNL     1      25.778  -1.023  56.092  1.00  0.00     0.219 HD
ENDBRANCH  12  15
ENDBRANCH   1  10
BRANCH   1  17
HETATM   17  C10 UNL     1      24.547   2.975  51.489  1.00  0.00     0.139 C 
HETATM   18  C11 UNL     1      24.138   3.406  52.883  1.00  0.00     0.039 C 
BRANCH  17  19
HETATM   19  C12 UNL     1      23.458   2.288  50.780  1.00  0.00    -0.034 A 
HETATM   20  C13 UNL     1      23.111   2.517  49.464  1.00  0.00     0.009 A 
HETATM   21  C14 UNL     1      22.064   1.797  48.928  1.00  0.00     0.001 A 
HETATM   22  C15 UNL     1      21.390   0.873  49.700  1.00  0.00     0.000 A 
HETATM   23  C16 UNL     1      21.716   0.620  51.028  1.00  0.00     0.001 A 
HETATM   24  C17 UNL     1      22.774   1.353  51.559  1.00  0.00     0.009 A 
ENDBRANCH  17  19
ENDBRANCH   1  17
TORSDOF 7
ENDMDL
MODEL 9
REMARK VINA RESULT:      -7.0      2.256      3.314
REMARK  7 active torsions:
REMARK  status: ('A' for Active; 'I' for Inactive)
REMARK    1  A    between atoms: C3_3  and  C4_4 
REMARK    2  A    between atoms: C6_6  and  N1_7 
REMARK    3  A    between atoms: N1_7  and  N2_8 
REMARK    4  A    between atoms: N2_8  and  C7_9 
REMARK    5  A    between atoms: N2_8  and  C10_15 
REMARK    6  A    between atoms: C8_11  and  O1_12 
REMARK    7  A    between atoms: C10_15  and  C12_17 
ROOT
HETATM    1  N2  UNL     1      25.582   1.171  52.152  1.00  0.00    -0.260 N 
ENDROOT
BRANCH   1   2
HETATM    2  N1  UNL     1      26.522   1.614  51.223  1.00  0.00    -0.294 N 
HETATM    3  H6  UNL     1      27.468   1.163  51.061  1.00  0.00     0.187 HD
BRANCH   2   4
HETATM    4  C6  UNL     1      26.299   2.740  50.380  1.00  0.00     0.071 A 
HETATM    5  C4  UNL     1      25.497   3.689  49.627  1.00  0.00     0.006 A 
HETATM    6  C5  UNL     1      26.776   3.835  49.608  1.00  0.00     0.019 A 
BRANCH   5   7
HETATM    7  C3  UNL     1      24.199   4.168  49.186  1.00  0.00     0.010 C 
HETATM    8  C2  UNL     1      23.247   3.369  48.703  1.00  0.00    -0.030 C 
HETATM    9  C1  UNL     1      21.930   3.862  48.255  1.00  0.00     0.036 C 
ENDBRANCH   5   7
ENDBRANCH   2   4
ENDBRANCH   1   2
BRANCH   1  10
HETATM   10  C7  UNL     1      24.157   0.999  52.035  1.00  0.00     0.190 A 
HETATM   11  N3  UNL     1      23.224   1.265  51.404  1.00  0.00    -0.198 NA
HETATM   12  C8  UNL     1      21.971   0.881  51.639  1.00  0.00     0.171 A 
HETATM   13  C9  UNL     1      21.742   0.057  52.786  1.00  0.00     0.111 A 
HETATM   14  S1  UNL     1      23.511  -0.081  53.448  1.00  0.00    -0.058 SA
BRANCH  12  15
HETATM   15  O1  UNL     1      21.067   1.380  50.674  1.00  0.00    -0.344 OA
HETATM   16  H7  UNL     1      21.150   1.112  49.704  1.00  0.00     0.219 HD
ENDBRANCH  12  15
ENDBRANCH   1  10
BRANCH   1  17
HETATM   17  C10 UNL     1      26.267   0.866  53.389  1.00  0.00     0.139 C 
HETATM   18  C11 UNL     1      26.943   2.090  53.971  1.00  0.00     0.039 C 
BRANCH  17  19
HETATM   19  C12 UNL     1      27.194  -0.269  53.258  1.00  0.00    -0.034 A 
HETATM   20  C13 UNL     1      26.844  -1.516  52.783  1.00  0.00     0.009 A 
HETATM   21  C14 UNL     1      27.821  -2.488  52.715  1.00  0.00     0.001 A 
HETATM   22  C15 UNL     1      29.111  -2.204  53.114  1.00  0.00     0.000 A 
HETATM   23  C16 UNL     1      29.494  -0.957  53.596  1.00  0.00     0.001 A 
HETATM   24  C17 UNL     1      28.500   0.015  53.661  1.00  0.00     0.009 A 
ENDBRANCH  17  19
ENDBRANCH   1  17
TORSDOF 7
ENDMDL
