MODEL 1
REMARK VINA RESULT:      -8.6      0.000      0.000
REMARK  3 active torsions:
REMARK  status: ('A' for Active; 'I' for Inactive)
REMARK       I    between atoms: C3_3  and  N1_5 
REMARK    1  A    between atoms: C7_9  and  N2_10 
REMARK    2  A    between atoms: N2_10  and  N3_11 
REMARK    3  A    between atoms: N3_11  and  C8_12 
ROOT
HETATM    1  C1  UNL     1      26.808   1.936  51.598  1.00  0.00     0.023 C 
HETATM    2  C2  UNL     1      26.717   1.203  52.563  1.00  0.00    -0.014 C 
HETATM    3  C3  UNL     1      26.617   0.343  53.734  1.00  0.00     0.322 C 
HETATM    4  O1  UNL     1      27.640   0.055  54.389  1.00  0.00    -0.256 OA
HETATM    5  N1  UNL     1      25.347  -0.147  54.100  1.00  0.00    -0.201 N 
HETATM    6  C4  UNL     1      24.173   0.075  53.497  1.00  0.00     0.136 A 
HETATM    7  C5  UNL     1      22.921  -0.346  53.768  1.00  0.00     0.016 A 
HETATM    8  C6  UNL     1      21.666  -0.179  53.227  1.00  0.00     0.067 A 
HETATM    9  C7  UNL     1      20.814  -0.919  54.035  1.00  0.00     0.143 A 
HETATM   10  N4  UNL     1      21.489  -1.518  55.030  1.00  0.00    -0.228 NA
HETATM   11  C14 UNL     1      22.791  -1.229  54.954  1.00  0.00     0.090 A 
HETATM   12  C15 UNL     1      24.012  -1.434  55.544  1.00  0.00     0.171 A 
HETATM   13  N5  UNL     1      25.201  -0.950  55.171  1.00  0.00    -0.175 NA
ENDROOT
BRANCH   9  14
HETATM   14  N2  UNL     1      19.413  -0.975  53.770  1.00  0.00    -0.284 N 
HETATM   15  H4  UNL     1      18.842  -0.205  53.391  1.00  0.00     0.188 HD
BRANCH  14  16
HETATM   16  N3  UNL     1      18.723  -2.155  54.053  1.00  0.00    -0.299 N 
HETATM   17  H5  UNL     1      19.029  -2.885  54.743  1.00  0.00     0.187 HD
BRANCH  16  18
HETATM   18  C8  UNL     1      17.503  -2.546  53.441  1.00  0.00     0.049 A 
HETATM   19  C9  UNL     1      17.159  -3.883  53.633  1.00  0.00     0.031 A 
HETATM   20  C10 UNL     1      16.003  -4.444  53.094  1.00  0.00     0.004 A 
HETATM   21  C11 UNL     1      15.177  -3.631  52.347  1.00  0.00     0.019 A 
HETATM   22  C12 UNL     1      15.489  -2.304  52.138  1.00  0.00     0.013 A 
HETATM   23 BR1  UNL     1      14.465  -1.056  51.129  1.00  0.00    -0.051 Br
HETATM   24  C13 UNL     1      16.636  -1.777  52.680  1.00  0.00     0.050 A 
ENDBRANCH  16  18
ENDBRANCH  14  16
ENDBRANCH   9  14
TORSDOF 3
ENDMDL
MODEL 2
REMARK VINA RESULT:      -8.5      1.462      2.088
REMARK  3 active torsions:
REMARK  status: ('A' for Active; 'I' for Inactive)
REMARK       I    between atoms: C3_3  and  N1_5 
REMARK    1  A    between atoms: C7_9  and  N2_10 
REMARK    2  A    between atoms: N2_10  and  N3_11 
REMARK    3  A    between atoms: N3_11  and  C8_12 
ROOT
HETATM    1  C1  UNL     1      26.964   2.306  51.844  1.00  0.00     0.023 C 
HETATM    2  C2  UNL     1      26.987   1.612  52.841  1.00  0.00    -0.014 C 
HETATM    3  C3  UNL     1      27.020   0.800  54.050  1.00  0.00     0.322 C 
HETATM    4  O1  UNL     1      28.069   0.723  54.723  1.00  0.00    -0.256 OA
HETATM    5  N1  UNL     1      25.849   0.115  54.430  1.00  0.00    -0.201 N 
HETATM    6  C4  UNL     1      24.662   0.105  53.810  1.00  0.00     0.136 A 
HETATM    7  C5  UNL     1      23.498  -0.514  54.093  1.00  0.00     0.016 A 
HETATM    8  C6  UNL     1      22.241  -0.589  53.538  1.00  0.00     0.067 A 
HETATM    9  C7  UNL     1      21.517  -1.429  54.373  1.00  0.00     0.143 A 
HETATM   10  N4  UNL     1      22.272  -1.858  55.399  1.00  0.00    -0.228 NA
HETATM   11  C14 UNL     1      23.505  -1.352  55.317  1.00  0.00     0.090 A 
HETATM   12  C15 UNL     1      24.735  -1.317  55.923  1.00  0.00     0.171 A 
HETATM   13  N5  UNL     1      25.828  -0.653  55.536  1.00  0.00    -0.175 NA
ENDROOT
BRANCH   9  14
HETATM   14  N2  UNL     1      20.151  -1.738  54.103  1.00  0.00    -0.284 N 
HETATM   15  H4  UNL     1      19.747  -2.686  54.057  1.00  0.00     0.188 HD
BRANCH  14  16
HETATM   16  N3  UNL     1      19.261  -0.691  53.859  1.00  0.00    -0.299 N 
HETATM   17  H5  UNL     1      19.127   0.148  54.477  1.00  0.00     0.187 HD
BRANCH  16  18
HETATM   18  C8  UNL     1      18.396  -0.609  52.736  1.00  0.00     0.049 A 
HETATM   19  C9  UNL     1      18.910   0.111  51.658  1.00  0.00     0.031 A 
HETATM   20  C10 UNL     1      18.194   0.304  50.478  1.00  0.00     0.004 A 
HETATM   21  C11 UNL     1      16.933  -0.246  50.388  1.00  0.00     0.019 A 
HETATM   22  C12 UNL     1      16.397  -0.963  51.436  1.00  0.00     0.013 A 
HETATM   23 BR1  UNL     1      14.676  -1.776  51.475  1.00  0.00    -0.051 Br
HETATM   24  C13 UNL     1      17.123  -1.138  52.589  1.00  0.00     0.050 A 
ENDBRANCH  16  18
ENDBRANCH  14  16
ENDBRANCH   9  14
TORSDOF 3
ENDMDL
MODEL 3
REMARK VINA RESULT:      -8.5      5.173      9.669
REMARK  3 active torsions:
REMARK  status: ('A' for Active; 'I' for Inactive)
REMARK       I    between atoms: C3_3  and  N1_5 
REMARK    1  A    between atoms: C7_9  and  N2_10 
REMARK    2  A    between atoms: N2_10  and  N3_11 
REMARK    3  A    between atoms: N3_11  and  C8_12 
ROOT
HETATM    1  C1  UNL     1      19.918  -0.481  53.355  1.00  0.00     0.023 C 
HETATM    2  C2  UNL     1      20.964  -0.799  53.886  1.00  0.00    -0.014 C 
HETATM    3  C3  UNL     1      22.214  -1.204  54.514  1.00  0.00     0.322 C 
HETATM    4  O1  UNL     1      22.214  -2.089  55.395  1.00  0.00    -0.256 OA
HETATM    5  N1  UNL     1      23.406  -0.575  54.101  1.00  0.00    -0.201 N 
HETATM    6  C4  UNL     1      23.556   0.381  53.177  1.00  0.00     0.136 A 
HETATM    7  C5  UNL     1      24.642   1.037  52.720  1.00  0.00     0.016 A 
HETATM    8  C6  UNL     1      24.906   2.015  51.789  1.00  0.00     0.067 A 
HETATM    9  C7  UNL     1      26.278   2.216  51.842  1.00  0.00     0.143 A 
HETATM   10  N4  UNL     1      26.850   1.411  52.753  1.00  0.00    -0.228 NA
HETATM   11  C14 UNL     1      25.929   0.647  53.347  1.00  0.00     0.090 A 
HETATM   12  C15 UNL     1      25.736  -0.332  54.287  1.00  0.00     0.171 A 
HETATM   13  N5  UNL     1      24.587  -0.910  54.653  1.00  0.00    -0.175 NA
ENDROOT
BRANCH   9  14
HETATM   14  N2  UNL     1      26.915   3.174  50.998  1.00  0.00    -0.284 N 
HETATM   15  H4  UNL     1      27.828   3.620  51.178  1.00  0.00     0.188 HD
BRANCH  14  16
HETATM   16  N3  UNL     1      26.267   3.575  49.829  1.00  0.00    -0.299 N 
HETATM   17  H5  UNL     1      25.544   3.014  49.314  1.00  0.00     0.187 HD
BRANCH  16  18
HETATM   18  C8  UNL     1      26.498   4.805  49.157  1.00  0.00     0.049 A 
HETATM   19  C9  UNL     1      25.358   5.585  48.966  1.00  0.00     0.031 A 
HETATM   20  C10 UNL     1      25.395   6.817  48.315  1.00  0.00     0.004 A 
HETATM   21  C11 UNL     1      26.612   7.268  47.850  1.00  0.00     0.019 A 
HETATM   22  C12 UNL     1      27.757   6.519  48.023  1.00  0.00     0.013 A 
HETATM   23 BR1  UNL     1      29.505   6.993  47.437  1.00  0.00    -0.051 Br
HETATM   24  C13 UNL     1      27.693   5.309  48.668  1.00  0.00     0.050 A 
ENDBRANCH  16  18
ENDBRANCH  14  16
ENDBRANCH   9  14
TORSDOF 3
ENDMDL
MODEL 4
REMARK VINA RESULT:      -8.4      2.055      2.705
REMARK  3 active torsions:
REMARK  status: ('A' for Active; 'I' for Inactive)
REMARK       I    between atoms: C3_3  and  N1_5 
REMARK    1  A    between atoms: C7_9  and  N2_10 
REMARK    2  A    between atoms: N2_10  and  N3_11 
REMARK    3  A    between atoms: N3_11  and  C8_12 
ROOT
HETATM    1  C1  UNL     1      26.363   3.226  50.081  1.00  0.00     0.023 C 
HETATM    2  C2  UNL     1      26.756   2.690  51.098  1.00  0.00    -0.014 C 
HETATM    3  C3  UNL     1      27.230   2.071  52.328  1.00  0.00     0.322 C 
HETATM    4  O1  UNL     1      28.388   2.297  52.736  1.00  0.00    -0.256 OA
HETATM    5  N1  UNL     1      26.353   1.222  53.032  1.00  0.00    -0.201 N 
HETATM    6  C4  UNL     1      25.096   0.890  52.716  1.00  0.00     0.136 A 
HETATM    7  C5  UNL     1      24.190   0.093  53.319  1.00  0.00     0.016 A 
HETATM    8  C6  UNL     1      22.894  -0.307  53.088  1.00  0.00     0.067 A 
HETATM    9  C7  UNL     1      22.576  -1.155  54.139  1.00  0.00     0.143 A 
HETATM   10  N4  UNL     1      23.609  -1.283  54.988  1.00  0.00    -0.228 NA
HETATM   11  C14 UNL     1      24.649  -0.555  54.573  1.00  0.00     0.090 A 
HETATM   12  C15 UNL     1      25.940  -0.192  54.863  1.00  0.00     0.171 A 
HETATM   13  N5  UNL     1      26.745   0.621  54.172  1.00  0.00    -0.175 NA
ENDROOT
BRANCH   9  14
HETATM   14  N2  UNL     1      21.290  -1.766  54.229  1.00  0.00    -0.284 N 
HETATM   15  H4  UNL     1      21.103  -2.781  54.207  1.00  0.00     0.188 HD
BRANCH  14  16
HETATM   16  N3  UNL     1      20.164  -0.948  54.340  1.00  0.00    -0.299 N 
HETATM   17  H5  UNL     1      19.861  -0.448  55.213  1.00  0.00     0.187 HD
BRANCH  16  18
HETATM   18  C8  UNL     1      19.254  -0.678  53.285  1.00  0.00     0.049 A 
HETATM   19  C9  UNL     1      18.038  -1.355  53.378  1.00  0.00     0.031 A 
HETATM   20  C10 UNL     1      17.031  -1.219  52.425  1.00  0.00     0.004 A 
HETATM   21  C11 UNL     1      17.259  -0.379  51.356  1.00  0.00     0.019 A 
HETATM   22  C12 UNL     1      18.451   0.304  51.234  1.00  0.00     0.013 A 
HETATM   23 BR1  UNL     1      18.925   1.490  49.823  1.00  0.00    -0.051 Br
HETATM   24  C13 UNL     1      19.427   0.153  52.188  1.00  0.00     0.050 A 
ENDBRANCH  16  18
ENDBRANCH  14  16
ENDBRANCH   9  14
TORSDOF 3
ENDMDL
MODEL 5
REMARK VINA RESULT:      -8.4      4.519      9.324
REMARK  3 active torsions:
REMARK  status: ('A' for Active; 'I' for Inactive)
REMARK       I    between atoms: C3_3  and  N1_5 
REMARK    1  A    between atoms: C7_9  and  N2_10 
REMARK    2  A    between atoms: N2_10  and  N3_11 
REMARK    3  A    between atoms: N3_11  and  C8_12 
ROOT
HETATM    1  C1  UNL     1      19.631  -0.175  53.030  1.00  0.00     0.023 C 
HETATM    2  C2  UNL     1      20.624  -0.577  53.604  1.00  0.00    -0.014 C 
HETATM    3  C3  UNL     1      21.809  -1.083  54.282  1.00  0.00     0.322 C 
HETATM    4  O1  UNL     1      21.704  -1.995  55.129  1.00  0.00    -0.256 OA
HETATM    5  N1  UNL     1      23.059  -0.519  53.958  1.00  0.00    -0.201 N 
HETATM    6  C4  UNL     1      23.320   0.456  53.079  1.00  0.00     0.136 A 
HETATM    7  C5  UNL     1      24.468   1.056  52.706  1.00  0.00     0.016 A 
HETATM    8  C6  UNL     1      24.845   2.046  51.827  1.00  0.00     0.067 A 
HETATM    9  C7  UNL     1      26.222   2.157  51.961  1.00  0.00     0.143 A 
HETATM   10  N4  UNL     1      26.690   1.286  52.870  1.00  0.00    -0.228 NA
HETATM   11  C14 UNL     1      25.692   0.563  53.385  1.00  0.00     0.090 A 
HETATM   12  C15 UNL     1      25.385  -0.433  54.277  1.00  0.00     0.171 A 
HETATM   13  N5  UNL     1      24.185  -0.947  54.559  1.00  0.00    -0.175 NA
ENDROOT
BRANCH   9  14
HETATM   14  N2  UNL     1      26.963   3.099  51.188  1.00  0.00    -0.284 N 
HETATM   15  H4  UNL     1      27.756   3.664  51.530  1.00  0.00     0.188 HD
BRANCH  14  16
HETATM   16  N3  UNL     1      26.600   3.312  49.858  1.00  0.00    -0.299 N 
HETATM   17  H5  UNL     1      26.330   2.560  49.176  1.00  0.00     0.187 HD
BRANCH  16  18
HETATM   18  C8  UNL     1      26.549   4.582  49.226  1.00  0.00     0.049 A 
HETATM   19  C9  UNL     1      27.771   5.032  48.727  1.00  0.00     0.031 A 
HETATM   20  C10 UNL     1      27.911   6.262  48.087  1.00  0.00     0.004 A 
HETATM   21  C11 UNL     1      26.788   7.052  47.949  1.00  0.00     0.019 A 
HETATM   22  C12 UNL     1      25.566   6.636  48.432  1.00  0.00     0.013 A 
HETATM   23 BR1  UNL     1      23.931   7.605  48.329  1.00  0.00    -0.051 Br
HETATM   24  C13 UNL     1      25.456   5.419  49.059  1.00  0.00     0.050 A 
ENDBRANCH  16  18
ENDBRANCH  14  16
ENDBRANCH   9  14
TORSDOF 3
ENDMDL
MODEL 6
REMARK VINA RESULT:      -8.3      1.477      2.177
REMARK  3 active torsions:
REMARK  status: ('A' for Active; 'I' for Inactive)
REMARK       I    between atoms: C3_3  and  N1_5 
REMARK    1  A    between atoms: C7_9  and  N2_10 
REMARK    2  A    between atoms: N2_10  and  N3_11 
REMARK    3  A    between atoms: N3_11  and  C8_12 
ROOT
HETATM    1  C1  UNL     1      28.251   0.116  54.589  1.00  0.00     0.023 C 
HETATM    2  C2  UNL     1      27.585   0.669  53.737  1.00  0.00    -0.014 C 
HETATM    3  C3  UNL     1      26.801   1.322  52.697  1.00  0.00     0.322 C 
HETATM    4  O1  UNL     1      27.350   2.117  51.906  1.00  0.00    -0.256 OA
HETATM    5  N1  UNL     1      25.425   1.032  52.614  1.00  0.00    -0.201 N 
HETATM    6  C4  UNL     1      24.707   0.208  53.388  1.00  0.00     0.136 A 
HETATM    7  C5  UNL     1      23.402  -0.128  53.387  1.00  0.00     0.016 A 
HETATM    8  C6  UNL     1      22.576  -0.951  54.119  1.00  0.00     0.067 A 
HETATM    9  C7  UNL     1      21.316  -0.807  53.555  1.00  0.00     0.143 A 
HETATM   10  N4  UNL     1      21.343   0.054  52.524  1.00  0.00    -0.228 NA
HETATM   11  C14 UNL     1      22.578   0.526  52.340  1.00  0.00     0.090 A 
HETATM   12  C15 UNL     1      23.346   1.361  51.569  1.00  0.00     0.171 A 
HETATM   13  N5  UNL     1      24.655   1.612  51.674  1.00  0.00    -0.175 NA
ENDROOT
BRANCH   9  14
HETATM   14  N2  UNL     1      20.195  -1.525  54.067  1.00  0.00    -0.284 N 
HETATM   15  H4  UNL     1      20.236  -2.421  54.577  1.00  0.00     0.188 HD
BRANCH  14  16
HETATM   16  N3  UNL     1      18.915  -1.007  53.862  1.00  0.00    -0.299 N 
HETATM   17  H5  UNL     1      18.635  -0.006  54.015  1.00  0.00     0.187 HD
BRANCH  16  18
HETATM   18  C8  UNL     1      17.797  -1.763  53.421  1.00  0.00     0.049 A 
HETATM   19  C9  UNL     1      17.794  -3.094  53.839  1.00  0.00     0.031 A 
HETATM   20  C10 UNL     1      16.782  -3.986  53.491  1.00  0.00     0.004 A 
HETATM   21  C11 UNL     1      15.750  -3.519  52.705  1.00  0.00     0.019 A 
HETATM   22  C12 UNL     1      15.724  -2.210  52.275  1.00  0.00     0.013 A 
HETATM   23 BR1  UNL     1      14.382  -1.414  51.184  1.00  0.00    -0.051 Br
HETATM   24  C13 UNL     1      16.734  -1.351  52.632  1.00  0.00     0.050 A 
ENDBRANCH  16  18
ENDBRANCH  14  16
ENDBRANCH   9  14
TORSDOF 3
ENDMDL
MODEL 7
REMARK VINA RESULT:      -7.9      6.069      9.074
REMARK  3 active torsions:
REMARK  status: ('A' for Active; 'I' for Inactive)
REMARK       I    between atoms: C3_3  and  N1_5 
REMARK    1  A    between atoms: C7_9  and  N2_10 
REMARK    2  A    between atoms: N2_10  and  N3_11 
REMARK    3  A    between atoms: N3_11  and  C8_12 
ROOT
HETATM    1  C1  UNL     1      31.936   4.631  47.679  1.00  0.00     0.023 C 
HETATM    2  C2  UNL     1      31.090   5.502  47.626  1.00  0.00    -0.014 C 
HETATM    3  C3  UNL     1      30.080   6.547  47.536  1.00  0.00     0.322 C 
HETATM    4  O1  UNL     1      30.382   7.674  47.089  1.00  0.00    -0.256 OA
HETATM    5  N1  UNL     1      28.770   6.252  47.964  1.00  0.00    -0.201 N 
HETATM    6  C4  UNL     1      28.305   5.100  48.461  1.00  0.00     0.136 A 
HETATM    7  C5  UNL     1      27.084   4.726  48.894  1.00  0.00     0.016 A 
HETATM    8  C6  UNL     1      26.506   3.589  49.411  1.00  0.00     0.067 A 
HETATM    9  C7  UNL     1      25.178   3.921  49.642  1.00  0.00     0.143 A 
HETATM   10  N4  UNL     1      24.929   5.194  49.290  1.00  0.00    -0.228 NA
HETATM   11  C14 UNL     1      26.036   5.775  48.819  1.00  0.00     0.090 A 
HETATM   12  C15 UNL     1      26.549   6.939  48.306  1.00  0.00     0.171 A 
HETATM   13  N5  UNL     1      27.800   7.185  47.906  1.00  0.00    -0.175 NA
ENDROOT
BRANCH   9  14
HETATM   14  N2  UNL     1      24.265   2.968  50.183  1.00  0.00    -0.284 N 
HETATM   15  H4  UNL     1      23.616   2.381  49.636  1.00  0.00     0.188 HD
BRANCH  14  16
HETATM   16  N3  UNL     1      24.206   2.805  51.567  1.00  0.00    -0.299 N 
HETATM   17  H5  UNL     1      24.010   3.569  52.260  1.00  0.00     0.187 HD
BRANCH  16  18
HETATM   18  C8  UNL     1      24.411   1.575  52.246  1.00  0.00     0.049 A 
HETATM   19  C9  UNL     1      25.679   1.020  52.073  1.00  0.00     0.031 A 
HETATM   20  C10 UNL     1      26.053  -0.189  52.655  1.00  0.00     0.004 A 
HETATM   21  C11 UNL     1      25.124  -0.849  53.431  1.00  0.00     0.019 A 
HETATM   22  C12 UNL     1      23.862  -0.328  53.621  1.00  0.00     0.013 A 
HETATM   23 BR1  UNL     1      22.468  -1.114  54.651  1.00  0.00    -0.051 Br
HETATM   24  C13 UNL     1      23.519   0.866  53.036  1.00  0.00     0.050 A 
ENDBRANCH  16  18
ENDBRANCH  14  16
ENDBRANCH   9  14
TORSDOF 3
ENDMDL
MODEL 8
REMARK VINA RESULT:      -7.7      2.092      3.086
REMARK  3 active torsions:
REMARK  status: ('A' for Active; 'I' for Inactive)
REMARK       I    between atoms: C3_3  and  N1_5 
REMARK    1  A    between atoms: C7_9  and  N2_10 
REMARK    2  A    between atoms: N2_10  and  N3_11 
REMARK    3  A    between atoms: N3_11  and  C8_12 
ROOT
HETATM    1  C1  UNL     1      29.619  -1.898  53.537  1.00  0.00     0.023 C 
HETATM    2  C2  UNL     1      29.234  -0.768  53.764  1.00  0.00    -0.014 C 
HETATM    3  C3  UNL     1      28.790   0.595  54.018  1.00  0.00     0.322 C 
HETATM    4  O1  UNL     1      29.602   1.454  54.420  1.00  0.00    -0.256 OA
HETATM    5  N1  UNL     1      27.433   0.911  53.800  1.00  0.00    -0.201 N 
HETATM    6  C4  UNL     1      26.457   0.100  53.375  1.00  0.00     0.136 A 
HETATM    7  C5  UNL     1      25.146   0.306  53.140  1.00  0.00     0.016 A 
HETATM    8  C6  UNL     1      24.073  -0.440  52.707  1.00  0.00     0.067 A 
HETATM    9  C7  UNL     1      22.994   0.432  52.700  1.00  0.00     0.143 A 
HETATM   10  N4  UNL     1      23.362   1.660  53.103  1.00  0.00    -0.228 NA
HETATM   11  C14 UNL     1      24.665   1.687  53.396  1.00  0.00     0.090 A 
HETATM   12  C15 UNL     1      25.691   2.487  53.830  1.00  0.00     0.171 A 
HETATM   13  N5  UNL     1      26.971   2.155  54.025  1.00  0.00    -0.175 NA
ENDROOT
BRANCH   9  14
HETATM   14  N2  UNL     1      21.697  -0.004  52.297  1.00  0.00    -0.284 N 
HETATM   15  H4  UNL     1      21.438  -0.323  51.351  1.00  0.00     0.188 HD
BRANCH  14  16
HETATM   16  N3  UNL     1      20.664   0.006  53.235  1.00  0.00    -0.299 N 
HETATM   17  H5  UNL     1      20.720   0.428  54.194  1.00  0.00     0.187 HD
BRANCH  16  18
HETATM   18  C8  UNL     1      19.379  -0.565  53.029  1.00  0.00     0.049 A 
HETATM   19  C9  UNL     1      19.099  -1.669  53.833  1.00  0.00     0.031 A 
HETATM   20  C10 UNL     1      17.893  -2.362  53.759  1.00  0.00     0.004 A 
HETATM   21  C11 UNL     1      16.950  -1.926  52.853  1.00  0.00     0.019 A 
HETATM   22  C12 UNL     1      17.197  -0.837  52.043  1.00  0.00     0.013 A 
HETATM   23 BR1  UNL     1      16.010  -0.116  50.742  1.00  0.00    -0.051 Br
HETATM   24  C13 UNL     1      18.394  -0.172  52.136  1.00  0.00     0.050 A 
ENDBRANCH  16  18
ENDBRANCH  14  16
ENDBRANCH   9  14
TORSDOF 3
ENDMDL
MODEL 9
REMARK VINA RESULT:      -7.6      6.514     10.275
REMARK  3 active torsions:
REMARK  status: ('A' for Active; 'I' for Inactive)
REMARK       I    between atoms: C3_3  and  N1_5 
REMARK    1  A    between atoms: C7_9  and  N2_10 
REMARK    2  A    between atoms: N2_10  and  N3_11 
REMARK    3  A    between atoms: N3_11  and  C8_12 
ROOT
HETATM    1  C1  UNL     1      29.017  -0.007  54.490  1.00  0.00     0.023 C 
HETATM    2  C2  UNL     1      27.803  -0.059  54.448  1.00  0.00    -0.014 C 
HETATM    3  C3  UNL     1      26.348  -0.114  54.421  1.00  0.00     0.322 C 
HETATM    4  O1  UNL     1      25.735  -0.849  55.222  1.00  0.00    -0.256 OA
HETATM    5  N1  UNL     1      25.665   0.677  53.476  1.00  0.00    -0.201 N 
HETATM    6  C4  UNL     1      26.186   1.504  52.562  1.00  0.00     0.136 A 
HETATM    7  C5  UNL     1      25.621   2.292  51.625  1.00  0.00     0.016 A 
HETATM    8  C6  UNL     1      26.053   3.168  50.656  1.00  0.00     0.067 A 
HETATM    9  C7  UNL     1      24.901   3.638  50.041  1.00  0.00     0.143 A 
HETATM   10  N4  UNL     1      23.803   3.092  50.590  1.00  0.00    -0.228 NA
HETATM   11  C14 UNL     1      24.138   2.252  51.573  1.00  0.00     0.090 A 
HETATM   12  C15 UNL     1      23.641   1.395  52.521  1.00  0.00     0.171 A 
HETATM   13  N5  UNL     1      24.320   0.659  53.407  1.00  0.00    -0.175 NA
ENDROOT
BRANCH   9  14
HETATM   14  N2  UNL     1      24.969   4.581  48.973  1.00  0.00    -0.284 N 
HETATM   15  H4  UNL     1      24.742   4.387  47.985  1.00  0.00     0.188 HD
BRANCH  14  16
HETATM   16  N3  UNL     1      25.389   5.882  49.251  1.00  0.00    -0.299 N 
HETATM   17  H5  UNL     1      24.812   6.617  49.729  1.00  0.00     0.187 HD
BRANCH  16  18
HETATM   18  C8  UNL     1      26.667   6.408  48.920  1.00  0.00     0.049 A 
HETATM   19  C9  UNL     1      27.587   5.459  48.475  1.00  0.00     0.031 A 
HETATM   20  C10 UNL     1      28.892   5.793  48.118  1.00  0.00     0.004 A 
HETATM   21  C11 UNL     1      29.271   7.116  48.212  1.00  0.00     0.019 A 
HETATM   22  C12 UNL     1      28.385   8.077  48.649  1.00  0.00     0.013 A 
HETATM   23 BR1  UNL     1      28.751   9.935  48.842  1.00  0.00    -0.051 Br
HETATM   24  C13 UNL     1      27.104   7.721  48.995  1.00  0.00     0.050 A 
ENDBRANCH  16  18
ENDBRANCH  14  16
ENDBRANCH   9  14
TORSDOF 3
ENDMDL
