MODEL 1
REMARK VINA RESULT:      -8.6      0.000      0.000
REMARK  6 active torsions:
REMARK  status: ('A' for Active; 'I' for Inactive)
REMARK    1  A    between atoms: C2_2  and  C3_3 
REMARK    2  A    between atoms: C2_2  and  N1_6 
REMARK    3  A    between atoms: C4_4  and  O1_5 
REMARK    4  A    between atoms: N1_6  and  C5_7 
REMARK    5  A    between atoms: C12_16  and  N4_17 
REMARK    6  A    between atoms: N4_17  and  C13_18 
ROOT
HETATM    1  C5  UNL     1      25.110   3.346  50.442  1.00  0.00     0.029 A 
HETATM    2  C6  UNL     1      24.061   3.268  49.556  1.00  0.00     0.031 A 
HETATM    3  C7  UNL     1      22.962   2.449  49.709  1.00  0.00     0.035 A 
HETATM    4  C8  UNL     1      22.911   1.647  50.840  1.00  0.00     0.069 A 
HETATM    5  N2  UNL     1      21.878   0.829  51.058  1.00  0.00    -0.259 NA
HETATM    6  C9  UNL     1      21.861   0.065  52.165  1.00  0.00     0.142 A 
HETATM    7  C10 UNL     1      22.841   0.042  53.135  1.00  0.00     0.089 A 
HETATM    8  C11 UNL     1      22.813  -0.765  54.299  1.00  0.00     0.103 C 
HETATM    9  N3  UNL     1      22.776  -1.431  55.239  1.00  0.00    -0.191 NA
HETATM   10  C12 UNL     1      23.919   0.878  52.934  1.00  0.00     0.067 A 
HETATM   11  C18 UNL     1      23.942   1.672  51.789  1.00  0.00     0.023 A 
HETATM   12  C19 UNL     1      24.981   2.518  51.536  1.00  0.00     0.045 A 
ENDROOT
BRANCH  10  13
HETATM   13  N4  UNL     1      25.036   0.991  53.836  1.00  0.00    -0.356 N 
HETATM   14  H10 UNL     1      24.994   1.627  54.679  1.00  0.00     0.166 HD
BRANCH  13  15
HETATM   15  C13 UNL     1      26.224   0.245  53.611  1.00  0.00     0.028 A 
HETATM   16  C14 UNL     1      26.301  -0.848  52.872  1.00  0.00     0.026 A 
HETATM   17  C15 UNL     1      27.652  -1.363  52.847  1.00  0.00    -0.001 A 
HETATM   18  C16 UNL     1      28.400  -0.583  53.573  1.00  0.00    -0.005 A 
HETATM   19  C17 UNL     1      27.564   0.530  54.139  1.00  0.00     0.130 A 
HETATM   20 BR1  UNL     1      28.235   2.198  53.474  1.00  0.00    -0.080 Br
ENDBRANCH  13  15
ENDBRANCH  10  13
BRANCH   1  21
HETATM   21  N1  UNL     1      26.238   4.192  50.282  1.00  0.00    -0.375 N 
HETATM   22  H6  UNL     1      26.995   4.136  50.997  1.00  0.00     0.161 HD
BRANCH  21  23
HETATM   23  C2  UNL     1      26.353   5.114  49.170  1.00  0.00     0.159 C 
HETATM   24  C1  UNL     1      25.874   6.495  49.488  1.00  0.00     0.046 C 
BRANCH  23  25
HETATM   25  C3  UNL     1      27.758   5.119  48.702  1.00  0.00    -0.051 C 
HETATM   26  C4  UNL     1      28.896   5.126  48.301  1.00  0.00     0.053 C 
BRANCH  26  27
HETATM   27  O1  UNL     1      30.191   5.112  47.844  1.00  0.00    -0.314 OA
HETATM   28  H5  UNL     1      30.501   5.734  47.083  1.00  0.00     0.230 HD
ENDBRANCH  26  27
ENDBRANCH  23  25
ENDBRANCH  21  23
ENDBRANCH   1  21
TORSDOF 6
ENDMDL
MODEL 2
REMARK VINA RESULT:      -8.1      3.518      6.273
REMARK  6 active torsions:
REMARK  status: ('A' for Active; 'I' for Inactive)
REMARK    1  A    between atoms: C2_2  and  C3_3 
REMARK    2  A    between atoms: C2_2  and  N1_6 
REMARK    3  A    between atoms: C4_4  and  O1_5 
REMARK    4  A    between atoms: N1_6  and  C5_7 
REMARK    5  A    between atoms: C12_16  and  N4_17 
REMARK    6  A    between atoms: N4_17  and  C13_18 
ROOT
HETATM    1  C5  UNL     1      23.664  -0.387  53.768  1.00  0.00     0.029 A 
HETATM    2  C6  UNL     1      22.960  -1.112  54.702  1.00  0.00     0.031 A 
HETATM    3  C7  UNL     1      21.594  -1.306  54.681  1.00  0.00     0.035 A 
HETATM    4  C8  UNL     1      20.880  -0.728  53.643  1.00  0.00     0.069 A 
HETATM    5  N2  UNL     1      19.555  -0.872  53.555  1.00  0.00    -0.259 NA
HETATM    6  C9  UNL     1      18.893  -0.299  52.534  1.00  0.00     0.142 A 
HETATM    7  C10 UNL     1      19.468   0.452  51.530  1.00  0.00     0.089 A 
HETATM    8  C11 UNL     1      18.762   1.050  50.459  1.00  0.00     0.103 C 
HETATM    9  N3  UNL     1      18.172   1.534  49.594  1.00  0.00    -0.191 NA
HETATM   10  C12 UNL     1      20.836   0.617  51.597  1.00  0.00     0.067 A 
HETATM   11  C18 UNL     1      21.526   0.025  52.653  1.00  0.00     0.023 A 
HETATM   12  C19 UNL     1      22.879   0.152  52.772  1.00  0.00     0.045 A 
ENDROOT
BRANCH  10  13
HETATM   13  N4  UNL     1      21.609   1.365  50.642  1.00  0.00    -0.356 N 
HETATM   14  H10 UNL     1      22.055   0.891  49.809  1.00  0.00     0.166 HD
BRANCH  13  15
HETATM   15  C13 UNL     1      21.790   2.766  50.798  1.00  0.00     0.028 A 
HETATM   16  C14 UNL     1      21.291   3.487  51.787  1.00  0.00     0.026 A 
HETATM   17  C15 UNL     1      21.660   4.878  51.653  1.00  0.00    -0.001 A 
HETATM   18  C16 UNL     1      22.385   5.007  50.579  1.00  0.00    -0.005 A 
HETATM   19  C17 UNL     1      22.545   3.667  49.919  1.00  0.00     0.130 A 
HETATM   20 BR1  UNL     1      24.408   3.216  49.893  1.00  0.00    -0.080 Br
ENDBRANCH  13  15
ENDBRANCH  10  13
BRANCH   1  21
HETATM   21  N1  UNL     1      25.069  -0.193  53.791  1.00  0.00    -0.375 N 
HETATM   22  H6  UNL     1      25.520  -0.006  54.713  1.00  0.00     0.161 HD
BRANCH  21  23
HETATM   23  C2  UNL     1      25.870  -0.247  52.585  1.00  0.00     0.159 C 
HETATM   24  C1  UNL     1      26.604   1.026  52.300  1.00  0.00     0.046 C 
BRANCH  23  25
HETATM   25  C3  UNL     1      26.797  -1.399  52.682  1.00  0.00    -0.051 C 
HETATM   26  C4  UNL     1      27.535  -2.349  52.761  1.00  0.00     0.053 C 
BRANCH  26  27
HETATM   27  O1  UNL     1      28.377  -3.429  52.874  1.00  0.00    -0.314 OA
HETATM   28  H5  UNL     1      29.375  -3.362  52.623  1.00  0.00     0.230 HD
ENDBRANCH  26  27
ENDBRANCH  23  25
ENDBRANCH  21  23
ENDBRANCH   1  21
TORSDOF 6
ENDMDL
MODEL 3
REMARK VINA RESULT:      -8.0      3.094      5.661
REMARK  6 active torsions:
REMARK  status: ('A' for Active; 'I' for Inactive)
REMARK    1  A    between atoms: C2_2  and  C3_3 
REMARK    2  A    between atoms: C2_2  and  N1_6 
REMARK    3  A    between atoms: C4_4  and  O1_5 
REMARK    4  A    between atoms: N1_6  and  C5_7 
REMARK    5  A    between atoms: C12_16  and  N4_17 
REMARK    6  A    between atoms: N4_17  and  C13_18 
ROOT
HETATM    1  C5  UNL     1      25.173  -0.473  54.669  1.00  0.00     0.029 A 
HETATM    2  C6  UNL     1      24.626  -1.320  55.605  1.00  0.00     0.031 A 
HETATM    3  C7  UNL     1      23.293  -1.673  55.662  1.00  0.00     0.035 A 
HETATM    4  C8  UNL     1      22.445  -1.134  54.707  1.00  0.00     0.069 A 
HETATM    5  N2  UNL     1      21.142  -1.430  54.697  1.00  0.00    -0.259 NA
HETATM    6  C9  UNL     1      20.348  -0.891  53.755  1.00  0.00     0.142 A 
HETATM    7  C10 UNL     1      20.760  -0.030  52.760  1.00  0.00     0.089 A 
HETATM    8  C11 UNL     1      19.915   0.531  51.771  1.00  0.00     0.103 C 
HETATM    9  N3  UNL     1      19.214   0.983  50.976  1.00  0.00    -0.191 NA
HETATM   10  C12 UNL     1      22.101   0.292  52.747  1.00  0.00     0.067 A 
HETATM   11  C18 UNL     1      22.929  -0.264  53.720  1.00  0.00     0.023 A 
HETATM   12  C19 UNL     1      24.262   0.016  53.758  1.00  0.00     0.045 A 
ENDROOT
BRANCH  10  13
HETATM   13  N4  UNL     1      22.713   1.172  51.786  1.00  0.00    -0.356 N 
HETATM   14  H10 UNL     1      23.149   0.794  50.901  1.00  0.00     0.166 HD
BRANCH  13  15
HETATM   15  C13 UNL     1      22.745   2.575  52.009  1.00  0.00     0.028 A 
HETATM   16  C14 UNL     1      23.735   3.224  52.596  1.00  0.00     0.026 A 
HETATM   17  C15 UNL     1      23.456   4.641  52.668  1.00  0.00    -0.001 A 
HETATM   18  C16 UNL     1      22.292   4.857  52.123  1.00  0.00    -0.005 A 
HETATM   19  C17 UNL     1      21.715   3.555  51.644  1.00  0.00     0.130 A 
HETATM   20 BR1  UNL     1      21.487   3.650  49.742  1.00  0.00    -0.080 Br
ENDBRANCH  13  15
ENDBRANCH  10  13
BRANCH   1  21
HETATM   21  N1  UNL     1      26.545  -0.115  54.612  1.00  0.00    -0.375 N 
HETATM   22  H6  UNL     1      26.986   0.265  55.476  1.00  0.00     0.161 HD
BRANCH  21  23
HETATM   23  C2  UNL     1      27.325  -0.263  53.400  1.00  0.00     0.159 C 
HETATM   24  C1  UNL     1      26.926  -1.446  52.574  1.00  0.00     0.046 C 
BRANCH  23  25
HETATM   25  C3  UNL     1      27.242   0.996  52.624  1.00  0.00    -0.051 C 
HETATM   26  C4  UNL     1      27.168   2.010  51.977  1.00  0.00     0.053 C 
BRANCH  26  27
HETATM   27  O1  UNL     1      27.104   3.164  51.233  1.00  0.00    -0.314 OA
HETATM   28  H5  UNL     1      26.760   4.047  51.638  1.00  0.00     0.230 HD
ENDBRANCH  26  27
ENDBRANCH  23  25
ENDBRANCH  21  23
ENDBRANCH   1  21
TORSDOF 6
ENDMDL
MODEL 4
REMARK VINA RESULT:      -8.0      2.804      5.897
REMARK  6 active torsions:
REMARK  status: ('A' for Active; 'I' for Inactive)
REMARK    1  A    between atoms: C2_2  and  C3_3 
REMARK    2  A    between atoms: C2_2  and  N1_6 
REMARK    3  A    between atoms: C4_4  and  O1_5 
REMARK    4  A    between atoms: N1_6  and  C5_7 
REMARK    5  A    between atoms: C12_16  and  N4_17 
REMARK    6  A    between atoms: N4_17  and  C13_18 
ROOT
HETATM    1  C5  UNL     1      25.675   0.879  53.927  1.00  0.00     0.029 A 
HETATM    2  C6  UNL     1      24.921  -0.271  53.959  1.00  0.00     0.031 A 
HETATM    3  C7  UNL     1      23.626  -0.376  53.497  1.00  0.00     0.035 A 
HETATM    4  C8  UNL     1      23.041   0.762  52.961  1.00  0.00     0.069 A 
HETATM    5  N2  UNL     1      21.791   0.738  52.493  1.00  0.00    -0.259 NA
HETATM    6  C9  UNL     1      21.255   1.860  51.979  1.00  0.00     0.142 A 
HETATM    7  C10 UNL     1      21.893   3.079  51.884  1.00  0.00     0.089 A 
HETATM    8  C11 UNL     1      21.320   4.254  51.340  1.00  0.00     0.103 C 
HETATM    9  N3  UNL     1      20.838   5.204  50.898  1.00  0.00    -0.191 NA
HETATM   10  C12 UNL     1      23.186   3.131  52.361  1.00  0.00     0.067 A 
HETATM   11  C18 UNL     1      23.746   1.972  52.894  1.00  0.00     0.023 A 
HETATM   12  C19 UNL     1      25.020   1.961  53.380  1.00  0.00     0.045 A 
ENDROOT
BRANCH  10  13
HETATM   13  N4  UNL     1      24.008   4.313  52.346  1.00  0.00    -0.356 N 
HETATM   14  H10 UNL     1      24.315   4.775  53.245  1.00  0.00     0.166 HD
BRANCH  13  15
HETATM   15  C13 UNL     1      24.426   4.886  51.115  1.00  0.00     0.028 A 
HETATM   16  C14 UNL     1      24.501   6.183  50.872  1.00  0.00     0.026 A 
HETATM   17  C15 UNL     1      24.961   6.433  49.524  1.00  0.00    -0.001 A 
HETATM   18  C16 UNL     1      25.166   5.286  48.943  1.00  0.00    -0.005 A 
HETATM   19  C17 UNL     1      24.845   4.174  49.901  1.00  0.00     0.130 A 
HETATM   20 BR1  UNL     1      26.438   3.152  50.208  1.00  0.00    -0.080 Br
ENDBRANCH  13  15
ENDBRANCH  10  13
BRANCH   1  21
HETATM   21  N1  UNL     1      27.008   0.981  54.400  1.00  0.00    -0.375 N 
HETATM   22  H6  UNL     1      27.152   1.233  55.402  1.00  0.00     0.161 HD
BRANCH  21  23
HETATM   23  C2  UNL     1      28.148   0.750  53.536  1.00  0.00     0.159 C 
HETATM   24  C1  UNL     1      29.400   1.421  54.008  1.00  0.00     0.046 C 
BRANCH  23  25
HETATM   25  C3  UNL     1      28.339  -0.711  53.383  1.00  0.00    -0.051 C 
HETATM   26  C4  UNL     1      28.484  -1.900  53.241  1.00  0.00     0.053 C 
BRANCH  26  27
HETATM   27  O1  UNL     1      28.632  -3.257  53.091  1.00  0.00    -0.314 OA
HETATM   28  H5  UNL     1      28.609  -3.894  53.901  1.00  0.00     0.230 HD
ENDBRANCH  26  27
ENDBRANCH  23  25
ENDBRANCH  21  23
ENDBRANCH   1  21
TORSDOF 6
ENDMDL
MODEL 5
REMARK VINA RESULT:      -7.8      3.692      7.346
REMARK  6 active torsions:
REMARK  status: ('A' for Active; 'I' for Inactive)
REMARK    1  A    between atoms: C2_2  and  C3_3 
REMARK    2  A    between atoms: C2_2  and  N1_6 
REMARK    3  A    between atoms: C4_4  and  O1_5 
REMARK    4  A    between atoms: N1_6  and  C5_7 
REMARK    5  A    between atoms: C12_16  and  N4_17 
REMARK    6  A    between atoms: N4_17  and  C13_18 
ROOT
HETATM    1  C5  UNL     1      20.996  -0.265  53.774  1.00  0.00     0.029 A 
HETATM    2  C6  UNL     1      21.667  -1.216  54.506  1.00  0.00     0.031 A 
HETATM    3  C7  UNL     1      23.039  -1.354  54.547  1.00  0.00     0.035 A 
HETATM    4  C8  UNL     1      23.795  -0.469  53.794  1.00  0.00     0.069 A 
HETATM    5  N2  UNL     1      25.129  -0.539  53.784  1.00  0.00    -0.259 NA
HETATM    6  C9  UNL     1      25.832   0.336  53.043  1.00  0.00     0.142 A 
HETATM    7  C10 UNL     1      25.293   1.337  52.263  1.00  0.00     0.089 A 
HETATM    8  C11 UNL     1      26.043   2.255  51.488  1.00  0.00     0.103 C 
HETATM    9  N3  UNL     1      26.667   2.992  50.859  1.00  0.00    -0.191 NA
HETATM   10  C12 UNL     1      23.917   1.432  52.256  1.00  0.00     0.067 A 
HETATM   11  C18 UNL     1      23.184   0.528  53.022  1.00  0.00     0.023 A 
HETATM   12  C19 UNL     1      21.821   0.573  53.056  1.00  0.00     0.045 A 
ENDROOT
BRANCH  10  13
HETATM   13  N4  UNL     1      23.177   2.412  51.505  1.00  0.00    -0.356 N 
HETATM   14  H10 UNL     1      22.888   3.330  51.942  1.00  0.00     0.166 HD
BRANCH  13  15
HETATM   15  C13 UNL     1      22.816   2.164  50.153  1.00  0.00     0.028 A 
HETATM   16  C14 UNL     1      21.877   1.320  49.764  1.00  0.00     0.026 A 
HETATM   17  C15 UNL     1      21.759   1.302  48.323  1.00  0.00    -0.001 A 
HETATM   18  C16 UNL     1      22.630   2.137  47.832  1.00  0.00    -0.005 A 
HETATM   19  C17 UNL     1      23.398   2.778  48.953  1.00  0.00     0.130 A 
HETATM   20 BR1  UNL     1      23.079   4.668  48.912  1.00  0.00    -0.080 Br
ENDBRANCH  13  15
ENDBRANCH  10  13
BRANCH   1  21
HETATM   21  N1  UNL     1      19.584  -0.125  53.738  1.00  0.00    -0.375 N 
HETATM   22  H6  UNL     1      19.147   0.570  54.381  1.00  0.00     0.161 HD
BRANCH  21  23
HETATM   23  C2  UNL     1      18.758  -0.911  52.844  1.00  0.00     0.159 C 
HETATM   24  C1  UNL     1      17.450  -1.319  53.446  1.00  0.00     0.046 C 
BRANCH  23  25
HETATM   25  C3  UNL     1      18.566  -0.155  51.585  1.00  0.00    -0.051 C 
HETATM   26  C4  UNL     1      18.412   0.479  50.571  1.00  0.00     0.053 C 
BRANCH  26  27
HETATM   27  O1  UNL     1      18.215   1.200  49.418  1.00  0.00    -0.314 OA
HETATM   28  H5  UNL     1      17.770   0.779  48.589  1.00  0.00     0.230 HD
ENDBRANCH  26  27
ENDBRANCH  23  25
ENDBRANCH  21  23
ENDBRANCH   1  21
TORSDOF 6
ENDMDL
MODEL 6
REMARK VINA RESULT:      -7.7      2.122      4.221
REMARK  6 active torsions:
REMARK  status: ('A' for Active; 'I' for Inactive)
REMARK    1  A    between atoms: C2_2  and  C3_3 
REMARK    2  A    between atoms: C2_2  and  N1_6 
REMARK    3  A    between atoms: C4_4  and  O1_5 
REMARK    4  A    between atoms: N1_6  and  C5_7 
REMARK    5  A    between atoms: C12_16  and  N4_17 
REMARK    6  A    between atoms: N4_17  and  C13_18 
ROOT
HETATM    1  C5  UNL     1      25.571   3.074  51.412  1.00  0.00     0.029 A 
HETATM    2  C6  UNL     1      26.755   2.377  51.491  1.00  0.00     0.031 A 
HETATM    3  C7  UNL     1      26.905   1.149  52.101  1.00  0.00     0.035 A 
HETATM    4  C8  UNL     1      25.781   0.577  52.676  1.00  0.00     0.069 A 
HETATM    5  N2  UNL     1      25.848  -0.611  53.284  1.00  0.00    -0.259 NA
HETATM    6  C9  UNL     1      24.738  -1.138  53.832  1.00  0.00     0.142 A 
HETATM    7  C10 UNL     1      23.490  -0.552  53.827  1.00  0.00     0.089 A 
HETATM    8  C11 UNL     1      22.327  -1.116  54.405  1.00  0.00     0.103 C 
HETATM    9  N3  UNL     1      21.389  -1.588  54.884  1.00  0.00    -0.191 NA
HETATM   10  C12 UNL     1      23.393   0.675  53.205  1.00  0.00     0.067 A 
HETATM   11  C18 UNL     1      24.540   1.226  52.637  1.00  0.00     0.023 A 
HETATM   12  C19 UNL     1      24.506   2.435  52.008  1.00  0.00     0.045 A 
ENDROOT
BRANCH  10  13
HETATM   13  N4  UNL     1      22.175   1.436  53.100  1.00  0.00    -0.356 N 
HETATM   14  H10 UNL     1      21.990   2.259  53.737  1.00  0.00     0.166 HD
BRANCH  13  15
HETATM   15  C13 UNL     1      21.192   1.095  52.134  1.00  0.00     0.028 A 
HETATM   16  C14 UNL     1      19.956   0.717  52.414  1.00  0.00     0.026 A 
HETATM   17  C15 UNL     1      19.211   0.443  51.205  1.00  0.00    -0.001 A 
HETATM   18  C16 UNL     1      19.993   0.653  50.186  1.00  0.00    -0.005 A 
HETATM   19  C17 UNL     1      21.345   1.093  50.674  1.00  0.00     0.130 A 
HETATM   20 BR1  UNL     1      21.691   2.857  50.007  1.00  0.00    -0.080 Br
ENDBRANCH  13  15
ENDBRANCH  10  13
BRANCH   1  21
HETATM   21  N1  UNL     1      25.420   4.335  50.780  1.00  0.00    -0.375 N 
HETATM   22  H6  UNL     1      25.279   5.171  51.388  1.00  0.00     0.161 HD
BRANCH  21  23
HETATM   23  C2  UNL     1      25.456   4.480  49.339  1.00  0.00     0.159 C 
HETATM   24  C1  UNL     1      24.514   5.521  48.821  1.00  0.00     0.046 C 
BRANCH  23  25
HETATM   25  C3  UNL     1      26.851   4.754  48.924  1.00  0.00    -0.051 C 
HETATM   26  C4  UNL     1      27.990   4.958  48.584  1.00  0.00     0.053 C 
BRANCH  26  27
HETATM   27  O1  UNL     1      29.294   5.191  48.219  1.00  0.00    -0.314 OA
HETATM   28  H5  UNL     1      29.979   4.424  48.150  1.00  0.00     0.230 HD
ENDBRANCH  26  27
ENDBRANCH  23  25
ENDBRANCH  21  23
ENDBRANCH   1  21
TORSDOF 6
ENDMDL
MODEL 7
REMARK VINA RESULT:      -7.7      3.769      6.131
REMARK  6 active torsions:
REMARK  status: ('A' for Active; 'I' for Inactive)
REMARK    1  A    between atoms: C2_2  and  C3_3 
REMARK    2  A    between atoms: C2_2  and  N1_6 
REMARK    3  A    between atoms: C4_4  and  O1_5 
REMARK    4  A    between atoms: N1_6  and  C5_7 
REMARK    5  A    between atoms: C12_16  and  N4_17 
REMARK    6  A    between atoms: N4_17  and  C13_18 
ROOT
HETATM    1  C5  UNL     1      25.309   0.324  52.576  1.00  0.00     0.029 A 
HETATM    2  C6  UNL     1      24.903  -0.644  53.465  1.00  0.00     0.031 A 
HETATM    3  C7  UNL     1      23.621  -0.768  53.960  1.00  0.00     0.035 A 
HETATM    4  C8  UNL     1      22.675   0.150  53.529  1.00  0.00     0.069 A 
HETATM    5  N2  UNL     1      21.413   0.093  53.964  1.00  0.00    -0.259 NA
HETATM    6  C9  UNL     1      20.521   0.999  53.526  1.00  0.00     0.142 A 
HETATM    7  C10 UNL     1      20.789   2.019  52.637  1.00  0.00     0.089 A 
HETATM    8  C11 UNL     1      19.841   2.968  52.181  1.00  0.00     0.103 C 
HETATM    9  N3  UNL     1      19.059   3.734  51.821  1.00  0.00    -0.191 NA
HETATM   10  C12 UNL     1      22.085   2.101  52.173  1.00  0.00     0.067 A 
HETATM   11  C18 UNL     1      23.014   1.165  52.624  1.00  0.00     0.023 A 
HETATM   12  C19 UNL     1      24.309   1.193  52.200  1.00  0.00     0.045 A 
ENDROOT
BRANCH  10  13
HETATM   13  N4  UNL     1      22.551   3.096  51.243  1.00  0.00    -0.356 N 
HETATM   14  H10 UNL     1      23.014   3.983  51.581  1.00  0.00     0.166 HD
BRANCH  13  15
HETATM   15  C13 UNL     1      22.399   2.904  49.844  1.00  0.00     0.028 A 
HETATM   16  C14 UNL     1      22.157   1.742  49.262  1.00  0.00     0.026 A 
HETATM   17  C15 UNL     1      22.058   1.890  47.827  1.00  0.00    -0.001 A 
HETATM   18  C16 UNL     1      22.241   3.145  47.532  1.00  0.00    -0.005 A 
HETATM   19  C17 UNL     1      22.478   3.927  48.794  1.00  0.00     0.130 A 
HETATM   20 BR1  UNL     1      21.081   5.226  48.980  1.00  0.00    -0.080 Br
ENDBRANCH  13  15
ENDBRANCH  10  13
BRANCH   1  21
HETATM   21  N1  UNL     1      26.628   0.446  52.066  1.00  0.00    -0.375 N 
HETATM   22  H6  UNL     1      26.744   0.573  51.038  1.00  0.00     0.161 HD
BRANCH  21  23
HETATM   23  C2  UNL     1      27.791   0.397  52.929  1.00  0.00     0.159 C 
HETATM   24  C1  UNL     1      27.587   1.083  54.244  1.00  0.00     0.046 C 
BRANCH  23  25
HETATM   25  C3  UNL     1      28.189  -1.018  53.110  1.00  0.00    -0.051 C 
HETATM   26  C4  UNL     1      28.499  -2.175  53.246  1.00  0.00     0.053 C 
BRANCH  26  27
HETATM   27  O1  UNL     1      28.839  -3.495  53.418  1.00  0.00    -0.314 OA
HETATM   28  H5  UNL     1      28.722  -3.968  54.326  1.00  0.00     0.230 HD
ENDBRANCH  26  27
ENDBRANCH  23  25
ENDBRANCH  21  23
ENDBRANCH   1  21
TORSDOF 6
ENDMDL
MODEL 8
REMARK VINA RESULT:      -7.5      4.283      6.620
REMARK  6 active torsions:
REMARK  status: ('A' for Active; 'I' for Inactive)
REMARK    1  A    between atoms: C2_2  and  C3_3 
REMARK    2  A    between atoms: C2_2  and  N1_6 
REMARK    3  A    between atoms: C4_4  and  O1_5 
REMARK    4  A    between atoms: N1_6  and  C5_7 
REMARK    5  A    between atoms: C12_16  and  N4_17 
REMARK    6  A    between atoms: N4_17  and  C13_18 
ROOT
HETATM    1  C5  UNL     1      19.622   0.219  51.752  1.00  0.00     0.029 A 
HETATM    2  C6  UNL     1      18.938  -0.551  52.664  1.00  0.00     0.031 A 
HETATM    3  C7  UNL     1      19.511  -1.183  53.748  1.00  0.00     0.035 A 
HETATM    4  C8  UNL     1      20.878  -1.031  53.930  1.00  0.00     0.069 A 
HETATM    5  N2  UNL     1      21.504  -1.611  54.957  1.00  0.00    -0.259 NA
HETATM    6  C9  UNL     1      22.830  -1.442  55.105  1.00  0.00     0.142 A 
HETATM    7  C10 UNL     1      23.639  -0.700  54.269  1.00  0.00     0.089 A 
HETATM    8  C11 UNL     1      25.035  -0.528  54.434  1.00  0.00     0.103 C 
HETATM    9  N3  UNL     1      26.171  -0.400  54.581  1.00  0.00    -0.191 NA
HETATM   10  C12 UNL     1      23.017  -0.090  53.201  1.00  0.00     0.067 A 
HETATM   11  C18 UNL     1      21.643  -0.262  53.043  1.00  0.00     0.023 A 
HETATM   12  C19 UNL     1      20.973   0.318  52.007  1.00  0.00     0.045 A 
ENDROOT
BRANCH  10  13
HETATM   13  N4  UNL     1      23.695   0.723  52.225  1.00  0.00    -0.356 N 
HETATM   14  H10 UNL     1      24.260   0.284  51.447  1.00  0.00     0.166 HD
BRANCH  13  15
HETATM   15  C13 UNL     1      23.620   2.140  52.288  1.00  0.00     0.028 A 
HETATM   16  C14 UNL     1      24.275   2.894  53.153  1.00  0.00     0.026 A 
HETATM   17  C15 UNL     1      23.979   4.295  52.950  1.00  0.00    -0.001 A 
HETATM   18  C16 UNL     1      23.140   4.396  51.959  1.00  0.00    -0.005 A 
HETATM   19  C17 UNL     1      22.822   3.026  51.430  1.00  0.00     0.130 A 
HETATM   20 BR1  UNL     1      23.395   2.927  49.603  1.00  0.00    -0.080 Br
ENDBRANCH  13  15
ENDBRANCH  10  13
BRANCH   1  21
HETATM   21  N1  UNL     1      19.028   0.869  50.641  1.00  0.00    -0.375 N 
HETATM   22  H6  UNL     1      18.440   0.297  49.997  1.00  0.00     0.161 HD
BRANCH  21  23
HETATM   23  C2  UNL     1      19.218   2.284  50.389  1.00  0.00     0.159 C 
HETATM   24  C1  UNL     1      19.209   2.637  48.934  1.00  0.00     0.046 C 
BRANCH  23  25
HETATM   25  C3  UNL     1      18.190   3.042  51.139  1.00  0.00    -0.051 C 
HETATM   26  C4  UNL     1      17.348   3.669  51.732  1.00  0.00     0.053 C 
BRANCH  26  27
HETATM   27  O1  UNL     1      16.404   4.398  52.414  1.00  0.00    -0.314 OA
HETATM   28  H5  UNL     1      16.663   5.020  53.193  1.00  0.00     0.230 HD
ENDBRANCH  26  27
ENDBRANCH  23  25
ENDBRANCH  21  23
ENDBRANCH   1  21
TORSDOF 6
ENDMDL
MODEL 9
REMARK VINA RESULT:      -7.4      2.894      4.897
REMARK  6 active torsions:
REMARK  status: ('A' for Active; 'I' for Inactive)
REMARK    1  A    between atoms: C2_2  and  C3_3 
REMARK    2  A    between atoms: C2_2  and  N1_6 
REMARK    3  A    between atoms: C4_4  and  O1_5 
REMARK    4  A    between atoms: N1_6  and  C5_7 
REMARK    5  A    between atoms: C12_16  and  N4_17 
REMARK    6  A    between atoms: N4_17  and  C13_18 
ROOT
HETATM    1  C5  UNL     1      26.399   1.807  51.339  1.00  0.00     0.029 A 
HETATM    2  C6  UNL     1      27.438   1.665  52.229  1.00  0.00     0.031 A 
HETATM    3  C7  UNL     1      27.358   0.991  53.431  1.00  0.00     0.035 A 
HETATM    4  C8  UNL     1      26.141   0.416  53.763  1.00  0.00     0.069 A 
HETATM    5  N2  UNL     1      25.987  -0.254  54.909  1.00  0.00    -0.259 NA
HETATM    6  C9  UNL     1      24.793  -0.800  55.201  1.00  0.00     0.142 A 
HETATM    7  C10 UNL     1      23.669  -0.737  54.404  1.00  0.00     0.089 A 
HETATM    8  C11 UNL     1      22.417  -1.317  54.719  1.00  0.00     0.103 C 
HETATM    9  N3  UNL     1      21.402  -1.792  54.992  1.00  0.00    -0.191 NA
HETATM   10  C12 UNL     1      23.801  -0.051  53.214  1.00  0.00     0.067 A 
HETATM   11  C18 UNL     1      25.036   0.517  52.907  1.00  0.00     0.023 A 
HETATM   12  C19 UNL     1      25.228   1.206  51.746  1.00  0.00     0.045 A 
ENDROOT
BRANCH  10  13
HETATM   13  N4  UNL     1      22.741   0.120  52.256  1.00  0.00    -0.356 N 
HETATM   14  H10 UNL     1      22.592  -0.579  51.478  1.00  0.00     0.166 HD
BRANCH  13  15
HETATM   15  C13 UNL     1      21.869   1.239  52.336  1.00  0.00     0.028 A 
HETATM   16  C14 UNL     1      22.185   2.471  51.977  1.00  0.00     0.026 A 
HETATM   17  C15 UNL     1      21.075   3.373  52.184  1.00  0.00    -0.001 A 
HETATM   18  C16 UNL     1      20.078   2.690  52.672  1.00  0.00    -0.005 A 
HETATM   19  C17 UNL     1      20.483   1.250  52.819  1.00  0.00     0.130 A 
HETATM   20 BR1  UNL     1      19.348   0.179  51.707  1.00  0.00    -0.080 Br
ENDBRANCH  13  15
ENDBRANCH  10  13
BRANCH   1  21
HETATM   21  N1  UNL     1      26.487   2.498  50.103  1.00  0.00    -0.375 N 
HETATM   22  H6  UNL     1      26.650   1.936  49.240  1.00  0.00     0.161 HD
BRANCH  21  23
HETATM   23  C2  UNL     1      26.358   3.939  50.020  1.00  0.00     0.159 C 
HETATM   24  C1  UNL     1      27.284   4.563  49.023  1.00  0.00     0.046 C 
BRANCH  23  25
HETATM   25  C3  UNL     1      24.944   4.274  49.733  1.00  0.00    -0.051 C 
HETATM   26  C4  UNL     1      23.791   4.528  49.491  1.00  0.00     0.053 C 
BRANCH  26  27
HETATM   27  O1  UNL     1      22.482   4.826  49.197  1.00  0.00    -0.314 OA
HETATM   28  H5  UNL     1      22.213   5.741  48.805  1.00  0.00     0.230 HD
ENDBRANCH  26  27
ENDBRANCH  23  25
ENDBRANCH  21  23
ENDBRANCH   1  21
TORSDOF 6
ENDMDL
