MODEL 1
REMARK VINA RESULT:      -6.6      0.000      0.000
REMARK  10 active torsions:
REMARK  status: ('A' for Active; 'I' for Inactive)
REMARK    1  A    between atoms: C2_2  and  C3_3 
REMARK    2  A    between atoms: C3_3  and  C4_4 
REMARK    3  A    between atoms: C4_4  and  N1_5 
REMARK    4  A    between atoms: C5_6  and  C6_7 
REMARK    5  A    between atoms: C10_11  and  O1_12 
REMARK    6  A    between atoms: O1_12  and  C11_13 
REMARK    7  A    between atoms: C11_13  and  C12_14 
REMARK    8  A    between atoms: C12_14  and  N2_15 
REMARK    9  A    between atoms: C17_21  and  C18_22 
REMARK   10  A    between atoms: C19_23  and  N4_24 
ROOT
HETATM    1  C6  UNL     1      22.570   3.875  51.276  1.00  0.00    -0.016 A 
HETATM    2  C7  UNL     1      23.064   3.698  50.004  1.00  0.00     0.013 A 
HETATM    3  C8  UNL     1      24.312   3.167  49.790  1.00  0.00     0.004 A 
HETATM    4  C9  UNL     1      25.024   2.827  50.917  1.00  0.00     0.037 A 
HETATM    5  C10 UNL     1      24.590   2.978  52.213  1.00  0.00     0.069 A 
HETATM    6  C16 UNL     1      23.309   3.524  52.387  1.00  0.00     0.049 A 
ENDROOT
BRANCH   1   7
HETATM    7  C5  UNL     1      21.254   4.441  51.497  1.00  0.00     0.122 C 
HETATM    8  N1  UNL     1      20.029   4.118  51.644  1.00  0.00    -0.289 NA
BRANCH   8   9
HETATM    9  C4  UNL     1      19.639   2.768  51.603  1.00  0.00     0.159 C 
BRANCH   9  10
HETATM   10  C3  UNL     1      19.331   1.532  52.013  1.00  0.00     0.009 C 
BRANCH  10  11
HETATM   11  C2  UNL     1      20.614   0.816  52.141  1.00  0.00    -0.064 C 
HETATM   12  C1  UNL     1      21.587   0.335  51.126  1.00  0.00     0.048 C 
HETATM   13  C17 UNL     1      21.117   0.467  53.313  1.00  0.00     0.007 C 
BRANCH  13  14
HETATM   14  C18 UNL     1      22.380  -0.242  53.454  1.00  0.00     0.012 C 
HETATM   15  C19 UNL     1      22.458  -1.211  54.341  1.00  0.00     0.054 C 
BRANCH  15  16
HETATM   16  N4  UNL     1      21.195  -1.301  54.960  1.00  0.00    -0.312 NA
HETATM   17  H21 UNL     1      20.516  -1.267  55.782  1.00  0.00     0.123 HD
HETATM   18  H22 UNL     1      20.935  -1.167  55.980  1.00  0.00     0.123 HD
ENDBRANCH  15  16
ENDBRANCH  13  14
ENDBRANCH  10  11
ENDBRANCH   9  10
ENDBRANCH   8   9
ENDBRANCH   1   7
BRANCH   5  19
HETATM   19  O1  UNL     1      25.189   2.687  53.404  1.00  0.00    -0.350 OA
BRANCH  19  20
HETATM   20  C11 UNL     1      26.013   1.611  53.710  1.00  0.00     0.196 C 
BRANCH  20  21
HETATM   21  C12 UNL     1      27.479   1.821  53.596  1.00  0.00     0.156 C 
BRANCH  21  22
HETATM   22  N2  UNL     1      28.207   0.554  53.563  1.00  0.00    -0.348 N 
HETATM   23  C13 UNL     1      29.518   0.304  53.683  1.00  0.00     0.111 A 
HETATM   24  C14 UNL     1      29.697  -1.079  53.580  1.00  0.00     0.135 A 
HETATM   25  N3  UNL     1      28.461  -1.582  53.401  1.00  0.00    -0.255 NA
HETATM   26  C15 UNL     1      27.549  -0.601  53.389  1.00  0.00     0.209 A 
ENDBRANCH  21  22
ENDBRANCH  20  21
ENDBRANCH  19  20
ENDBRANCH   5  19
TORSDOF 10
ENDMDL
MODEL 2
REMARK VINA RESULT:      -6.5      2.847      5.637
REMARK  10 active torsions:
REMARK  status: ('A' for Active; 'I' for Inactive)
REMARK    1  A    between atoms: C2_2  and  C3_3 
REMARK    2  A    between atoms: C3_3  and  C4_4 
REMARK    3  A    between atoms: C4_4  and  N1_5 
REMARK    4  A    between atoms: C5_6  and  C6_7 
REMARK    5  A    between atoms: C10_11  and  O1_12 
REMARK    6  A    between atoms: O1_12  and  C11_13 
REMARK    7  A    between atoms: C11_13  and  C12_14 
REMARK    8  A    between atoms: C12_14  and  N2_15 
REMARK    9  A    between atoms: C17_21  and  C18_22 
REMARK   10  A    between atoms: C19_23  and  N4_24 
ROOT
HETATM    1  C6  UNL     1      23.007   2.285  52.438  1.00  0.00    -0.016 A 
HETATM    2  C7  UNL     1      21.796   1.955  51.876  1.00  0.00     0.013 A 
HETATM    3  C8  UNL     1      21.348   0.657  51.854  1.00  0.00     0.004 A 
HETATM    4  C9  UNL     1      22.181  -0.278  52.425  1.00  0.00     0.037 A 
HETATM    5  C10 UNL     1      23.401  -0.016  53.003  1.00  0.00     0.069 A 
HETATM    6  C16 UNL     1      23.820   1.324  53.004  1.00  0.00     0.049 A 
ENDROOT
BRANCH   1   7
HETATM    7  C5  UNL     1      23.478   3.656  52.455  1.00  0.00     0.122 C 
HETATM    8  N1  UNL     1      24.011   4.548  51.715  1.00  0.00    -0.289 NA
BRANCH   8   9
HETATM    9  C4  UNL     1      24.320   4.268  50.373  1.00  0.00     0.159 C 
BRANCH   9  10
HETATM   10  C3  UNL     1      24.996   3.850  49.296  1.00  0.00     0.009 C 
BRANCH  10  11
HETATM   11  C2  UNL     1      26.057   4.849  49.071  1.00  0.00    -0.064 C 
HETATM   12  C1  UNL     1      27.508   4.707  48.777  1.00  0.00     0.048 C 
HETATM   13  C17 UNL     1      25.826   6.150  49.111  1.00  0.00     0.007 C 
BRANCH  13  14
HETATM   14  C18 UNL     1      26.865   7.146  48.894  1.00  0.00     0.012 C 
HETATM   15  C19 UNL     1      26.898   8.198  49.686  1.00  0.00     0.054 C 
BRANCH  15  16
HETATM   16  N4  UNL     1      25.833   8.056  50.597  1.00  0.00    -0.312 NA
HETATM   17  H21 UNL     1      25.381   8.054  51.564  1.00  0.00     0.123 HD
HETATM   18  H22 UNL     1      25.833   8.165  51.653  1.00  0.00     0.123 HD
ENDBRANCH  15  16
ENDBRANCH  13  14
ENDBRANCH  10  11
ENDBRANCH   9  10
ENDBRANCH   8   9
ENDBRANCH   1   7
BRANCH   5  19
HETATM   19  O1  UNL     1      24.314  -0.838  53.595  1.00  0.00    -0.350 OA
BRANCH  19  20
HETATM   20  C11 UNL     1      25.484  -0.485  54.257  1.00  0.00     0.196 C 
BRANCH  20  21
HETATM   21  C12 UNL     1      26.757  -0.612  53.502  1.00  0.00     0.156 C 
BRANCH  21  22
HETATM   22  N2  UNL     1      27.636   0.535  53.726  1.00  0.00    -0.348 N 
HETATM   23  C13 UNL     1      27.726   1.699  53.069  1.00  0.00     0.111 A 
HETATM   24  C14 UNL     1      28.729   2.456  53.682  1.00  0.00     0.135 A 
HETATM   25  N3  UNL     1      29.187   1.686  54.688  1.00  0.00    -0.255 NA
HETATM   26  C15 UNL     1      28.531   0.518  54.724  1.00  0.00     0.209 A 
ENDBRANCH  21  22
ENDBRANCH  20  21
ENDBRANCH  19  20
ENDBRANCH   5  19
TORSDOF 10
ENDMDL
MODEL 3
REMARK VINA RESULT:      -6.4      2.022      4.379
REMARK  10 active torsions:
REMARK  status: ('A' for Active; 'I' for Inactive)
REMARK    1  A    between atoms: C2_2  and  C3_3 
REMARK    2  A    between atoms: C3_3  and  C4_4 
REMARK    3  A    between atoms: C4_4  and  N1_5 
REMARK    4  A    between atoms: C5_6  and  C6_7 
REMARK    5  A    between atoms: C10_11  and  O1_12 
REMARK    6  A    between atoms: O1_12  and  C11_13 
REMARK    7  A    between atoms: C11_13  and  C12_14 
REMARK    8  A    between atoms: C12_14  and  N2_15 
REMARK    9  A    between atoms: C17_21  and  C18_22 
REMARK   10  A    between atoms: C19_23  and  N4_24 
ROOT
HETATM    1  C6  UNL     1      21.236   0.776  53.216  1.00  0.00    -0.016 A 
HETATM    2  C7  UNL     1      20.528  -0.181  53.905  1.00  0.00     0.013 A 
HETATM    3  C8  UNL     1      21.160  -1.227  54.530  1.00  0.00     0.004 A 
HETATM    4  C9  UNL     1      22.531  -1.253  54.424  1.00  0.00     0.037 A 
HETATM    5  C10 UNL     1      23.299  -0.330  53.752  1.00  0.00     0.069 A 
HETATM    6  C16 UNL     1      22.612   0.723  53.127  1.00  0.00     0.049 A 
ENDROOT
BRANCH   1   7
HETATM    7  C5  UNL     1      20.564   1.875  52.553  1.00  0.00     0.122 C 
HETATM    8  N1  UNL     1      20.323   2.362  51.399  1.00  0.00    -0.289 NA
BRANCH   8   9
HETATM    9  C4  UNL     1      20.813   1.728  50.243  1.00  0.00     0.159 C 
BRANCH   9  10
HETATM   10  C3  UNL     1      21.668   1.304  49.305  1.00  0.00     0.009 C 
BRANCH  10  11
HETATM   11  C2  UNL     1      22.440   2.490  48.894  1.00  0.00    -0.064 C 
HETATM   12  C1  UNL     1      22.359   3.360  47.691  1.00  0.00     0.048 C 
HETATM   13  C17 UNL     1      23.423   2.986  49.628  1.00  0.00     0.007 C 
BRANCH  13  14
HETATM   14  C18 UNL     1      24.195   4.154  49.232  1.00  0.00     0.012 C 
HETATM   15  C19 UNL     1      25.048   4.663  50.098  1.00  0.00     0.054 C 
BRANCH  15  16
HETATM   16  N4  UNL     1      24.970   3.871  51.261  1.00  0.00    -0.312 NA
HETATM   17  H21 UNL     1      25.362   3.365  52.114  1.00  0.00     0.123 HD
HETATM   18  H22 UNL     1      25.745   3.563  51.917  1.00  0.00     0.123 HD
ENDBRANCH  15  16
ENDBRANCH  13  14
ENDBRANCH  10  11
ENDBRANCH   9  10
ENDBRANCH   8   9
ENDBRANCH   1   7
BRANCH   5  19
HETATM   19  O1  UNL     1      24.648  -0.241  53.570  1.00  0.00    -0.350 OA
BRANCH  19  20
HETATM   20  C11 UNL     1      25.335   0.428  52.564  1.00  0.00     0.196 C 
BRANCH  20  21
HETATM   21  C12 UNL     1      26.741   0.021  52.312  1.00  0.00     0.156 C 
BRANCH  21  22
HETATM   22  N2  UNL     1      27.682   0.797  53.118  1.00  0.00    -0.348 N 
HETATM   23  C13 UNL     1      28.759   0.403  53.812  1.00  0.00     0.111 A 
HETATM   24  C14 UNL     1      29.316   1.538  54.410  1.00  0.00     0.135 A 
HETATM   25  N3  UNL     1      28.525   2.560  54.032  1.00  0.00    -0.255 NA
HETATM   26  C15 UNL     1      27.531   2.122  53.248  1.00  0.00     0.209 A 
ENDBRANCH  21  22
ENDBRANCH  20  21
ENDBRANCH  19  20
ENDBRANCH   5  19
TORSDOF 10
ENDMDL
MODEL 4
REMARK VINA RESULT:      -6.4      1.841      2.248
REMARK  10 active torsions:
REMARK  status: ('A' for Active; 'I' for Inactive)
REMARK    1  A    between atoms: C2_2  and  C3_3 
REMARK    2  A    between atoms: C3_3  and  C4_4 
REMARK    3  A    between atoms: C4_4  and  N1_5 
REMARK    4  A    between atoms: C5_6  and  C6_7 
REMARK    5  A    between atoms: C10_11  and  O1_12 
REMARK    6  A    between atoms: O1_12  and  C11_13 
REMARK    7  A    between atoms: C11_13  and  C12_14 
REMARK    8  A    between atoms: C12_14  and  N2_15 
REMARK    9  A    between atoms: C17_21  and  C18_22 
REMARK   10  A    between atoms: C19_23  and  N4_24 
ROOT
HETATM    1  C6  UNL     1      23.322   3.362  49.043  1.00  0.00    -0.016 A 
HETATM    2  C7  UNL     1      22.822   4.628  49.245  1.00  0.00     0.013 A 
HETATM    3  C8  UNL     1      23.527   5.570  49.952  1.00  0.00     0.004 A 
HETATM    4  C9  UNL     1      24.750   5.169  50.438  1.00  0.00     0.037 A 
HETATM    5  C10 UNL     1      25.307   3.923  50.273  1.00  0.00     0.069 A 
HETATM    6  C16 UNL     1      24.553   2.990  49.543  1.00  0.00     0.049 A 
ENDROOT
BRANCH   1   7
HETATM    7  C5  UNL     1      22.572   2.369  48.300  1.00  0.00     0.122 C 
HETATM    8  N1  UNL     1      21.819   1.351  48.454  1.00  0.00    -0.289 NA
BRANCH   8   9
HETATM    9  C4  UNL     1      21.500   0.890  49.742  1.00  0.00     0.159 C 
BRANCH   9  10
HETATM   10  C3  UNL     1      20.802   0.652  50.859  1.00  0.00     0.009 C 
BRANCH  10  11
HETATM   11  C2  UNL     1      21.795   0.549  51.944  1.00  0.00    -0.064 C 
HETATM   12  C1  UNL     1      22.907   1.445  52.360  1.00  0.00     0.048 C 
HETATM   13  C17 UNL     1      21.830  -0.476  52.779  1.00  0.00     0.007 C 
BRANCH  13  14
HETATM   14  C18 UNL     1      22.807  -0.591  53.851  1.00  0.00     0.012 C 
HETATM   15  C19 UNL     1      22.433  -1.158  54.979  1.00  0.00     0.054 C 
BRANCH  15  16
HETATM   16  N4  UNL     1      21.082  -1.526  54.823  1.00  0.00    -0.312 NA
HETATM   17  H21 UNL     1      20.068  -1.638  55.135  1.00  0.00     0.123 HD
HETATM   18  H22 UNL     1      20.279  -1.443  55.512  1.00  0.00     0.123 HD
ENDBRANCH  15  16
ENDBRANCH  13  14
ENDBRANCH  10  11
ENDBRANCH   9  10
ENDBRANCH   8   9
ENDBRANCH   1   7
BRANCH   5  19
HETATM   19  O1  UNL     1      26.494   3.401  50.698  1.00  0.00    -0.350 OA
BRANCH  19  20
HETATM   20  C11 UNL     1      26.714   2.202  51.364  1.00  0.00     0.196 C 
BRANCH  20  21
HETATM   21  C12 UNL     1      26.524   2.197  52.838  1.00  0.00     0.156 C 
BRANCH  21  22
HETATM   22  N2  UNL     1      27.374   1.202  53.490  1.00  0.00    -0.348 N 
HETATM   23  C13 UNL     1      28.677   1.245  53.799  1.00  0.00     0.111 A 
HETATM   24  C14 UNL     1      29.007   0.034  54.415  1.00  0.00     0.135 A 
HETATM   25  N3  UNL     1      27.862  -0.674  54.437  1.00  0.00    -0.255 NA
HETATM   26  C15 UNL     1      26.865   0.025  53.878  1.00  0.00     0.209 A 
ENDBRANCH  21  22
ENDBRANCH  20  21
ENDBRANCH  19  20
ENDBRANCH   5  19
TORSDOF 10
ENDMDL
MODEL 5
REMARK VINA RESULT:      -6.3      1.439      2.009
REMARK  10 active torsions:
REMARK  status: ('A' for Active; 'I' for Inactive)
REMARK    1  A    between atoms: C2_2  and  C3_3 
REMARK    2  A    between atoms: C3_3  and  C4_4 
REMARK    3  A    between atoms: C4_4  and  N1_5 
REMARK    4  A    between atoms: C5_6  and  C6_7 
REMARK    5  A    between atoms: C10_11  and  O1_12 
REMARK    6  A    between atoms: O1_12  and  C11_13 
REMARK    7  A    between atoms: C11_13  and  C12_14 
REMARK    8  A    between atoms: C12_14  and  N2_15 
REMARK    9  A    between atoms: C17_21  and  C18_22 
REMARK   10  A    between atoms: C19_23  and  N4_24 
ROOT
HETATM    1  C6  UNL     1      24.098   3.513  50.213  1.00  0.00    -0.016 A 
HETATM    2  C7  UNL     1      25.209   3.551  49.402  1.00  0.00     0.013 A 
HETATM    3  C8  UNL     1      26.423   3.073  49.830  1.00  0.00     0.004 A 
HETATM    4  C9  UNL     1      26.453   2.561  51.106  1.00  0.00     0.037 A 
HETATM    5  C10 UNL     1      25.383   2.493  51.968  1.00  0.00     0.069 A 
HETATM    6  C16 UNL     1      24.161   2.993  51.490  1.00  0.00     0.049 A 
ENDROOT
BRANCH   1   7
HETATM    7  C5  UNL     1      22.820   4.023  49.759  1.00  0.00     0.122 C 
HETATM    8  N1  UNL     1      21.701   3.651  49.271  1.00  0.00    -0.289 NA
BRANCH   8   9
HETATM    9  C4  UNL     1      21.452   2.291  49.019  1.00  0.00     0.159 C 
BRANCH   9  10
HETATM   10  C3  UNL     1      21.466   0.961  49.158  1.00  0.00     0.009 C 
BRANCH  10  11
HETATM   11  C2  UNL     1      20.937   0.689  50.508  1.00  0.00    -0.064 C 
HETATM   12  C1  UNL     1      19.550   0.528  51.017  1.00  0.00     0.048 C 
HETATM   13  C17 UNL     1      21.724   0.541  51.561  1.00  0.00     0.007 C 
BRANCH  13  14
HETATM   14  C18 UNL     1      21.216   0.275  52.898  1.00  0.00     0.012 C 
HETATM   15  C19 UNL     1      22.046  -0.209  53.798  1.00  0.00     0.054 C 
BRANCH  15  16
HETATM   16  N4  UNL     1      23.298  -0.347  53.166  1.00  0.00    -0.312 NA
HETATM   17  H21 UNL     1      24.355  -0.489  53.134  1.00  0.00     0.123 HD
HETATM   18  H22 UNL     1      24.255  -0.502  53.598  1.00  0.00     0.123 HD
ENDBRANCH  15  16
ENDBRANCH  13  14
ENDBRANCH  10  11
ENDBRANCH   9  10
ENDBRANCH   8   9
ENDBRANCH   1   7
BRANCH   5  19
HETATM   19  O1  UNL     1      25.278   2.018  53.242  1.00  0.00    -0.350 OA
BRANCH  19  20
HETATM   20  C11 UNL     1      26.302   1.742  54.141  1.00  0.00     0.196 C 
BRANCH  20  21
HETATM   21  C12 UNL     1      26.458   0.332  54.583  1.00  0.00     0.156 C 
BRANCH  21  22
HETATM   22  N2  UNL     1      27.723  -0.242  54.126  1.00  0.00    -0.348 N 
HETATM   23  C13 UNL     1      27.961  -1.226  53.249  1.00  0.00     0.111 A 
HETATM   24  C14 UNL     1      29.346  -1.393  53.165  1.00  0.00     0.135 A 
HETATM   25  N3  UNL     1      29.864  -0.483  54.011  1.00  0.00    -0.255 NA
HETATM   26  C15 UNL     1      28.888   0.222  54.600  1.00  0.00     0.209 A 
ENDBRANCH  21  22
ENDBRANCH  20  21
ENDBRANCH  19  20
ENDBRANCH   5  19
TORSDOF 10
ENDMDL
MODEL 6
REMARK VINA RESULT:      -6.3      2.793      5.104
REMARK  10 active torsions:
REMARK  status: ('A' for Active; 'I' for Inactive)
REMARK    1  A    between atoms: C2_2  and  C3_3 
REMARK    2  A    between atoms: C3_3  and  C4_4 
REMARK    3  A    between atoms: C4_4  and  N1_5 
REMARK    4  A    between atoms: C5_6  and  C6_7 
REMARK    5  A    between atoms: C10_11  and  O1_12 
REMARK    6  A    between atoms: O1_12  and  C11_13 
REMARK    7  A    between atoms: C11_13  and  C12_14 
REMARK    8  A    between atoms: C12_14  and  N2_15 
REMARK    9  A    between atoms: C17_21  and  C18_22 
REMARK   10  A    between atoms: C19_23  and  N4_24 
ROOT
HETATM    1  C6  UNL     1      25.832   3.735  49.552  1.00  0.00    -0.016 A 
HETATM    2  C7  UNL     1      24.622   3.654  48.903  1.00  0.00     0.013 A 
HETATM    3  C8  UNL     1      23.571   2.950  49.436  1.00  0.00     0.004 A 
HETATM    4  C9  UNL     1      23.806   2.340  50.647  1.00  0.00     0.037 A 
HETATM    5  C10 UNL     1      24.989   2.381  51.347  1.00  0.00     0.069 A 
HETATM    6  C16 UNL     1      26.038   3.112  50.766  1.00  0.00     0.049 A 
ENDROOT
BRANCH   1   7
HETATM    7  C5  UNL     1      26.941   4.475  48.983  1.00  0.00     0.122 C 
HETATM    8  N1  UNL     1      27.356   5.662  48.767  1.00  0.00    -0.289 NA
BRANCH   8   9
HETATM    9  C4  UNL     1      26.584   6.769  49.160  1.00  0.00     0.159 C 
BRANCH   9  10
HETATM   10  C3  UNL     1      25.950   7.650  49.943  1.00  0.00     0.009 C 
BRANCH  10  11
HETATM   11  C2  UNL     1      24.569   7.151  50.078  1.00  0.00    -0.064 C 
HETATM   12  C1  UNL     1      23.410   7.173  49.148  1.00  0.00     0.048 C 
HETATM   13  C17 UNL     1      24.135   6.555  51.176  1.00  0.00     0.007 C 
BRANCH  13  14
HETATM   14  C18 UNL     1      22.774   6.061  51.324  1.00  0.00     0.012 C 
HETATM   15  C19 UNL     1      22.499   5.283  52.350  1.00  0.00     0.054 C 
BRANCH  15  16
HETATM   16  N4  UNL     1      23.695   5.132  53.080  1.00  0.00    -0.312 NA
HETATM   17  H21 UNL     1      24.754   5.092  53.204  1.00  0.00     0.123 HD
HETATM   18  H22 UNL     1      24.700   5.178  52.740  1.00  0.00     0.123 HD
ENDBRANCH  15  16
ENDBRANCH  13  14
ENDBRANCH  10  11
ENDBRANCH   9  10
ENDBRANCH   8   9
ENDBRANCH   1   7
BRANCH   5  19
HETATM   19  O1  UNL     1      25.351   1.827  52.540  1.00  0.00    -0.350 OA
BRANCH  19  20
HETATM   20  C11 UNL     1      24.748   0.772  53.214  1.00  0.00     0.196 C 
BRANCH  20  21
HETATM   21  C12 UNL     1      25.442  -0.540  53.186  1.00  0.00     0.156 C 
BRANCH  21  22
HETATM   22  N2  UNL     1      26.797  -0.447  53.728  1.00  0.00    -0.348 N 
HETATM   23  C13 UNL     1      27.264   0.238  54.781  1.00  0.00     0.111 A 
HETATM   24  C14 UNL     1      28.636  -0.012  54.874  1.00  0.00     0.135 A 
HETATM   25  N3  UNL     1      28.913  -0.846  53.854  1.00  0.00    -0.255 NA
HETATM   26  C15 UNL     1      27.805  -1.117  53.152  1.00  0.00     0.209 A 
ENDBRANCH  21  22
ENDBRANCH  20  21
ENDBRANCH  19  20
ENDBRANCH   5  19
TORSDOF 10
ENDMDL
MODEL 7
REMARK VINA RESULT:      -6.3      2.148      4.224
REMARK  10 active torsions:
REMARK  status: ('A' for Active; 'I' for Inactive)
REMARK    1  A    between atoms: C2_2  and  C3_3 
REMARK    2  A    between atoms: C3_3  and  C4_4 
REMARK    3  A    between atoms: C4_4  and  N1_5 
REMARK    4  A    between atoms: C5_6  and  C6_7 
REMARK    5  A    between atoms: C10_11  and  O1_12 
REMARK    6  A    between atoms: O1_12  and  C11_13 
REMARK    7  A    between atoms: C11_13  and  C12_14 
REMARK    8  A    between atoms: C12_14  and  N2_15 
REMARK    9  A    between atoms: C17_21  and  C18_22 
REMARK   10  A    between atoms: C19_23  and  N4_24 
ROOT
HETATM    1  C6  UNL     1      21.822   2.984  51.599  1.00  0.00    -0.016 A 
HETATM    2  C7  UNL     1      21.171   2.607  50.447  1.00  0.00     0.013 A 
HETATM    3  C8  UNL     1      21.090   1.289  50.072  1.00  0.00     0.004 A 
HETATM    4  C9  UNL     1      21.694   0.384  50.914  1.00  0.00     0.037 A 
HETATM    5  C10 UNL     1      22.359   0.693  52.077  1.00  0.00     0.069 A 
HETATM    6  C16 UNL     1      22.419   2.053  52.423  1.00  0.00     0.049 A 
ENDROOT
BRANCH   1   7
HETATM    7  C5  UNL     1      21.910   4.378  51.988  1.00  0.00     0.122 C 
HETATM    8  N1  UNL     1      22.490   5.474  51.689  1.00  0.00    -0.289 NA
BRANCH   8   9
HETATM    9  C4  UNL     1      23.406   5.527  50.625  1.00  0.00     0.159 C 
BRANCH   9  10
HETATM   10  C3  UNL     1      23.907   5.438  49.387  1.00  0.00     0.009 C 
BRANCH  10  11
HETATM   11  C2  UNL     1      25.166   4.680  49.514  1.00  0.00    -0.064 C 
HETATM   12  C1  UNL     1      26.536   4.938  48.997  1.00  0.00     0.048 C 
HETATM   13  C17 UNL     1      25.243   3.538  50.177  1.00  0.00     0.007 C 
BRANCH  13  14
HETATM   14  C18 UNL     1      26.477   2.779  50.306  1.00  0.00     0.012 C 
HETATM   15  C19 UNL     1      26.871   2.425  51.512  1.00  0.00     0.054 C 
BRANCH  15  16
HETATM   16  N4  UNL     1      25.909   2.919  52.416  1.00  0.00    -0.312 NA
HETATM   17  H21 UNL     1      24.931   3.216  52.721  1.00  0.00     0.123 HD
HETATM   18  H22 UNL     1      24.869   3.075  52.272  1.00  0.00     0.123 HD
ENDBRANCH  15  16
ENDBRANCH  13  14
ENDBRANCH  10  11
ENDBRANCH   9  10
ENDBRANCH   8   9
ENDBRANCH   1   7
BRANCH   5  19
HETATM   19  O1  UNL     1      22.996  -0.096  52.990  1.00  0.00    -0.350 OA
BRANCH  19  20
HETATM   20  C11 UNL     1      24.245   0.097  53.567  1.00  0.00     0.196 C 
BRANCH  20  21
HETATM   21  C12 UNL     1      25.320  -0.860  53.199  1.00  0.00     0.156 C 
BRANCH  21  22
HETATM   22  N2  UNL     1      26.621  -0.436  53.713  1.00  0.00    -0.348 N 
HETATM   23  C13 UNL     1      27.857  -0.706  53.272  1.00  0.00     0.111 A 
HETATM   24  C14 UNL     1      28.761  -0.058  54.119  1.00  0.00     0.135 A 
HETATM   25  N3  UNL     1      27.999   0.572  55.033  1.00  0.00    -0.255 NA
HETATM   26  C15 UNL     1      26.699   0.349  54.797  1.00  0.00     0.209 A 
ENDBRANCH  21  22
ENDBRANCH  20  21
ENDBRANCH  19  20
ENDBRANCH   5  19
TORSDOF 10
ENDMDL
MODEL 8
REMARK VINA RESULT:      -6.2      1.921      4.462
REMARK  10 active torsions:
REMARK  status: ('A' for Active; 'I' for Inactive)
REMARK    1  A    between atoms: C2_2  and  C3_3 
REMARK    2  A    between atoms: C3_3  and  C4_4 
REMARK    3  A    between atoms: C4_4  and  N1_5 
REMARK    4  A    between atoms: C5_6  and  C6_7 
REMARK    5  A    between atoms: C10_11  and  O1_12 
REMARK    6  A    between atoms: O1_12  and  C11_13 
REMARK    7  A    between atoms: C11_13  and  C12_14 
REMARK    8  A    between atoms: C12_14  and  N2_15 
REMARK    9  A    between atoms: C17_21  and  C18_22 
REMARK   10  A    between atoms: C19_23  and  N4_24 
ROOT
HETATM    1  C6  UNL     1      21.291   0.164  52.051  1.00  0.00    -0.016 A 
HETATM    2  C7  UNL     1      20.251  -0.026  52.932  1.00  0.00     0.013 A 
HETATM    3  C8  UNL     1      20.476  -0.388  54.237  1.00  0.00     0.004 A 
HETATM    4  C9  UNL     1      21.794  -0.545  54.600  1.00  0.00     0.037 A 
HETATM    5  C10 UNL     1      22.879  -0.371  53.772  1.00  0.00     0.069 A 
HETATM    6  C16 UNL     1      22.603  -0.001  52.446  1.00  0.00     0.049 A 
ENDROOT
BRANCH   1   7
HETATM    7  C5  UNL     1      21.047   0.541  50.673  1.00  0.00     0.122 C 
HETATM    8  N1  UNL     1      21.064   1.543  49.884  1.00  0.00    -0.289 NA
BRANCH   8   9
HETATM    9  C4  UNL     1      21.424   2.816  50.357  1.00  0.00     0.159 C 
BRANCH   9  10
HETATM   10  C3  UNL     1      21.851   3.780  51.181  1.00  0.00     0.009 C 
BRANCH  10  11
HETATM   11  C2  UNL     1      23.252   3.449  51.500  1.00  0.00    -0.064 C 
HETATM   12  C1  UNL     1      23.974   3.329  52.794  1.00  0.00     0.048 C 
HETATM   13  C17 UNL     1      24.150   3.190  50.564  1.00  0.00     0.007 C 
BRANCH  13  14
HETATM   14  C18 UNL     1      25.536   2.865  50.865  1.00  0.00     0.012 C 
HETATM   15  C19 UNL     1      26.483   3.457  50.168  1.00  0.00     0.054 C 
BRANCH  15  16
HETATM   16  N4  UNL     1      25.840   4.311  49.249  1.00  0.00    -0.312 NA
HETATM   17  H21 UNL     1      25.028   4.891  48.874  1.00  0.00     0.123 HD
HETATM   18  H22 UNL     1      24.857   4.708  49.277  1.00  0.00     0.123 HD
ENDBRANCH  15  16
ENDBRANCH  13  14
ENDBRANCH  10  11
ENDBRANCH   9  10
ENDBRANCH   8   9
ENDBRANCH   1   7
BRANCH   5  19
HETATM   19  O1  UNL     1      24.218  -0.494  54.001  1.00  0.00    -0.350 OA
BRANCH  19  20
HETATM   20  C11 UNL     1      25.267  -0.177  53.146  1.00  0.00     0.196 C 
BRANCH  20  21
HETATM   21  C12 UNL     1      26.604  -0.735  53.473  1.00  0.00     0.156 C 
BRANCH  21  22
HETATM   22  N2  UNL     1      27.563   0.318  53.804  1.00  0.00    -0.348 N 
HETATM   23  C13 UNL     1      28.834   0.233  54.221  1.00  0.00     0.111 A 
HETATM   24  C14 UNL     1      29.310   1.536  54.397  1.00  0.00     0.135 A 
HETATM   25  N3  UNL     1      28.278   2.336  54.070  1.00  0.00    -0.255 NA
HETATM   26  C15 UNL     1      27.213   1.608  53.709  1.00  0.00     0.209 A 
ENDBRANCH  21  22
ENDBRANCH  20  21
ENDBRANCH  19  20
ENDBRANCH   5  19
TORSDOF 10
ENDMDL
MODEL 9
REMARK VINA RESULT:      -6.2      2.197      4.259
REMARK  10 active torsions:
REMARK  status: ('A' for Active; 'I' for Inactive)
REMARK    1  A    between atoms: C2_2  and  C3_3 
REMARK    2  A    between atoms: C3_3  and  C4_4 
REMARK    3  A    between atoms: C4_4  and  N1_5 
REMARK    4  A    between atoms: C5_6  and  C6_7 
REMARK    5  A    between atoms: C10_11  and  O1_12 
REMARK    6  A    between atoms: O1_12  and  C11_13 
REMARK    7  A    between atoms: C11_13  and  C12_14 
REMARK    8  A    between atoms: C12_14  and  N2_15 
REMARK    9  A    between atoms: C17_21  and  C18_22 
REMARK   10  A    between atoms: C19_23  and  N4_24 
ROOT
HETATM    1  C6  UNL     1      24.021   3.032  49.649  1.00  0.00    -0.016 A 
HETATM    2  C7  UNL     1      23.116   2.933  48.618  1.00  0.00     0.013 A 
HETATM    3  C8  UNL     1      22.051   2.069  48.681  1.00  0.00     0.004 A 
HETATM    4  C9  UNL     1      21.950   1.320  49.831  1.00  0.00     0.037 A 
HETATM    5  C10 UNL     1      22.818   1.370  50.897  1.00  0.00     0.069 A 
HETATM    6  C16 UNL     1      23.892   2.267  50.791  1.00  0.00     0.049 A 
ENDROOT
BRANCH   1   7
HETATM    7  C5  UNL     1      25.147   3.942  49.575  1.00  0.00     0.122 C 
HETATM    8  N1  UNL     1      25.501   5.133  49.864  1.00  0.00    -0.289 NA
BRANCH   8   9
HETATM    9  C4  UNL     1      24.597   6.016  50.479  1.00  0.00     0.159 C 
BRANCH   9  10
HETATM   10  C3  UNL     1      23.662   6.482  51.315  1.00  0.00     0.009 C 
BRANCH  10  11
HETATM   11  C2  UNL     1      22.368   6.041  50.762  1.00  0.00    -0.064 C 
HETATM   12  C1  UNL     1      21.622   6.443  49.541  1.00  0.00     0.048 C 
HETATM   13  C17 UNL     1      21.617   5.128  51.356  1.00  0.00     0.007 C 
BRANCH  13  14
HETATM   14  C18 UNL     1      20.337   4.687  50.823  1.00  0.00     0.012 C 
HETATM   15  C19 UNL     1      19.667   3.767  51.485  1.00  0.00     0.054 C 
BRANCH  15  16
HETATM   16  N4  UNL     1      20.438   3.439  52.619  1.00  0.00    -0.312 NA
HETATM   17  H21 UNL     1      20.940   3.641  53.538  1.00  0.00     0.123 HD
HETATM   18  H22 UNL     1      20.755   4.061  53.418  1.00  0.00     0.123 HD
ENDBRANCH  15  16
ENDBRANCH  13  14
ENDBRANCH  10  11
ENDBRANCH   9  10
ENDBRANCH   8   9
ENDBRANCH   1   7
BRANCH   5  19
HETATM   19  O1  UNL     1      22.834   0.690  52.080  1.00  0.00    -0.350 OA
BRANCH  19  20
HETATM   20  C11 UNL     1      23.723   0.832  53.138  1.00  0.00     0.196 C 
BRANCH  20  21
HETATM   21  C12 UNL     1      24.238  -0.413  53.766  1.00  0.00     0.156 C 
BRANCH  21  22
HETATM   22  N2  UNL     1      25.690  -0.377  53.929  1.00  0.00    -0.348 N 
HETATM   23  C13 UNL     1      26.450   0.338  54.770  1.00  0.00     0.111 A 
HETATM   24  C14 UNL     1      27.785   0.005  54.521  1.00  0.00     0.135 A 
HETATM   25  N3  UNL     1      27.743  -0.904  53.529  1.00  0.00    -0.255 NA
HETATM   26  C15 UNL     1      26.477  -1.143  53.162  1.00  0.00     0.209 A 
ENDBRANCH  21  22
ENDBRANCH  20  21
ENDBRANCH  19  20
ENDBRANCH   5  19
TORSDOF 10
ENDMDL
