MODEL 1
REMARK VINA RESULT:      -7.8      0.000      0.000
REMARK  6 active torsions:
REMARK  status: ('A' for Active; 'I' for Inactive)
REMARK    1  A    between atoms: C2_2  and  C3_3 
REMARK    2  A    between atoms: C3_3  and  C4_4 
REMARK    3  A    between atoms: C4_4  and  O1_23 
REMARK    4  A    between atoms: C5_5  and  C6_6 
REMARK    5  A    between atoms: C9_11  and  N3_12 
REMARK    6  A    between atoms: N3_12  and  C10_13 
ROOT
HETATM    1  C6  UNL     1      27.563   1.493  52.914  1.00  0.00     0.030 A 
HETATM    2  C7  UNL     1      28.583   2.218  53.493  1.00  0.00     0.133 A 
HETATM    3  N1  UNL     1      29.166   1.688  54.606  1.00  0.00    -0.253 NA
HETATM    4  C8  UNL     1      28.755   0.505  55.108  1.00  0.00     0.234 A 
HETATM    5  N2  UNL     1      27.745  -0.203  54.527  1.00  0.00    -0.224 NA
HETATM    6  C9  UNL     1      27.132   0.282  53.417  1.00  0.00     0.142 A 
ENDROOT
BRANCH   6   7
HETATM    7  N3  UNL     1      26.084  -0.486  52.838  1.00  0.00    -0.324 N 
HETATM    8  H9  UNL     1      26.227  -1.006  51.949  1.00  0.00     0.169 HD
BRANCH   7   9
HETATM    9  C10 UNL     1      24.785  -0.604  53.404  1.00  0.00     0.147 A 
HETATM   10  C11 UNL     1      24.411  -1.043  54.659  1.00  0.00     0.167 A 
HETATM   11  N4  UNL     1      23.097  -1.058  54.951  1.00  0.00    -0.255 NA
HETATM   12  C12 UNL     1      22.167  -0.662  54.061  1.00  0.00     0.085 A 
HETATM   13  C13 UNL     1      20.830  -0.694  54.400  1.00  0.00     0.034 A 
HETATM   14  C17 UNL     1      22.523  -0.220  52.798  1.00  0.00     0.087 A 
HETATM   15  C14 UNL     1      19.852  -0.292  53.505  1.00  0.00     0.002 A 
HETATM   16  C15 UNL     1      20.205   0.149  52.245  1.00  0.00     0.002 A 
HETATM   17  C16 UNL     1      21.548   0.179  51.908  1.00  0.00     0.034 A 
HETATM   18  N5  UNL     1      23.849  -0.209  52.519  1.00  0.00    -0.228 NA
ENDBRANCH   7   9
ENDBRANCH   6   7
BRANCH   1  19
HETATM   19  C5  UNL     1      26.905   2.015  51.722  1.00  0.00     0.049 C 
HETATM   20  C4  UNL     1      25.759   2.667  51.592  1.00  0.00     0.050 C 
BRANCH  20  21
HETATM   21  C3  UNL     1      25.169   3.163  50.322  1.00  0.00     0.090 C 
BRANCH  21  22
HETATM   22  C2  UNL     1      26.192   3.751  49.427  1.00  0.00    -0.030 C 
HETATM   23  C1  UNL     1      26.185   5.062  49.181  1.00  0.00     0.007 C 
ENDBRANCH  21  22
ENDBRANCH  20  21
BRANCH  20  24
HETATM   24  O1  UNL     1      24.969   2.958  52.693  1.00  0.00    -0.360 OA
HETATM   25  C18 UNL     1      23.693   3.526  52.655  1.00  0.00     0.209 C 
ENDBRANCH  20  24
ENDBRANCH   1  19
TORSDOF 6
ENDMDL
MODEL 2
REMARK VINA RESULT:      -7.8      2.102      5.420
REMARK  6 active torsions:
REMARK  status: ('A' for Active; 'I' for Inactive)
REMARK    1  A    between atoms: C2_2  and  C3_3 
REMARK    2  A    between atoms: C3_3  and  C4_4 
REMARK    3  A    between atoms: C4_4  and  O1_23 
REMARK    4  A    between atoms: C5_5  and  C6_6 
REMARK    5  A    between atoms: C9_11  and  N3_12 
REMARK    6  A    between atoms: N3_12  and  C10_13 
ROOT
HETATM    1  C6  UNL     1      24.270   2.645  50.955  1.00  0.00     0.030 A 
HETATM    2  C7  UNL     1      23.091   2.199  50.395  1.00  0.00     0.133 A 
HETATM    3  N1  UNL     1      22.269   1.457  51.190  1.00  0.00    -0.253 NA
HETATM    4  C8  UNL     1      22.604   1.177  52.466  1.00  0.00     0.234 A 
HETATM    5  N2  UNL     1      23.773   1.623  53.009  1.00  0.00    -0.224 NA
HETATM    6  C9  UNL     1      24.626   2.367  52.259  1.00  0.00     0.142 A 
ENDROOT
BRANCH   6   7
HETATM    7  N3  UNL     1      25.834   2.815  52.861  1.00  0.00    -0.324 N 
HETATM    8  H9  UNL     1      25.960   3.810  53.138  1.00  0.00     0.169 HD
BRANCH   7   9
HETATM    9  C10 UNL     1      26.946   1.970  53.126  1.00  0.00     0.147 A 
HETATM   10  C11 UNL     1      28.198   2.293  53.614  1.00  0.00     0.167 A 
HETATM   11  N4  UNL     1      29.083   1.292  53.778  1.00  0.00    -0.255 NA
HETATM   12  C12 UNL     1      28.774   0.015  53.482  1.00  0.00     0.085 A 
HETATM   13  C13 UNL     1      29.711  -0.981  53.664  1.00  0.00     0.034 A 
HETATM   14  C17 UNL     1      27.526  -0.327  52.992  1.00  0.00     0.087 A 
HETATM   15  C14 UNL     1      29.421  -2.303  53.368  1.00  0.00     0.002 A 
HETATM   16  C15 UNL     1      28.176  -2.646  52.880  1.00  0.00     0.002 A 
HETATM   17  C16 UNL     1      27.238  -1.644  52.698  1.00  0.00     0.034 A 
HETATM   18  N5  UNL     1      26.645   0.690  52.833  1.00  0.00    -0.228 NA
ENDBRANCH   7   9
ENDBRANCH   6   7
BRANCH   1  19
HETATM   19  C5  UNL     1      25.185   3.444  50.148  1.00  0.00     0.049 C 
HETATM   20  C4  UNL     1      25.169   4.737  49.863  1.00  0.00     0.050 C 
BRANCH  20  21
HETATM   21  C3  UNL     1      26.156   5.464  49.023  1.00  0.00     0.090 C 
BRANCH  21  22
HETATM   22  C2  UNL     1      27.422   4.710  48.876  1.00  0.00    -0.030 C 
HETATM   23  C1  UNL     1      28.465   5.276  48.266  1.00  0.00     0.007 C 
ENDBRANCH  21  22
ENDBRANCH  20  21
BRANCH  20  24
HETATM   24  O1  UNL     1      24.174   5.569  50.351  1.00  0.00    -0.360 OA
HETATM   25  C18 UNL     1      24.375   6.755  51.061  1.00  0.00     0.209 C 
ENDBRANCH  20  24
ENDBRANCH   1  19
TORSDOF 6
ENDMDL
MODEL 3
REMARK VINA RESULT:      -7.8      2.178      6.395
REMARK  6 active torsions:
REMARK  status: ('A' for Active; 'I' for Inactive)
REMARK    1  A    between atoms: C2_2  and  C3_3 
REMARK    2  A    between atoms: C3_3  and  C4_4 
REMARK    3  A    between atoms: C4_4  and  O1_23 
REMARK    4  A    between atoms: C5_5  and  C6_6 
REMARK    5  A    between atoms: C9_11  and  N3_12 
REMARK    6  A    between atoms: N3_12  and  C10_13 
ROOT
HETATM    1  C6  UNL     1      26.473   0.737  53.324  1.00  0.00     0.030 A 
HETATM    2  C7  UNL     1      27.164   0.534  54.501  1.00  0.00     0.133 A 
HETATM    3  N1  UNL     1      28.304   1.261  54.683  1.00  0.00    -0.253 NA
HETATM    4  C8  UNL     1      28.726   2.136  53.747  1.00  0.00     0.234 A 
HETATM    5  N2  UNL     1      28.035   2.327  52.587  1.00  0.00    -0.224 NA
HETATM    6  C9  UNL     1      26.894   1.629  52.358  1.00  0.00     0.142 A 
ENDROOT
BRANCH   6   7
HETATM    7  N3  UNL     1      26.199   1.856  51.138  1.00  0.00    -0.324 N 
HETATM    8  H9  UNL     1      25.813   1.065  50.584  1.00  0.00     0.169 HD
BRANCH   7   9
HETATM    9  C10 UNL     1      25.979   3.146  50.582  1.00  0.00     0.147 A 
HETATM   10  C11 UNL     1      24.880   3.975  50.696  1.00  0.00     0.167 A 
HETATM   11  N4  UNL     1      24.923   5.163  50.064  1.00  0.00    -0.255 NA
HETATM   12  C12 UNL     1      25.994   5.544  49.342  1.00  0.00     0.085 A 
HETATM   13  C13 UNL     1      25.998   6.770  48.708  1.00  0.00     0.034 A 
HETATM   14  C17 UNL     1      27.104   4.727  49.215  1.00  0.00     0.087 A 
HETATM   15  C14 UNL     1      27.085   7.188  47.959  1.00  0.00     0.002 A 
HETATM   16  C15 UNL     1      28.193   6.374  47.832  1.00  0.00     0.002 A 
HETATM   17  C16 UNL     1      28.186   5.144  48.468  1.00  0.00     0.034 A 
HETATM   18  N5  UNL     1      27.046   3.535  49.858  1.00  0.00    -0.228 NA
ENDBRANCH   7   9
ENDBRANCH   6   7
BRANCH   1  19
HETATM   19  C5  UNL     1      25.248  -0.015  53.079  1.00  0.00     0.049 C 
HETATM   20  C4  UNL     1      23.993   0.400  52.988  1.00  0.00     0.050 C 
BRANCH  20  21
HETATM   21  C3  UNL     1      22.802  -0.452  52.734  1.00  0.00     0.090 C 
BRANCH  21  22
HETATM   22  C2  UNL     1      22.329  -1.127  53.964  1.00  0.00    -0.030 C 
HETATM   23  C1  UNL     1      21.315  -0.608  54.658  1.00  0.00     0.007 C 
ENDBRANCH  21  22
ENDBRANCH  20  21
BRANCH  20  24
HETATM   24  O1  UNL     1      23.665   1.739  53.132  1.00  0.00    -0.360 OA
HETATM   25  C18 UNL     1      22.535   2.364  52.602  1.00  0.00     0.209 C 
ENDBRANCH  20  24
ENDBRANCH   1  19
TORSDOF 6
ENDMDL
MODEL 4
REMARK VINA RESULT:      -7.7      2.279      5.998
REMARK  6 active torsions:
REMARK  status: ('A' for Active; 'I' for Inactive)
REMARK    1  A    between atoms: C2_2  and  C3_3 
REMARK    2  A    between atoms: C3_3  and  C4_4 
REMARK    3  A    between atoms: C4_4  and  O1_23 
REMARK    4  A    between atoms: C5_5  and  C6_6 
REMARK    5  A    between atoms: C9_11  and  N3_12 
REMARK    6  A    between atoms: N3_12  and  C10_13 
ROOT
HETATM    1  C6  UNL     1      21.771  -0.451  52.871  1.00  0.00     0.030 A 
HETATM    2  C7  UNL     1      20.895  -1.226  53.603  1.00  0.00     0.133 A 
HETATM    3  N1  UNL     1      21.319  -1.651  54.827  1.00  0.00    -0.253 NA
HETATM    4  C8  UNL     1      22.542  -1.321  55.292  1.00  0.00     0.234 A 
HETATM    5  N2  UNL     1      23.398  -0.554  54.559  1.00  0.00    -0.224 NA
HETATM    6  C9  UNL     1      23.024  -0.106  53.334  1.00  0.00     0.142 A 
ENDROOT
BRANCH   6   7
HETATM    7  N3  UNL     1      23.945   0.692  52.600  1.00  0.00    -0.324 N 
HETATM    8  H9  UNL     1      23.667   1.151  51.709  1.00  0.00     0.169 HD
BRANCH   7   9
HETATM    9  C10 UNL     1      25.288   0.926  53.005  1.00  0.00     0.147 A 
HETATM   10  C11 UNL     1      25.863   2.072  53.517  1.00  0.00     0.167 A 
HETATM   11  N4  UNL     1      27.173   2.031  53.826  1.00  0.00    -0.255 NA
HETATM   12  C12 UNL     1      27.910   0.918  53.647  1.00  0.00     0.085 A 
HETATM   13  C13 UNL     1      29.250   0.917  53.976  1.00  0.00     0.034 A 
HETATM   14  C17 UNL     1      27.350  -0.240  53.135  1.00  0.00     0.087 A 
HETATM   15  C14 UNL     1      30.032  -0.213  53.803  1.00  0.00     0.002 A 
HETATM   16  C15 UNL     1      29.475  -1.369  53.293  1.00  0.00     0.002 A 
HETATM   17  C16 UNL     1      28.130  -1.365  52.964  1.00  0.00     0.034 A 
HETATM   18  N5  UNL     1      26.031  -0.184  52.830  1.00  0.00    -0.228 NA
ENDBRANCH   7   9
ENDBRANCH   6   7
BRANCH   1  19
HETATM   19  C5  UNL     1      21.367   0.030  51.555  1.00  0.00     0.049 C 
HETATM   20  C4  UNL     1      20.670   1.103  51.212  1.00  0.00     0.050 C 
BRANCH  20  21
HETATM   21  C3  UNL     1      20.308   1.510  49.830  1.00  0.00     0.090 C 
BRANCH  21  22
HETATM   22  C2  UNL     1      21.376   1.186  48.857  1.00  0.00    -0.030 C 
HETATM   23  C1  UNL     1      22.377   2.045  48.659  1.00  0.00     0.007 C 
ENDBRANCH  21  22
ENDBRANCH  20  21
BRANCH  20  24
HETATM   24  O1  UNL     1      20.193   1.986  52.167  1.00  0.00    -0.360 OA
HETATM   25  C18 UNL     1      20.607   3.309  52.336  1.00  0.00     0.209 C 
ENDBRANCH  20  24
ENDBRANCH   1  19
TORSDOF 6
ENDMDL
MODEL 5
REMARK VINA RESULT:      -7.5      2.386      4.504
REMARK  6 active torsions:
REMARK  status: ('A' for Active; 'I' for Inactive)
REMARK    1  A    between atoms: C2_2  and  C3_3 
REMARK    2  A    between atoms: C3_3  and  C4_4 
REMARK    3  A    between atoms: C4_4  and  O1_23 
REMARK    4  A    between atoms: C5_5  and  C6_6 
REMARK    5  A    between atoms: C9_11  and  N3_12 
REMARK    6  A    between atoms: N3_12  and  C10_13 
ROOT
HETATM    1  C6  UNL     1      25.950   2.947  50.772  1.00  0.00     0.030 A 
HETATM    2  C7  UNL     1      26.599   3.249  49.593  1.00  0.00     0.133 A 
HETATM    3  N1  UNL     1      26.254   4.416  48.976  1.00  0.00    -0.253 NA
HETATM    4  C8  UNL     1      25.318   5.230  49.507  1.00  0.00     0.234 A 
HETATM    5  N2  UNL     1      24.683   4.921  50.673  1.00  0.00    -0.224 NA
HETATM    6  C9  UNL     1      24.991   3.772  51.326  1.00  0.00     0.142 A 
ENDROOT
BRANCH   6   7
HETATM    7  N3  UNL     1      24.309   3.484  52.540  1.00  0.00    -0.324 N 
HETATM    8  H9  UNL     1      24.665   3.833  53.452  1.00  0.00     0.169 HD
BRANCH   7   9
HETATM    9  C10 UNL     1      23.115   2.715  52.614  1.00  0.00     0.147 A 
HETATM   10  C11 UNL     1      21.847   3.016  52.158  1.00  0.00     0.167 A 
HETATM   11  N4  UNL     1      20.877   2.103  52.354  1.00  0.00    -0.255 NA
HETATM   12  C12 UNL     1      21.120   0.932  52.971  1.00  0.00     0.085 A 
HETATM   13  C13 UNL     1      20.098   0.023  53.153  1.00  0.00     0.034 A 
HETATM   14  C17 UNL     1      22.384   0.612  53.436  1.00  0.00     0.087 A 
HETATM   15  C14 UNL     1      20.318  -1.190  53.785  1.00  0.00     0.002 A 
HETATM   16  C15 UNL     1      21.579  -1.510  54.249  1.00  0.00     0.002 A 
HETATM   17  C16 UNL     1      22.603  -0.596  54.065  1.00  0.00     0.034 A 
HETATM   18  N5  UNL     1      23.350   1.540  53.230  1.00  0.00    -0.228 NA
ENDBRANCH   7   9
ENDBRANCH   6   7
BRANCH   1  19
HETATM   19  C5  UNL     1      26.282   1.712  51.472  1.00  0.00     0.049 C 
HETATM   20  C4  UNL     1      27.254   1.450  52.332  1.00  0.00     0.050 C 
BRANCH  20  21
HETATM   21  C3  UNL     1      27.512   0.146  52.997  1.00  0.00     0.090 C 
BRANCH  21  22
HETATM   22  C2  UNL     1      26.482  -0.863  52.659  1.00  0.00    -0.030 C 
HETATM   23  C1  UNL     1      26.851  -2.067  52.219  1.00  0.00     0.007 C 
ENDBRANCH  21  22
ENDBRANCH  20  21
BRANCH  20  24
HETATM   24  O1  UNL     1      28.166   2.424  52.706  1.00  0.00    -0.360 OA
HETATM   25  C18 UNL     1      28.958   2.404  53.856  1.00  0.00     0.209 C 
ENDBRANCH  20  24
ENDBRANCH   1  19
TORSDOF 6
ENDMDL
MODEL 6
REMARK VINA RESULT:      -7.5      2.321      6.242
REMARK  6 active torsions:
REMARK  status: ('A' for Active; 'I' for Inactive)
REMARK    1  A    between atoms: C2_2  and  C3_3 
REMARK    2  A    between atoms: C3_3  and  C4_4 
REMARK    3  A    between atoms: C4_4  and  O1_23 
REMARK    4  A    between atoms: C5_5  and  C6_6 
REMARK    5  A    between atoms: C9_11  and  N3_12 
REMARK    6  A    between atoms: N3_12  and  C10_13 
ROOT
HETATM    1  C6  UNL     1      23.163   1.894  51.255  1.00  0.00     0.030 A 
HETATM    2  C7  UNL     1      22.693   2.145  49.982  1.00  0.00     0.133 A 
HETATM    3  N1  UNL     1      23.454   2.952  49.189  1.00  0.00    -0.253 NA
HETATM    4  C8  UNL     1      24.613   3.476  49.640  1.00  0.00     0.234 A 
HETATM    5  N2  UNL     1      25.066   3.221  50.900  1.00  0.00    -0.224 NA
HETATM    6  C9  UNL     1      24.347   2.423  51.729  1.00  0.00     0.142 A 
ENDROOT
BRANCH   6   7
HETATM    7  N3  UNL     1      24.853   2.178  53.035  1.00  0.00    -0.324 N 
HETATM    8  H9  UNL     1      24.308   2.444  53.881  1.00  0.00     0.169 HD
BRANCH   7   9
HETATM    9  C10 UNL     1      26.112   1.570  53.295  1.00  0.00     0.147 A 
HETATM   10  C11 UNL     1      27.258   2.120  53.834  1.00  0.00     0.167 A 
HETATM   11  N4  UNL     1      28.329   1.318  53.978  1.00  0.00    -0.255 NA
HETATM   12  C12 UNL     1      28.300   0.022  53.614  1.00  0.00     0.085 A 
HETATM   13  C13 UNL     1      29.421  -0.766  53.778  1.00  0.00     0.034 A 
HETATM   14  C17 UNL     1      27.161  -0.547  53.071  1.00  0.00     0.087 A 
HETATM   15  C14 UNL     1      29.419  -2.102  53.412  1.00  0.00     0.002 A 
HETATM   16  C15 UNL     1      28.283  -2.671  52.871  1.00  0.00     0.002 A 
HETATM   17  C16 UNL     1      27.161  -1.878  52.708  1.00  0.00     0.034 A 
HETATM   18  N5  UNL     1      26.090   0.272  52.933  1.00  0.00    -0.228 NA
ENDBRANCH   7   9
ENDBRANCH   6   7
BRANCH   1  19
HETATM   19  C5  UNL     1      22.388   1.036  52.144  1.00  0.00     0.049 C 
HETATM   20  C4  UNL     1      21.228   1.253  52.745  1.00  0.00     0.050 C 
BRANCH  20  21
HETATM   21  C3  UNL     1      20.512   0.308  53.641  1.00  0.00     0.090 C 
BRANCH  21  22
HETATM   22  C2  UNL     1      21.425  -0.334  54.615  1.00  0.00    -0.030 C 
HETATM   23  C1  UNL     1      21.678  -1.641  54.528  1.00  0.00     0.007 C 
ENDBRANCH  21  22
ENDBRANCH  20  21
BRANCH  20  24
HETATM   24  O1  UNL     1      20.544   2.448  52.581  1.00  0.00    -0.360 OA
HETATM   25  C18 UNL     1      19.304   2.600  51.958  1.00  0.00     0.209 C 
ENDBRANCH  20  24
ENDBRANCH   1  19
TORSDOF 6
ENDMDL
MODEL 7
REMARK VINA RESULT:      -7.4      1.622      5.572
REMARK  6 active torsions:
REMARK  status: ('A' for Active; 'I' for Inactive)
REMARK    1  A    between atoms: C2_2  and  C3_3 
REMARK    2  A    between atoms: C3_3  and  C4_4 
REMARK    3  A    between atoms: C4_4  and  O1_23 
REMARK    4  A    between atoms: C5_5  and  C6_6 
REMARK    5  A    between atoms: C9_11  and  N3_12 
REMARK    6  A    between atoms: N3_12  and  C10_13 
ROOT
HETATM    1  C6  UNL     1      22.159   1.023  52.421  1.00  0.00     0.030 A 
HETATM    2  C7  UNL     1      20.937   1.587  52.723  1.00  0.00     0.133 A 
HETATM    3  N1  UNL     1      20.280   1.097  53.813  1.00  0.00    -0.253 NA
HETATM    4  C8  UNL     1      20.814   0.106  54.557  1.00  0.00     0.234 A 
HETATM    5  N2  UNL     1      22.023  -0.444  54.249  1.00  0.00    -0.224 NA
HETATM    6  C9  UNL     1      22.716   0.009  53.173  1.00  0.00     0.142 A 
ENDROOT
BRANCH   6   7
HETATM    7  N3  UNL     1      23.975  -0.588  52.884  1.00  0.00    -0.324 N 
HETATM    8  H9  UNL     1      24.038  -1.470  52.337  1.00  0.00     0.169 HD
BRANCH   7   9
HETATM    9  C10 UNL     1      25.221  -0.049  53.306  1.00  0.00     0.147 A 
HETATM   10  C11 UNL     1      25.495   1.164  53.906  1.00  0.00     0.167 A 
HETATM   11  N4  UNL     1      26.778   1.437  54.210  1.00  0.00    -0.255 NA
HETATM   12  C12 UNL     1      27.771   0.567  53.945  1.00  0.00     0.085 A 
HETATM   13  C13 UNL     1      29.073   0.885  54.272  1.00  0.00     0.034 A 
HETATM   14  C17 UNL     1      27.516  -0.653  53.343  1.00  0.00     0.087 A 
HETATM   15  C14 UNL     1      30.114   0.010  54.011  1.00  0.00     0.002 A 
HETATM   16  C15 UNL     1      29.861  -1.208  53.411  1.00  0.00     0.002 A 
HETATM   17  C16 UNL     1      28.554  -1.524  53.084  1.00  0.00     0.034 A 
HETATM   18  N5  UNL     1      26.220  -0.915  53.044  1.00  0.00    -0.228 NA
ENDBRANCH   7   9
ENDBRANCH   6   7
BRANCH   1  19
HETATM   19  C5  UNL     1      22.903   1.511  51.265  1.00  0.00     0.049 C 
HETATM   20  C4  UNL     1      23.559   2.647  51.087  1.00  0.00     0.050 C 
BRANCH  20  21
HETATM   21  C3  UNL     1      24.292   3.055  49.860  1.00  0.00     0.090 C 
BRANCH  21  22
HETATM   22  C2  UNL     1      25.703   3.403  50.146  1.00  0.00    -0.030 C 
HETATM   23  C1  UNL     1      26.522   2.485  50.663  1.00  0.00     0.007 C 
ENDBRANCH  21  22
ENDBRANCH  20  21
BRANCH  20  24
HETATM   24  O1  UNL     1      23.621   3.607  52.085  1.00  0.00    -0.360 OA
HETATM   25  C18 UNL     1      22.885   4.793  52.125  1.00  0.00     0.209 C 
ENDBRANCH  20  24
ENDBRANCH   1  19
TORSDOF 6
ENDMDL
MODEL 8
REMARK VINA RESULT:      -7.2      2.635      6.672
REMARK  6 active torsions:
REMARK  status: ('A' for Active; 'I' for Inactive)
REMARK    1  A    between atoms: C2_2  and  C3_3 
REMARK    2  A    between atoms: C3_3  and  C4_4 
REMARK    3  A    between atoms: C4_4  and  O1_23 
REMARK    4  A    between atoms: C5_5  and  C6_6 
REMARK    5  A    between atoms: C9_11  and  N3_12 
REMARK    6  A    between atoms: N3_12  and  C10_13 
ROOT
HETATM    1  C6  UNL     1      22.119   1.352  50.117  1.00  0.00     0.030 A 
HETATM    2  C7  UNL     1      21.487   0.866  48.991  1.00  0.00     0.133 A 
HETATM    3  N1  UNL     1      21.697   1.538  47.824  1.00  0.00    -0.253 NA
HETATM    4  C8  UNL     1      22.492   2.628  47.784  1.00  0.00     0.234 A 
HETATM    5  N2  UNL     1      23.111   3.099  48.903  1.00  0.00    -0.224 NA
HETATM    6  C9  UNL     1      22.934   2.465  50.090  1.00  0.00     0.142 A 
ENDROOT
BRANCH   6   7
HETATM    7  N3  UNL     1      23.598   2.985  51.236  1.00  0.00    -0.324 N 
HETATM    8  H9  UNL     1      23.125   3.657  51.872  1.00  0.00     0.169 HD
BRANCH   7   9
HETATM    9  C10 UNL     1      24.930   2.644  51.601  1.00  0.00     0.147 A 
HETATM   10  C11 UNL     1      26.122   2.991  50.997  1.00  0.00     0.167 A 
HETATM   11  N4  UNL     1      27.261   2.533  51.549  1.00  0.00    -0.255 NA
HETATM   12  C12 UNL     1      27.254   1.762  52.653  1.00  0.00     0.085 A 
HETATM   13  C13 UNL     1      28.444   1.312  53.187  1.00  0.00     0.034 A 
HETATM   14  C17 UNL     1      26.069   1.403  53.272  1.00  0.00     0.087 A 
HETATM   15  C14 UNL     1      28.467   0.517  54.322  1.00  0.00     0.002 A 
HETATM   16  C15 UNL     1      27.286   0.159  54.940  1.00  0.00     0.002 A 
HETATM   17  C16 UNL     1      26.094   0.612  54.402  1.00  0.00     0.034 A 
HETATM   18  N5  UNL     1      24.931   1.873  52.705  1.00  0.00    -0.228 NA
ENDBRANCH   7   9
ENDBRANCH   6   7
BRANCH   1  19
HETATM   19  C5  UNL     1      21.928   0.670  51.392  1.00  0.00     0.049 C 
HETATM   20  C4  UNL     1      21.012   0.853  52.331  1.00  0.00     0.050 C 
BRANCH  20  21
HETATM   21  C3  UNL     1      20.899   0.100  53.607  1.00  0.00     0.090 C 
BRANCH  21  22
HETATM   22  C2  UNL     1      22.094  -0.736  53.866  1.00  0.00    -0.030 C 
HETATM   23  C1  UNL     1      22.378  -1.122  55.111  1.00  0.00     0.007 C 
ENDBRANCH  21  22
ENDBRANCH  20  21
BRANCH  20  24
HETATM   24  O1  UNL     1      20.024   1.816  52.196  1.00  0.00    -0.360 OA
HETATM   25  C18 UNL     1      20.175   3.181  52.448  1.00  0.00     0.209 C 
ENDBRANCH  20  24
ENDBRANCH   1  19
TORSDOF 6
ENDMDL
MODEL 9
REMARK VINA RESULT:      -7.2      2.423      6.034
REMARK  6 active torsions:
REMARK  status: ('A' for Active; 'I' for Inactive)
REMARK    1  A    between atoms: C2_2  and  C3_3 
REMARK    2  A    between atoms: C3_3  and  C4_4 
REMARK    3  A    between atoms: C4_4  and  O1_23 
REMARK    4  A    between atoms: C5_5  and  C6_6 
REMARK    5  A    between atoms: C9_11  and  N3_12 
REMARK    6  A    between atoms: N3_12  and  C10_13 
ROOT
HETATM    1  C6  UNL     1      26.385   0.875  53.285  1.00  0.00     0.030 A 
HETATM    2  C7  UNL     1      27.138   0.643  54.418  1.00  0.00     0.133 A 
HETATM    3  N1  UNL     1      28.297   1.351  54.547  1.00  0.00    -0.253 NA
HETATM    4  C8  UNL     1      28.678   2.236  53.603  1.00  0.00     0.234 A 
HETATM    5  N2  UNL     1      27.926   2.457  52.488  1.00  0.00    -0.224 NA
HETATM    6  C9  UNL     1      26.763   1.778  52.312  1.00  0.00     0.142 A 
ENDROOT
BRANCH   6   7
HETATM    7  N3  UNL     1      26.005   2.036  51.137  1.00  0.00    -0.324 N 
HETATM    8  H9  UNL     1      25.403   1.301  50.713  1.00  0.00     0.169 HD
BRANCH   7   9
HETATM    9  C10 UNL     1      26.002   3.284  50.455  1.00  0.00     0.147 A 
HETATM   10  C11 UNL     1      26.764   3.698  49.380  1.00  0.00     0.167 A 
HETATM   11  N4  UNL     1      26.565   4.946  48.916  1.00  0.00    -0.255 NA
HETATM   12  C12 UNL     1      25.658   5.773  49.469  1.00  0.00     0.085 A 
HETATM   13  C13 UNL     1      25.485   7.045  48.963  1.00  0.00     0.034 A 
HETATM   14  C17 UNL     1      24.886   5.375  50.547  1.00  0.00     0.087 A 
HETATM   15  C14 UNL     1      24.559   7.917  49.512  1.00  0.00     0.002 A 
HETATM   16  C15 UNL     1      23.788   7.522  50.587  1.00  0.00     0.002 A 
HETATM   17  C16 UNL     1      23.964   6.245  51.092  1.00  0.00     0.034 A 
HETATM   18  N5  UNL     1      25.096   4.117  51.003  1.00  0.00    -0.228 NA
ENDBRANCH   7   9
ENDBRANCH   6   7
BRANCH   1  19
HETATM   19  C5  UNL     1      25.137   0.145  53.097  1.00  0.00     0.049 C 
HETATM   20  C4  UNL     1      23.888   0.583  53.044  1.00  0.00     0.050 C 
BRANCH  20  21
HETATM   21  C3  UNL     1      22.673  -0.249  52.848  1.00  0.00     0.090 C 
BRANCH  21  22
HETATM   22  C2  UNL     1      22.210  -0.864  54.113  1.00  0.00    -0.030 C 
HETATM   23  C1  UNL     1      21.055  -1.530  54.144  1.00  0.00     0.007 C 
ENDBRANCH  21  22
ENDBRANCH  20  21
BRANCH  20  24
HETATM   24  O1  UNL     1      23.592   1.931  53.176  1.00  0.00    -0.360 OA
HETATM   25  C18 UNL     1      22.544   2.603  52.542  1.00  0.00     0.209 C 
ENDBRANCH  20  24
ENDBRANCH   1  19
TORSDOF 6
ENDMDL
