MODEL 1
REMARK VINA RESULT:      -7.8      0.000      0.000
REMARK  2 active torsions:
REMARK  status: ('A' for Active; 'I' for Inactive)
REMARK    1  A    between atoms: C7_10  and  N3_11 
REMARK    2  A    between atoms: N3_11  and  C8_12 
ROOT
HETATM    1  C1  UNL     1      17.064   4.185  51.287  1.00  0.00     0.016 C 
HETATM    2  C2  UNL     1      18.540   3.769  51.368  1.00  0.00     0.030 C 
HETATM    3  C3  UNL     1      19.111   4.084  50.032  1.00  0.00     0.004 C 
HETATM    4  C4  UNL     1      20.155   4.860  49.867  1.00  0.00     0.139 C 
HETATM    5  O1  UNL     1      20.820   5.456  50.918  1.00  0.00    -0.316 OA
HETATM    6  C5  UNL     1      21.832   4.901  51.659  1.00  0.00     0.258 C 
HETATM    7  N1  UNL     1      22.968   4.348  51.524  1.00  0.00    -0.230 NA
HETATM    8  C6  UNL     1      23.658   4.091  50.330  1.00  0.00     0.231 C 
HETATM    9  N2  UNL     1      23.851   2.845  50.047  1.00  0.00    -0.257 NA
HETATM   10  C7  UNL     1      23.402   1.763  50.877  1.00  0.00     0.210 C 
HETATM   11  C14 UNL     1      22.009   1.394  50.440  1.00  0.00     0.077 C 
HETATM   12  C15 UNL     1      21.441   0.264  51.250  1.00  0.00     0.001 C 
HETATM   13  C16 UNL     1      20.312   0.533  51.926  1.00  0.00     0.130 C 
HETATM   14  O2  UNL     1      19.931   1.853  51.700  1.00  0.00    -0.363 OA
HETATM   15  C17 UNL     1      18.582   2.270  51.620  1.00  0.00     0.182 C 
ENDROOT
BRANCH  10  16
HETATM   16  N3  UNL     1      23.508   1.995  52.284  1.00  0.00    -0.367 N 
HETATM   17  H10 UNL     1      22.818   2.526  52.854  1.00  0.00     0.161 HD
BRANCH  16  18
HETATM   18  C8  UNL     1      24.637   1.468  52.971  1.00  0.00     0.031 A 
HETATM   19  C9  UNL     1      24.594   0.247  53.647  1.00  0.00     0.032 A 
HETATM   20  C10 UNL     1      25.664  -0.299  54.323  1.00  0.00     0.046 A 
HETATM   21  C11 UNL     1      26.860   0.388  54.345  1.00  0.00     0.138 A 
HETATM   22  F1  UNL     1      27.940  -0.108  54.998  1.00  0.00    -0.204 F 
HETATM   23  C12 UNL     1      26.962   1.615  53.687  1.00  0.00     0.074 A 
HETATM   24 CL1  UNL     1      28.488   2.487  53.719  1.00  0.00    -0.081 Cl
HETATM   25  C13 UNL     1      25.856   2.108  53.027  1.00  0.00     0.056 A 
ENDBRANCH  16  18
ENDBRANCH  10  16
TORSDOF 2
ENDMDL
MODEL 2
REMARK VINA RESULT:      -7.7      3.608      5.981
REMARK  2 active torsions:
REMARK  status: ('A' for Active; 'I' for Inactive)
REMARK    1  A    between atoms: C7_10  and  N3_11 
REMARK    2  A    between atoms: N3_11  and  C8_12 
ROOT
HETATM    1  C1  UNL     1      27.654   4.750  48.595  1.00  0.00     0.016 C 
HETATM    2  C2  UNL     1      26.302   4.387  49.227  1.00  0.00     0.030 C 
HETATM    3  C3  UNL     1      25.686   5.684  49.609  1.00  0.00     0.004 C 
HETATM    4  C4  UNL     1      24.499   6.061  49.194  1.00  0.00     0.139 C 
HETATM    5  O1  UNL     1      23.715   5.287  48.365  1.00  0.00    -0.316 OA
HETATM    6  C5  UNL     1      22.842   4.304  48.757  1.00  0.00     0.258 C 
HETATM    7  N1  UNL     1      21.852   4.111  49.532  1.00  0.00    -0.230 NA
HETATM    8  C6  UNL     1      21.242   5.039  50.388  1.00  0.00     0.231 C 
HETATM    9  N2  UNL     1      21.325   4.781  51.651  1.00  0.00    -0.257 NA
HETATM   10  C7  UNL     1      21.991   3.626  52.184  1.00  0.00     0.210 C 
HETATM   11  C14 UNL     1      23.435   3.991  52.414  1.00  0.00     0.077 C 
HETATM   12  C15 UNL     1      24.228   2.846  52.973  1.00  0.00     0.001 C 
HETATM   13  C16 UNL     1      25.267   2.431  52.231  1.00  0.00     0.130 C 
HETATM   14  O2  UNL     1      25.355   3.199  51.073  1.00  0.00    -0.363 OA
HETATM   15  C17 UNL     1      26.584   3.551  50.465  1.00  0.00     0.182 C 
ENDROOT
BRANCH  10  16
HETATM   16  N3  UNL     1      21.828   2.427  51.421  1.00  0.00    -0.367 N 
HETATM   17  H10 UNL     1      22.281   2.239  50.502  1.00  0.00     0.161 HD
BRANCH  16  18
HETATM   18  C8  UNL     1      20.987   1.406  51.942  1.00  0.00     0.031 A 
HETATM   19  C9  UNL     1      19.657   1.260  51.542  1.00  0.00     0.032 A 
HETATM   20  C10 UNL     1      18.808   0.285  52.021  1.00  0.00     0.046 A 
HETATM   21  C11 UNL     1      19.284  -0.611  52.955  1.00  0.00     0.138 A 
HETATM   22  F1  UNL     1      18.487  -1.588  53.456  1.00  0.00    -0.204 F 
HETATM   23  C12 UNL     1      20.606  -0.515  53.394  1.00  0.00     0.074 A 
HETATM   24 CL1  UNL     1      21.207  -1.659  54.584  1.00  0.00    -0.081 Cl
HETATM   25  C13 UNL     1      21.405   0.482  52.875  1.00  0.00     0.056 A 
ENDBRANCH  16  18
ENDBRANCH  10  16
TORSDOF 2
ENDMDL
MODEL 3
REMARK VINA RESULT:      -7.6      4.234      7.180
REMARK  2 active torsions:
REMARK  status: ('A' for Active; 'I' for Inactive)
REMARK    1  A    between atoms: C7_10  and  N3_11 
REMARK    2  A    between atoms: N3_11  and  C8_12 
ROOT
HETATM    1  C1  UNL     1      28.724  -0.798  53.688  1.00  0.00     0.016 C 
HETATM    2  C2  UNL     1      27.514  -0.073  53.083  1.00  0.00     0.030 C 
HETATM    3  C3  UNL     1      27.486   1.260  53.739  1.00  0.00     0.004 C 
HETATM    4  C4  UNL     1      27.501   2.388  53.068  1.00  0.00     0.139 C 
HETATM    5  O1  UNL     1      27.544   2.439  51.691  1.00  0.00    -0.316 OA
HETATM    6  C5  UNL     1      26.468   2.394  50.841  1.00  0.00     0.258 C 
HETATM    7  N1  UNL     1      25.356   2.970  50.622  1.00  0.00    -0.230 NA
HETATM    8  C6  UNL     1      24.791   4.039  51.333  1.00  0.00     0.231 C 
HETATM    9  N2  UNL     1      23.686   3.783  51.951  1.00  0.00    -0.257 NA
HETATM   10  C7  UNL     1      23.045   2.498  51.933  1.00  0.00     0.210 C 
HETATM   11  C14 UNL     1      23.589   1.696  53.086  1.00  0.00     0.077 C 
HETATM   12  C15 UNL     1      22.981   0.325  53.161  1.00  0.00     0.001 C 
HETATM   13  C16 UNL     1      23.837  -0.705  53.062  1.00  0.00     0.130 C 
HETATM   14  O2  UNL     1      25.134  -0.226  52.906  1.00  0.00    -0.363 OA
HETATM   15  C17 UNL     1      26.272  -0.868  53.449  1.00  0.00     0.182 C 
ENDROOT
BRANCH  10  16
HETATM   16  N3  UNL     1      23.111   1.806  50.684  1.00  0.00    -0.367 N 
HETATM   17  H10 UNL     1      23.823   1.087  50.438  1.00  0.00     0.161 HD
BRANCH  16  18
HETATM   18  C8  UNL     1      22.137   2.110  49.693  1.00  0.00     0.031 A 
HETATM   19  C9  UNL     1      20.770   1.931  49.912  1.00  0.00     0.032 A 
HETATM   20  C10 UNL     1      19.795   2.213  48.979  1.00  0.00     0.046 A 
HETATM   21  C11 UNL     1      20.173   2.704  47.747  1.00  0.00     0.138 A 
HETATM   22  F1  UNL     1      19.251   2.997  46.797  1.00  0.00    -0.204 F 
HETATM   23  C12 UNL     1      21.527   2.904  47.470  1.00  0.00     0.074 A 
HETATM   24 CL1  UNL     1      22.004   3.529  45.899  1.00  0.00    -0.081 Cl
HETATM   25  C13 UNL     1      22.454   2.603  48.446  1.00  0.00     0.056 A 
ENDBRANCH  16  18
ENDBRANCH  10  16
TORSDOF 2
ENDMDL
MODEL 4
REMARK VINA RESULT:      -7.6      3.277      5.163
REMARK  2 active torsions:
REMARK  status: ('A' for Active; 'I' for Inactive)
REMARK    1  A    between atoms: C7_10  and  N3_11 
REMARK    2  A    between atoms: N3_11  and  C8_12 
ROOT
HETATM    1  C1  UNL     1      18.537  -0.243  52.178  1.00  0.00     0.016 C 
HETATM    2  C2  UNL     1      19.803   0.611  52.026  1.00  0.00     0.030 C 
HETATM    3  C3  UNL     1      20.320   0.798  53.407  1.00  0.00     0.004 C 
HETATM    4  C4  UNL     1      21.538   0.467  53.765  1.00  0.00     0.139 C 
HETATM    5  O1  UNL     1      22.451  -0.085  52.893  1.00  0.00    -0.316 OA
HETATM    6  C5  UNL     1      23.297   0.602  52.059  1.00  0.00     0.258 C 
HETATM    7  N1  UNL     1      24.179   1.517  52.079  1.00  0.00    -0.230 NA
HETATM    8  C6  UNL     1      24.638   2.238  53.191  1.00  0.00     0.231 C 
HETATM    9  N2  UNL     1      24.396   3.507  53.179  1.00  0.00    -0.257 NA
HETATM   10  C7  UNL     1      23.703   4.173  52.112  1.00  0.00     0.210 C 
HETATM   11  C14 UNL     1      22.231   4.144  52.429  1.00  0.00     0.077 C 
HETATM   12  C15 UNL     1      21.409   4.819  51.369  1.00  0.00     0.001 C 
HETATM   13  C16 UNL     1      20.492   4.052  50.757  1.00  0.00     0.130 C 
HETATM   14  O2  UNL     1      20.534   2.762  51.278  1.00  0.00    -0.363 OA
HETATM   15  C17 UNL     1      19.387   1.947  51.432  1.00  0.00     0.182 C 
ENDROOT
BRANCH  10  16
HETATM   16  N3  UNL     1      24.007   3.693  50.800  1.00  0.00    -0.367 N 
HETATM   17  H10 UNL     1      23.544   2.881  50.341  1.00  0.00     0.161 HD
BRANCH  16  18
HETATM   18  C8  UNL     1      25.015   4.364  50.053  1.00  0.00     0.031 A 
HETATM   19  C9  UNL     1      26.237   3.763  49.745  1.00  0.00     0.032 A 
HETATM   20  C10 UNL     1      27.240   4.376  49.024  1.00  0.00     0.046 A 
HETATM   21  C11 UNL     1      27.042   5.664  48.571  1.00  0.00     0.138 A 
HETATM   22  F1  UNL     1      27.998   6.309  47.859  1.00  0.00    -0.204 F 
HETATM   23  C12 UNL     1      25.840   6.316  48.850  1.00  0.00     0.074 A 
HETATM   24 CL1  UNL     1      25.593   7.957  48.271  1.00  0.00    -0.081 Cl
HETATM   25  C13 UNL     1      24.875   5.648  49.574  1.00  0.00     0.056 A 
ENDBRANCH  16  18
ENDBRANCH  10  16
TORSDOF 2
ENDMDL
MODEL 5
REMARK VINA RESULT:      -7.5      4.803      7.423
REMARK  2 active torsions:
REMARK  status: ('A' for Active; 'I' for Inactive)
REMARK    1  A    between atoms: C7_10  and  N3_11 
REMARK    2  A    between atoms: N3_11  and  C8_12 
ROOT
HETATM    1  C1  UNL     1      26.758   0.327  52.450  1.00  0.00     0.016 C 
HETATM    2  C2  UNL     1      25.235   0.504  52.383  1.00  0.00     0.030 C 
HETATM    3  C3  UNL     1      24.973   1.865  52.919  1.00  0.00     0.004 C 
HETATM    4  C4  UNL     1      24.318   2.783  52.248  1.00  0.00     0.139 C 
HETATM    5  O1  UNL     1      23.812   2.569  50.984  1.00  0.00    -0.316 OA
HETATM    6  C5  UNL     1      22.591   2.023  50.678  1.00  0.00     0.258 C 
HETATM    7  N1  UNL     1      21.353   2.169  50.925  1.00  0.00    -0.230 NA
HETATM    8  C6  UNL     1      20.753   3.129  51.753  1.00  0.00     0.231 C 
HETATM    9  N2  UNL     1      20.142   2.672  52.796  1.00  0.00    -0.257 NA
HETATM   10  C7  UNL     1      20.061   1.275  53.120  1.00  0.00     0.210 C 
HETATM   11  C14 UNL     1      21.255   0.929  53.970  1.00  0.00     0.077 C 
HETATM   12  C15 UNL     1      21.268  -0.518  54.368  1.00  0.00     0.001 C 
HETATM   13  C16 UNL     1      22.335  -1.230  53.966  1.00  0.00     0.130 C 
HETATM   14  O2  UNL     1      23.202  -0.413  53.247  1.00  0.00    -0.363 OA
HETATM   15  C17 UNL     1      24.610  -0.548  53.286  1.00  0.00     0.182 C 
ENDROOT
BRANCH  10  16
HETATM   16  N3  UNL     1      19.895   0.402  52.000  1.00  0.00    -0.367 N 
HETATM   17  H10 UNL     1      20.657   0.110  51.354  1.00  0.00     0.161 HD
BRANCH  16  18
HETATM   18  C8  UNL     1      18.596  -0.113  51.734  1.00  0.00     0.031 A 
HETATM   19  C9  UNL     1      17.905  -0.902  52.655  1.00  0.00     0.032 A 
HETATM   20  C10 UNL     1      16.646  -1.420  52.438  1.00  0.00     0.046 A 
HETATM   21  C11 UNL     1      16.014  -1.154  51.241  1.00  0.00     0.138 A 
HETATM   22  F1  UNL     1      14.775  -1.642  50.981  1.00  0.00    -0.204 F 
HETATM   23  C12 UNL     1      16.656  -0.372  50.281  1.00  0.00     0.074 A 
HETATM   24 CL1  UNL     1      15.847  -0.036  48.757  1.00  0.00    -0.081 Cl
HETATM   25  C13 UNL     1      17.915   0.118  50.559  1.00  0.00     0.056 A 
ENDBRANCH  16  18
ENDBRANCH  10  16
TORSDOF 2
ENDMDL
MODEL 6
REMARK VINA RESULT:      -7.4      1.895      3.558
REMARK  2 active torsions:
REMARK  status: ('A' for Active; 'I' for Inactive)
REMARK    1  A    between atoms: C7_10  and  N3_11 
REMARK    2  A    between atoms: N3_11  and  C8_12 
ROOT
HETATM    1  C1  UNL     1      21.377   4.248  45.968  1.00  0.00     0.016 C 
HETATM    2  C2  UNL     1      21.765   3.668  47.336  1.00  0.00     0.030 C 
HETATM    3  C3  UNL     1      20.537   3.768  48.168  1.00  0.00     0.004 C 
HETATM    4  C4  UNL     1      19.994   2.734  48.765  1.00  0.00     0.139 C 
HETATM    5  O1  UNL     1      20.511   1.460  48.676  1.00  0.00    -0.316 OA
HETATM    6  C5  UNL     1      21.487   0.921  49.475  1.00  0.00     0.258 C 
HETATM    7  N1  UNL     1      21.768   0.727  50.700  1.00  0.00    -0.230 NA
HETATM    8  C6  UNL     1      21.002   1.082  51.820  1.00  0.00     0.231 C 
HETATM    9  N2  UNL     1      21.530   1.957  52.610  1.00  0.00    -0.257 NA
HETATM   10  C7  UNL     1      22.819   2.550  52.390  1.00  0.00     0.210 C 
HETATM   11  C14 UNL     1      22.620   3.787  51.554  1.00  0.00     0.077 C 
HETATM   12  C15 UNL     1      23.914   4.490  51.263  1.00  0.00     0.001 C 
HETATM   13  C16 UNL     1      24.237   4.617  49.965  1.00  0.00     0.130 C 
HETATM   14  O2  UNL     1      23.248   4.038  49.175  1.00  0.00    -0.363 OA
HETATM   15  C17 UNL     1      22.866   4.546  47.911  1.00  0.00     0.182 C 
ENDROOT
BRANCH  10  16
HETATM   16  N3  UNL     1      23.811   1.666  51.861  1.00  0.00    -0.367 N 
HETATM   17  H10 UNL     1      23.816   1.289  50.891  1.00  0.00     0.161 HD
BRANCH  16  18
HETATM   18  C8  UNL     1      24.876   1.262  52.713  1.00  0.00     0.031 A 
HETATM   19  C9  UNL     1      24.784   0.139  53.538  1.00  0.00     0.032 A 
HETATM   20  C10 UNL     1      25.792  -0.287  54.377  1.00  0.00     0.046 A 
HETATM   21  C11 UNL     1      26.972   0.427  54.417  1.00  0.00     0.138 A 
HETATM   22  F1  UNL     1      27.991   0.047  55.226  1.00  0.00    -0.204 F 
HETATM   23  C12 UNL     1      27.121   1.558  53.614  1.00  0.00     0.074 A 
HETATM   24 CL1  UNL     1      28.626   2.465  53.670  1.00  0.00    -0.081 Cl
HETATM   25  C13 UNL     1      26.076   1.933  52.796  1.00  0.00     0.056 A 
ENDBRANCH  16  18
ENDBRANCH  10  16
TORSDOF 2
ENDMDL
MODEL 7
REMARK VINA RESULT:      -7.0      2.800      3.762
REMARK  2 active torsions:
REMARK  status: ('A' for Active; 'I' for Inactive)
REMARK    1  A    between atoms: C7_10  and  N3_11 
REMARK    2  A    between atoms: N3_11  and  C8_12 
ROOT
HETATM    1  C1  UNL     1      19.553   8.390  49.638  1.00  0.00     0.016 C 
HETATM    2  C2  UNL     1      20.790   7.495  49.795  1.00  0.00     0.030 C 
HETATM    3  C3  UNL     1      21.732   7.933  48.733  1.00  0.00     0.004 C 
HETATM    4  C4  UNL     1      22.959   8.325  48.984  1.00  0.00     0.139 C 
HETATM    5  O1  UNL     1      23.487   8.366  50.256  1.00  0.00    -0.316 OA
HETATM    6  C5  UNL     1      24.094   7.329  50.918  1.00  0.00     0.258 C 
HETATM    7  N1  UNL     1      25.029   6.479  50.780  1.00  0.00    -0.230 NA
HETATM    8  C6  UNL     1      25.888   6.324  49.683  1.00  0.00     0.231 C 
HETATM    9  N2  UNL     1      25.790   5.206  49.043  1.00  0.00    -0.257 NA
HETATM   10  C7  UNL     1      24.871   4.163  49.403  1.00  0.00     0.210 C 
HETATM   11  C14 UNL     1      23.579   4.414  48.670  1.00  0.00     0.077 C 
HETATM   12  C15 UNL     1      22.541   3.374  48.978  1.00  0.00     0.001 C 
HETATM   13  C16 UNL     1      21.402   3.823  49.531  1.00  0.00     0.130 C 
HETATM   14  O2  UNL     1      21.470   5.204  49.690  1.00  0.00    -0.363 OA
HETATM   15  C17 UNL     1      20.351   6.059  49.552  1.00  0.00     0.182 C 
ENDROOT
BRANCH  10  16
HETATM   16  N3  UNL     1      24.693   3.971  50.809  1.00  0.00    -0.367 N 
HETATM   17  H10 UNL     1      24.310   4.684  51.464  1.00  0.00     0.161 HD
BRANCH  16  18
HETATM   18  C8  UNL     1      25.063   2.718  51.370  1.00  0.00     0.031 A 
HETATM   19  C9  UNL     1      26.359   2.208  51.265  1.00  0.00     0.032 A 
HETATM   20  C10 UNL     1      26.759   1.000  51.794  1.00  0.00     0.046 A 
HETATM   21  C11 UNL     1      25.836   0.232  52.473  1.00  0.00     0.138 A 
HETATM   22  F1  UNL     1      26.182  -0.964  53.011  1.00  0.00    -0.204 F 
HETATM   23  C12 UNL     1      24.524   0.689  52.610  1.00  0.00     0.074 A 
HETATM   24 CL1  UNL     1      23.352  -0.293  53.475  1.00  0.00    -0.081 Cl
HETATM   25  C13 UNL     1      24.186   1.907  52.058  1.00  0.00     0.056 A 
ENDBRANCH  16  18
ENDBRANCH  10  16
TORSDOF 2
ENDMDL
MODEL 8
REMARK VINA RESULT:      -6.9      4.782      7.593
REMARK  2 active torsions:
REMARK  status: ('A' for Active; 'I' for Inactive)
REMARK    1  A    between atoms: C7_10  and  N3_11 
REMARK    2  A    between atoms: N3_11  and  C8_12 
ROOT
HETATM    1  C1  UNL     1      26.889  -0.467  52.673  1.00  0.00     0.016 C 
HETATM    2  C2  UNL     1      25.392  -0.154  52.546  1.00  0.00     0.030 C 
HETATM    3  C3  UNL     1      25.230   1.220  53.088  1.00  0.00     0.004 C 
HETATM    4  C4  UNL     1      24.688   2.199  52.403  1.00  0.00     0.139 C 
HETATM    5  O1  UNL     1      24.219   2.043  51.116  1.00  0.00    -0.316 OA
HETATM    6  C5  UNL     1      22.968   1.611  50.754  1.00  0.00     0.258 C 
HETATM    7  N1  UNL     1      21.738   1.865  50.952  1.00  0.00    -0.230 NA
HETATM    8  C6  UNL     1      21.192   2.867  51.767  1.00  0.00     0.231 C 
HETATM    9  N2  UNL     1      20.500   2.457  52.778  1.00  0.00    -0.257 NA
HETATM   10  C7  UNL     1      20.281   1.071  53.080  1.00  0.00     0.210 C 
HETATM   11  C14 UNL     1      21.403   0.612  53.974  1.00  0.00     0.077 C 
HETATM   12  C15 UNL     1      21.271  -0.835  54.353  1.00  0.00     0.001 C 
HETATM   13  C16 UNL     1      22.285  -1.636  53.987  1.00  0.00     0.130 C 
HETATM   14  O2  UNL     1      23.251  -0.893  53.314  1.00  0.00    -0.363 OA
HETATM   15  C17 UNL     1      24.639  -1.154  53.409  1.00  0.00     0.182 C 
ENDROOT
BRANCH  10  16
HETATM   16  N3  UNL     1      20.085   0.226  51.943  1.00  0.00    -0.367 N 
HETATM   17  H10 UNL     1      20.840  -0.292  51.449  1.00  0.00     0.161 HD
BRANCH  16  18
HETATM   18  C8  UNL     1      18.764   0.073  51.437  1.00  0.00     0.031 A 
HETATM   19  C9  UNL     1      18.378   0.585  50.197  1.00  0.00     0.032 A 
HETATM   20  C10 UNL     1      17.111   0.458  49.669  1.00  0.00     0.046 A 
HETATM   21  C11 UNL     1      16.150  -0.212  50.398  1.00  0.00     0.138 A 
HETATM   22  F1  UNL     1      14.889  -0.362  49.922  1.00  0.00    -0.204 F 
HETATM   23  C12 UNL     1      16.478  -0.744  51.646  1.00  0.00     0.074 A 
HETATM   24 CL1  UNL     1      15.250  -1.596  52.571  1.00  0.00    -0.081 Cl
HETATM   25  C13 UNL     1      17.764  -0.585  52.118  1.00  0.00     0.056 A 
ENDBRANCH  16  18
ENDBRANCH  10  16
TORSDOF 2
ENDMDL
MODEL 9
REMARK VINA RESULT:      -6.9      3.175      4.249
REMARK  2 active torsions:
REMARK  status: ('A' for Active; 'I' for Inactive)
REMARK    1  A    between atoms: C7_10  and  N3_11 
REMARK    2  A    between atoms: N3_11  and  C8_12 
ROOT
HETATM    1  C1  UNL     1      13.049   3.057  52.070  1.00  0.00     0.016 C 
HETATM    2  C2  UNL     1      14.515   2.612  51.980  1.00  0.00     0.030 C 
HETATM    3  C3  UNL     1      14.858   2.677  50.536  1.00  0.00     0.004 C 
HETATM    4  C4  UNL     1      15.865   3.378  50.071  1.00  0.00     0.139 C 
HETATM    5  O1  UNL     1      16.697   4.122  50.882  1.00  0.00    -0.316 OA
HETATM    6  C5  UNL     1      17.815   3.667  51.533  1.00  0.00     0.258 C 
HETATM    7  N1  UNL     1      18.911   3.061  51.313  1.00  0.00    -0.230 NA
HETATM    8  C6  UNL     1      19.393   2.583  50.086  1.00  0.00     0.231 C 
HETATM    9  N2  UNL     1      19.529   1.301  49.995  1.00  0.00    -0.257 NA
HETATM   10  C7  UNL     1      19.220   0.391  51.062  1.00  0.00     0.210 C 
HETATM   11  C14 UNL     1      17.771  -0.000  50.927  1.00  0.00     0.077 C 
HETATM   12  C15 UNL     1      17.340  -0.956  52.001  1.00  0.00     0.001 C 
HETATM   13  C16 UNL     1      16.340  -0.539  52.795  1.00  0.00     0.130 C 
HETATM   14  O2  UNL     1      15.933   0.735  52.409  1.00  0.00    -0.363 OA
HETATM   15  C17 UNL     1      14.591   1.178  52.478  1.00  0.00     0.182 C 
ENDROOT
BRANCH  10  16
HETATM   16  N3  UNL     1      19.558   0.855  52.371  1.00  0.00    -0.367 N 
HETATM   17  H10 UNL     1      19.010   1.552  52.917  1.00  0.00     0.161 HD
BRANCH  16  18
HETATM   18  C8  UNL     1      20.731   0.336  52.988  1.00  0.00     0.031 A 
HETATM   19  C9  UNL     1      20.676  -0.601  54.021  1.00  0.00     0.032 A 
HETATM   20  C10 UNL     1      21.786  -1.129  54.644  1.00  0.00     0.046 A 
HETATM   21  C11 UNL     1      23.038  -0.718  54.236  1.00  0.00     0.138 A 
HETATM   22  F1  UNL     1      24.159  -1.209  54.819  1.00  0.00    -0.204 F 
HETATM   23  C12 UNL     1      23.155   0.218  53.208  1.00  0.00     0.074 A 
HETATM   24 CL1  UNL     1      24.752   0.739  52.692  1.00  0.00    -0.081 Cl
HETATM   25  C13 UNL     1      22.006   0.708  52.623  1.00  0.00     0.056 A 
ENDBRANCH  16  18
ENDBRANCH  10  16
TORSDOF 2
ENDMDL
