MODEL 1
REMARK VINA RESULT:      -9.8      0.000      0.000
REMARK  3 active torsions:
REMARK  status: ('A' for Active; 'I' for Inactive)
REMARK    1  A    between atoms: C9_11  and  N2_12 
REMARK    2  A    between atoms: N2_12  and  C10_13 
REMARK    3  A    between atoms: C14_17  and  C15_18 
ROOT
HETATM    1  F1  UNL     1      19.813  -1.146  53.540  1.00  0.00    -0.206 F 
HETATM    2  C1  UNL     1      21.049  -0.589  53.494  1.00  0.00     0.117 A 
HETATM    3  C2  UNL     1      22.085  -1.266  54.081  1.00  0.00     0.045 A 
HETATM    4  C3  UNL     1      23.334  -0.729  54.048  1.00  0.00     0.040 A 
HETATM    5  C4  UNL     1      23.560   0.483  53.432  1.00  0.00     0.078 A 
HETATM    6  C5  UNL     1      22.544   1.219  52.817  1.00  0.00    -0.004 A 
HETATM    7  C6  UNL     1      21.280   0.625  52.877  1.00  0.00     0.054 A 
HETATM    8  C7  UNL     1      22.386   2.478  52.094  1.00  0.00     0.161 C 
HETATM    9  N1  UNL     1      23.599   2.980  51.500  1.00  0.00    -0.383 N 
HETATM   10  C8  UNL     1      24.952   2.654  51.774  1.00  0.00     0.086 A 
HETATM   11  C9  UNL     1      25.944   2.766  50.902  1.00  0.00     0.153 A 
HETATM   12  N3  UNL     1      27.155   2.340  51.555  1.00  0.00    -0.242 NA
HETATM   13  C22 UNL     1      26.914   1.985  52.772  1.00  0.00     0.130 A 
HETATM   14  C23 UNL     1      25.464   2.143  53.065  1.00  0.00     0.222 A 
HETATM   15  O1  UNL     1      24.875   0.935  53.459  1.00  0.00    -0.334 OA
HETATM   16  H6  UNL     1      23.450   3.697  50.747  1.00  0.00     0.160 HD
ENDROOT
BRANCH  11  17
HETATM   17  N2  UNL     1      25.787   3.232  49.560  1.00  0.00    -0.339 N 
HETATM   18  H7  UNL     1      25.397   2.660  48.777  1.00  0.00     0.167 HD
BRANCH  17  19
HETATM   19  C10 UNL     1      26.191   4.565  49.271  1.00  0.00     0.034 A 
HETATM   20  C11 UNL     1      25.396   5.652  49.521  1.00  0.00     0.029 A 
HETATM   21  C12 UNL     1      25.812   6.942  49.231  1.00  0.00     0.003 A 
HETATM   22  C13 UNL     1      27.043   7.195  48.677  1.00  0.00     0.012 A 
HETATM   23  C14 UNL     1      27.879   6.124  48.408  1.00  0.00    -0.024 A 
HETATM   24  C21 UNL     1      27.421   4.848  48.716  1.00  0.00     0.041 A 
BRANCH  23  25
HETATM   25  C15 UNL     1      29.204   6.294  47.820  1.00  0.00    -0.026 A 
HETATM   26  C16 UNL     1      30.302   5.486  48.062  1.00  0.00     0.012 A 
HETATM   27  C17 UNL     1      31.500   5.776  47.426  1.00  0.00     0.001 A 
HETATM   28  C18 UNL     1      31.598   6.852  46.565  1.00  0.00     0.000 A 
HETATM   29  C19 UNL     1      30.494   7.670  46.318  1.00  0.00     0.001 A 
HETATM   30  C20 UNL     1      29.296   7.376  46.957  1.00  0.00     0.012 A 
ENDBRANCH  23  25
ENDBRANCH  17  19
ENDBRANCH  11  17
TORSDOF 3
ENDMDL
MODEL 2
REMARK VINA RESULT:      -9.6      4.065      7.973
REMARK  3 active torsions:
REMARK  status: ('A' for Active; 'I' for Inactive)
REMARK    1  A    between atoms: C9_11  and  N2_12 
REMARK    2  A    between atoms: N2_12  and  C10_13 
REMARK    3  A    between atoms: C14_17  and  C15_18 
ROOT
HETATM    1  F1  UNL     1      25.766   7.666  50.777  1.00  0.00    -0.206 F 
HETATM    2  C1  UNL     1      25.003   6.605  50.411  1.00  0.00     0.117 A 
HETATM    3  C2  UNL     1      25.458   5.800  49.401  1.00  0.00     0.045 A 
HETATM    4  C3  UNL     1      24.712   4.730  49.016  1.00  0.00     0.040 A 
HETATM    5  C4  UNL     1      23.511   4.454  49.633  1.00  0.00     0.078 A 
HETATM    6  C5  UNL     1      22.996   5.239  50.669  1.00  0.00    -0.004 A 
HETATM    7  C6  UNL     1      23.799   6.325  51.028  1.00  0.00     0.054 A 
HETATM    8  C7  UNL     1      21.822   5.277  51.535  1.00  0.00     0.161 C 
HETATM    9  N1  UNL     1      21.144   4.012  51.676  1.00  0.00    -0.383 N 
HETATM   10  C8  UNL     1      21.214   2.846  50.871  1.00  0.00     0.086 A 
HETATM   11  C9  UNL     1      20.972   1.616  51.306  1.00  0.00     0.153 A 
HETATM   12  N3  UNL     1      21.146   0.715  50.197  1.00  0.00    -0.242 NA
HETATM   13  C22 UNL     1      21.477   1.364  49.131  1.00  0.00     0.130 A 
HETATM   14  C23 UNL     1      21.563   2.818  49.434  1.00  0.00     0.222 A 
HETATM   15  O1  UNL     1      22.835   3.336  49.159  1.00  0.00    -0.334 OA
HETATM   16  H6  UNL     1      20.503   3.952  52.505  1.00  0.00     0.160 HD
ENDROOT
BRANCH  11  17
HETATM   17  N2  UNL     1      20.607   1.296  52.650  1.00  0.00    -0.339 N 
HETATM   18  H7  UNL     1      19.753   1.654  53.133  1.00  0.00     0.167 HD
BRANCH  17  19
HETATM   19  C10 UNL     1      21.468   0.430  53.380  1.00  0.00     0.034 A 
HETATM   20  C11 UNL     1      21.000  -0.562  54.201  1.00  0.00     0.029 A 
HETATM   21  C12 UNL     1      21.860  -1.393  54.902  1.00  0.00     0.003 A 
HETATM   22  C13 UNL     1      23.224  -1.263  54.809  1.00  0.00     0.012 A 
HETATM   23  C14 UNL     1      23.739  -0.272  53.991  1.00  0.00    -0.024 A 
HETATM   24  C21 UNL     1      22.841   0.538  53.306  1.00  0.00     0.041 A 
BRANCH  23  25
HETATM   25  C15 UNL     1      25.174  -0.057  53.830  1.00  0.00    -0.026 A 
HETATM   26  C16 UNL     1      26.107  -0.044  54.853  1.00  0.00     0.012 A 
HETATM   27  C17 UNL     1      27.440   0.173  54.541  1.00  0.00     0.001 A 
HETATM   28  C18 UNL     1      27.834   0.373  53.231  1.00  0.00     0.000 A 
HETATM   29  C19 UNL     1      26.897   0.361  52.196  1.00  0.00     0.001 A 
HETATM   30  C20 UNL     1      25.562   0.143  52.513  1.00  0.00     0.012 A 
ENDBRANCH  23  25
ENDBRANCH  17  19
ENDBRANCH  11  17
TORSDOF 3
ENDMDL
MODEL 3
REMARK VINA RESULT:      -9.5      2.399      3.797
REMARK  3 active torsions:
REMARK  status: ('A' for Active; 'I' for Inactive)
REMARK    1  A    between atoms: C9_11  and  N2_12 
REMARK    2  A    between atoms: N2_12  and  C10_13 
REMARK    3  A    between atoms: C14_17  and  C15_18 
ROOT
HETATM    1  F1  UNL     1      28.028  -1.169  53.408  1.00  0.00    -0.206 F 
HETATM    2  C1  UNL     1      26.933  -0.413  53.144  1.00  0.00     0.117 A 
HETATM    3  C2  UNL     1      25.743  -0.777  53.717  1.00  0.00     0.045 A 
HETATM    4  C3  UNL     1      24.631  -0.035  53.467  1.00  0.00     0.040 A 
HETATM    5  C4  UNL     1      24.695   1.072  52.649  1.00  0.00     0.078 A 
HETATM    6  C5  UNL     1      25.879   1.491  52.037  1.00  0.00    -0.004 A 
HETATM    7  C6  UNL     1      26.994   0.697  52.325  1.00  0.00     0.054 A 
HETATM    8  C7  UNL     1      26.337   2.555  51.149  1.00  0.00     0.161 C 
HETATM    9  N1  UNL     1      25.498   3.727  51.141  1.00  0.00    -0.383 N 
HETATM   10  C8  UNL     1      24.156   3.891  51.574  1.00  0.00     0.086 A 
HETATM   11  C9  UNL     1      23.634   5.039  51.986  1.00  0.00     0.153 A 
HETATM   12  N3  UNL     1      22.260   4.795  52.337  1.00  0.00    -0.242 NA
HETATM   13  C22 UNL     1      21.954   3.555  52.146  1.00  0.00     0.130 A 
HETATM   14  C23 UNL     1      23.138   2.819  51.631  1.00  0.00     0.222 A 
HETATM   15  O1  UNL     1      23.497   1.753  52.466  1.00  0.00    -0.334 OA
HETATM   16  H6  UNL     1      25.958   4.589  50.756  1.00  0.00     0.160 HD
ENDROOT
BRANCH  11  17
HETATM   17  N2  UNL     1      24.354   6.272  52.054  1.00  0.00    -0.339 N 
HETATM   18  H7  UNL     1      24.828   6.633  52.912  1.00  0.00     0.167 HD
BRANCH  17  19
HETATM   19  C10 UNL     1      24.426   7.060  50.873  1.00  0.00     0.034 A 
HETATM   20  C11 UNL     1      23.409   7.883  50.467  1.00  0.00     0.029 A 
HETATM   21  C12 UNL     1      23.503   8.642  49.310  1.00  0.00     0.003 A 
HETATM   22  C13 UNL     1      24.622   8.606  48.513  1.00  0.00     0.012 A 
HETATM   23  C14 UNL     1      25.673   7.786  48.887  1.00  0.00    -0.024 A 
HETATM   24  C21 UNL     1      25.536   7.044  50.054  1.00  0.00     0.041 A 
BRANCH  23  25
HETATM   25  C15 UNL     1      26.901   7.682  48.104  1.00  0.00    -0.026 A 
HETATM   26  C16 UNL     1      27.271   8.526  47.070  1.00  0.00     0.012 A 
HETATM   27  C17 UNL     1      28.473   8.298  46.419  1.00  0.00     0.001 A 
HETATM   28  C18 UNL     1      29.290   7.249  46.793  1.00  0.00     0.000 A 
HETATM   29  C19 UNL     1      28.922   6.396  47.835  1.00  0.00     0.001 A 
HETATM   30  C20 UNL     1      27.716   6.626  48.486  1.00  0.00     0.012 A 
ENDBRANCH  23  25
ENDBRANCH  17  19
ENDBRANCH  11  17
TORSDOF 3
ENDMDL
MODEL 4
REMARK VINA RESULT:      -9.5      3.479      9.198
REMARK  3 active torsions:
REMARK  status: ('A' for Active; 'I' for Inactive)
REMARK    1  A    between atoms: C9_11  and  N2_12 
REMARK    2  A    between atoms: N2_12  and  C10_13 
REMARK    3  A    between atoms: C14_17  and  C15_18 
ROOT
HETATM    1  F1  UNL     1      30.170   6.081  47.458  1.00  0.00    -0.206 F 
HETATM    2  C1  UNL     1      28.877   6.132  47.865  1.00  0.00     0.117 A 
HETATM    3  C2  UNL     1      28.155   7.261  47.586  1.00  0.00     0.045 A 
HETATM    4  C3  UNL     1      26.857   7.336  47.983  1.00  0.00     0.040 A 
HETATM    5  C4  UNL     1      26.269   6.289  48.660  1.00  0.00     0.078 A 
HETATM    6  C5  UNL     1      26.954   5.112  48.972  1.00  0.00    -0.004 A 
HETATM    7  C6  UNL     1      28.284   5.084  48.542  1.00  0.00     0.054 A 
HETATM    8  C7  UNL     1      26.699   3.840  49.641  1.00  0.00     0.161 C 
HETATM    9  N1  UNL     1      25.307   3.469  49.704  1.00  0.00    -0.383 N 
HETATM   10  C8  UNL     1      24.144   4.264  49.541  1.00  0.00     0.086 A 
HETATM   11  C9  UNL     1      22.969   3.802  49.134  1.00  0.00     0.153 A 
HETATM   12  N3  UNL     1      22.050   4.910  49.096  1.00  0.00    -0.242 NA
HETATM   13  C22 UNL     1      22.635   5.999  49.467  1.00  0.00     0.130 A 
HETATM   14  C23 UNL     1      24.058   5.718  49.799  1.00  0.00     0.222 A 
HETATM   15  O1  UNL     1      24.938   6.476  49.016  1.00  0.00    -0.334 OA
HETATM   16  H6  UNL     1      25.137   2.452  49.902  1.00  0.00     0.160 HD
ENDROOT
BRANCH  11  17
HETATM   17  N2  UNL     1      22.713   2.436  48.801  1.00  0.00    -0.339 N 
HETATM   18  H7  UNL     1      23.123   1.942  47.977  1.00  0.00     0.167 HD
BRANCH  17  19
HETATM   19  C10 UNL     1      21.838   1.702  49.649  1.00  0.00     0.034 A 
HETATM   20  C11 UNL     1      20.506   1.537  49.376  1.00  0.00     0.029 A 
HETATM   21  C12 UNL     1      19.674   0.817  50.218  1.00  0.00     0.003 A 
HETATM   22  C13 UNL     1      20.143   0.233  51.370  1.00  0.00     0.012 A 
HETATM   23  C14 UNL     1      21.484   0.376  51.683  1.00  0.00    -0.024 A 
HETATM   24  C21 UNL     1      22.282   1.105  50.810  1.00  0.00     0.041 A 
BRANCH  23  25
HETATM   25  C15 UNL     1      22.074  -0.208  52.884  1.00  0.00    -0.026 A 
HETATM   26  C16 UNL     1      21.383  -0.894  53.869  1.00  0.00     0.012 A 
HETATM   27  C17 UNL     1      22.085  -1.393  54.956  1.00  0.00     0.001 A 
HETATM   28  C18 UNL     1      23.451  -1.210  55.056  1.00  0.00     0.000 A 
HETATM   29  C19 UNL     1      24.152  -0.520  54.065  1.00  0.00     0.001 A 
HETATM   30  C20 UNL     1      23.445  -0.022  52.978  1.00  0.00     0.012 A 
ENDBRANCH  23  25
ENDBRANCH  17  19
ENDBRANCH  11  17
TORSDOF 3
ENDMDL
MODEL 5
REMARK VINA RESULT:      -9.4      3.772      8.222
REMARK  3 active torsions:
REMARK  status: ('A' for Active; 'I' for Inactive)
REMARK    1  A    between atoms: C9_11  and  N2_12 
REMARK    2  A    between atoms: N2_12  and  C10_13 
REMARK    3  A    between atoms: C14_17  and  C15_18 
ROOT
HETATM    1  F1  UNL     1      27.052   8.573  46.072  1.00  0.00    -0.206 F 
HETATM    2  C1  UNL     1      26.305   8.112  47.105  1.00  0.00     0.117 A 
HETATM    3  C2  UNL     1      25.145   8.773  47.411  1.00  0.00     0.045 A 
HETATM    4  C3  UNL     1      24.378   8.330  48.442  1.00  0.00     0.040 A 
HETATM    5  C4  UNL     1      24.759   7.226  49.175  1.00  0.00     0.078 A 
HETATM    6  C5  UNL     1      25.930   6.511  48.911  1.00  0.00    -0.004 A 
HETATM    7  C6  UNL     1      26.683   7.005  47.842  1.00  0.00     0.054 A 
HETATM    8  C7  UNL     1      26.645   5.349  49.430  1.00  0.00     0.161 C 
HETATM    9  N1  UNL     1      25.823   4.425  50.171  1.00  0.00    -0.383 N 
HETATM   10  C8  UNL     1      24.547   4.612  50.761  1.00  0.00     0.086 A 
HETATM   11  C9  UNL     1      23.671   3.640  50.980  1.00  0.00     0.153 A 
HETATM   12  N3  UNL     1      22.506   4.228  51.589  1.00  0.00    -0.242 NA
HETATM   13  C22 UNL     1      22.663   5.501  51.738  1.00  0.00     0.130 A 
HETATM   14  C23 UNL     1      23.998   5.906  51.223  1.00  0.00     0.222 A 
HETATM   15  O1  UNL     1      23.898   6.864  50.205  1.00  0.00    -0.334 OA
HETATM   16  H6  UNL     1      26.240   3.469  50.285  1.00  0.00     0.160 HD
ENDROOT
BRANCH  11  17
HETATM   17  N2  UNL     1      23.891   2.268  50.649  1.00  0.00    -0.339 N 
HETATM   18  H7  UNL     1      23.833   1.876  49.682  1.00  0.00     0.167 HD
BRANCH  17  19
HETATM   19  C10 UNL     1      24.212   1.375  51.709  1.00  0.00     0.034 A 
HETATM   20  C11 UNL     1      23.258   0.788  52.497  1.00  0.00     0.029 A 
HETATM   21  C12 UNL     1      23.595  -0.079  53.525  1.00  0.00     0.003 A 
HETATM   22  C13 UNL     1      24.903  -0.391  53.805  1.00  0.00     0.012 A 
HETATM   23  C14 UNL     1      25.899   0.182  53.032  1.00  0.00    -0.024 A 
HETATM   24  C21 UNL     1      25.515   1.044  52.012  1.00  0.00     0.041 A 
BRANCH  23  25
HETATM   25  C15 UNL     1      27.316  -0.089  53.255  1.00  0.00    -0.026 A 
HETATM   26  C16 UNL     1      28.255   0.833  53.685  1.00  0.00     0.012 A 
HETATM   27  C17 UNL     1      29.569   0.423  53.852  1.00  0.00     0.001 A 
HETATM   28  C18 UNL     1      29.937  -0.883  53.593  1.00  0.00     0.000 A 
HETATM   29  C19 UNL     1      28.995  -1.817  53.159  1.00  0.00     0.001 A 
HETATM   30  C20 UNL     1      27.679  -1.402  52.994  1.00  0.00     0.012 A 
ENDBRANCH  23  25
ENDBRANCH  17  19
ENDBRANCH  11  17
TORSDOF 3
ENDMDL
MODEL 6
REMARK VINA RESULT:      -9.2      4.858      8.067
REMARK  3 active torsions:
REMARK  status: ('A' for Active; 'I' for Inactive)
REMARK    1  A    between atoms: C9_11  and  N2_12 
REMARK    2  A    between atoms: N2_12  and  C10_13 
REMARK    3  A    between atoms: C14_17  and  C15_18 
ROOT
HETATM    1  F1  UNL     1      21.143   4.492  44.121  1.00  0.00    -0.206 F 
HETATM    2  C1  UNL     1      21.682   4.583  45.363  1.00  0.00     0.117 A 
HETATM    3  C2  UNL     1      22.047   5.821  45.820  1.00  0.00     0.045 A 
HETATM    4  C3  UNL     1      22.589   5.940  47.061  1.00  0.00     0.040 A 
HETATM    5  C4  UNL     1      22.770   4.828  47.856  1.00  0.00     0.078 A 
HETATM    6  C5  UNL     1      22.417   3.540  47.445  1.00  0.00    -0.004 A 
HETATM    7  C6  UNL     1      21.864   3.471  46.162  1.00  0.00     0.054 A 
HETATM    8  C7  UNL     1      22.447   2.177  47.965  1.00  0.00     0.161 C 
HETATM    9  N1  UNL     1      22.502   2.089  49.403  1.00  0.00    -0.383 N 
HETATM   10  C8  UNL     1      22.868   3.068  50.363  1.00  0.00     0.086 A 
HETATM   11  C9  UNL     1      22.439   3.086  51.618  1.00  0.00     0.153 A 
HETATM   12  N3  UNL     1      23.030   4.227  52.267  1.00  0.00    -0.242 NA
HETATM   13  C22 UNL     1      23.788   4.876  51.447  1.00  0.00     0.130 A 
HETATM   14  C23 UNL     1      23.776   4.209  50.118  1.00  0.00     0.222 A 
HETATM   15  O1  UNL     1      23.332   5.068  49.105  1.00  0.00    -0.334 OA
HETATM   16  H6  UNL     1      22.225   1.154  49.792  1.00  0.00     0.160 HD
ENDROOT
BRANCH  11  17
HETATM   17  N2  UNL     1      21.546   2.121  52.178  1.00  0.00    -0.339 N 
HETATM   18  H7  UNL     1      20.510   2.130  52.049  1.00  0.00     0.167 HD
BRANCH  17  19
HETATM   19  C10 UNL     1      22.109   1.079  52.966  1.00  0.00     0.034 A 
HETATM   20  C11 UNL     1      21.346   0.201  53.689  1.00  0.00     0.029 A 
HETATM   21  C12 UNL     1      21.918  -0.806  54.450  1.00  0.00     0.003 A 
HETATM   22  C13 UNL     1      23.279  -0.974  54.518  1.00  0.00     0.012 A 
HETATM   23  C14 UNL     1      24.088  -0.107  53.802  1.00  0.00    -0.024 A 
HETATM   24  C21 UNL     1      23.472   0.887  53.052  1.00  0.00     0.041 A 
BRANCH  23  25
HETATM   25  C15 UNL     1      25.545  -0.208  53.813  1.00  0.00    -0.026 A 
HETATM   26  C16 UNL     1      26.395   0.511  54.635  1.00  0.00     0.012 A 
HETATM   27  C17 UNL     1      27.762   0.305  54.528  1.00  0.00     0.001 A 
HETATM   28  C18 UNL     1      28.269  -0.601  53.616  1.00  0.00     0.000 A 
HETATM   29  C19 UNL     1      27.415  -1.328  52.785  1.00  0.00     0.001 A 
HETATM   30  C20 UNL     1      26.046  -1.119  52.895  1.00  0.00     0.012 A 
ENDBRANCH  23  25
ENDBRANCH  17  19
ENDBRANCH  11  17
TORSDOF 3
ENDMDL
MODEL 7
REMARK VINA RESULT:      -9.1      4.009      8.130
REMARK  3 active torsions:
REMARK  status: ('A' for Active; 'I' for Inactive)
REMARK    1  A    between atoms: C9_11  and  N2_12 
REMARK    2  A    between atoms: N2_12  and  C10_13 
REMARK    3  A    between atoms: C14_17  and  C15_18 
ROOT
HETATM    1  F1  UNL     1      25.706   7.360  47.259  1.00  0.00    -0.206 F 
HETATM    2  C1  UNL     1      24.790   6.837  48.112  1.00  0.00     0.117 A 
HETATM    3  C2  UNL     1      23.509   7.318  48.060  1.00  0.00     0.045 A 
HETATM    4  C3  UNL     1      22.572   6.810  48.904  1.00  0.00     0.040 A 
HETATM    5  C4  UNL     1      22.903   5.821  49.805  1.00  0.00     0.078 A 
HETATM    6  C5  UNL     1      24.192   5.291  49.905  1.00  0.00    -0.004 A 
HETATM    7  C6  UNL     1      25.118   5.845  49.016  1.00  0.00     0.054 A 
HETATM    8  C7  UNL     1      24.907   4.287  50.688  1.00  0.00     0.161 C 
HETATM    9  N1  UNL     1      24.062   3.282  51.282  1.00  0.00    -0.383 N 
HETATM   10  C8  UNL     1      22.663   3.290  51.518  1.00  0.00     0.086 A 
HETATM   11  C9  UNL     1      21.908   2.203  51.599  1.00  0.00     0.153 A 
HETATM   12  N3  UNL     1      20.554   2.625  51.845  1.00  0.00    -0.242 NA
HETATM   13  C22 UNL     1      20.484   3.913  51.913  1.00  0.00     0.130 A 
HETATM   14  C23 UNL     1      21.835   4.501  51.710  1.00  0.00     0.222 A 
HETATM   15  O1  UNL     1      21.866   5.377  50.618  1.00  0.00    -0.334 OA
HETATM   16  H6  UNL     1      24.567   2.412  51.582  1.00  0.00     0.160 HD
ENDROOT
BRANCH  11  17
HETATM   17  N2  UNL     1      22.400   0.868  51.459  1.00  0.00    -0.339 N 
HETATM   18  H7  UNL     1      22.375   0.319  50.570  1.00  0.00     0.167 HD
BRANCH  17  19
HETATM   19  C10 UNL     1      22.963   0.247  52.608  1.00  0.00     0.034 A 
HETATM   20  C11 UNL     1      22.198  -0.317  53.595  1.00  0.00     0.029 A 
HETATM   21  C12 UNL     1      22.770  -0.917  54.706  1.00  0.00     0.003 A 
HETATM   22  C13 UNL     1      24.132  -0.976  54.873  1.00  0.00     0.012 A 
HETATM   23  C14 UNL     1      24.942  -0.417  53.899  1.00  0.00    -0.024 A 
HETATM   24  C21 UNL     1      24.326   0.173  52.802  1.00  0.00     0.041 A 
BRANCH  23  25
HETATM   25  C15 UNL     1      26.399  -0.430  53.990  1.00  0.00    -0.026 A 
HETATM   26  C16 UNL     1      27.155   0.273  54.912  1.00  0.00     0.012 A 
HETATM   27  C17 UNL     1      28.536   0.158  54.873  1.00  0.00     0.001 A 
HETATM   28  C18 UNL     1      29.149  -0.645  53.930  1.00  0.00     0.000 A 
HETATM   29  C19 UNL     1      28.391  -1.357  52.998  1.00  0.00     0.001 A 
HETATM   30  C20 UNL     1      27.008  -1.238  53.040  1.00  0.00     0.012 A 
ENDBRANCH  23  25
ENDBRANCH  17  19
ENDBRANCH  11  17
TORSDOF 3
ENDMDL
MODEL 8
REMARK VINA RESULT:      -9.1      5.484      9.321
REMARK  3 active torsions:
REMARK  status: ('A' for Active; 'I' for Inactive)
REMARK    1  A    between atoms: C9_11  and  N2_12 
REMARK    2  A    between atoms: N2_12  and  C10_13 
REMARK    3  A    between atoms: C14_17  and  C15_18 
ROOT
HETATM    1  F1  UNL     1      32.359   2.364  46.434  1.00  0.00    -0.206 F 
HETATM    2  C1  UNL     1      32.419   3.706  46.623  1.00  0.00     0.117 A 
HETATM    3  C2  UNL     1      32.856   4.486  45.585  1.00  0.00     0.045 A 
HETATM    4  C3  UNL     1      32.925   5.834  45.749  1.00  0.00     0.040 A 
HETATM    5  C4  UNL     1      32.560   6.415  46.945  1.00  0.00     0.078 A 
HETATM    6  C5  UNL     1      32.107   5.672  48.038  1.00  0.00    -0.004 A 
HETATM    7  C6  UNL     1      32.053   4.292  47.820  1.00  0.00     0.054 A 
HETATM    8  C7  UNL     1      31.648   5.901  49.405  1.00  0.00     0.161 C 
HETATM    9  N1  UNL     1      31.160   7.235  49.653  1.00  0.00    -0.383 N 
HETATM   10  C8  UNL     1      31.359   8.431  48.917  1.00  0.00     0.086 A 
HETATM   11  C9  UNL     1      30.522   9.459  48.913  1.00  0.00     0.153 A 
HETATM   12  N3  UNL     1      31.073  10.472  48.051  1.00  0.00    -0.242 NA
HETATM   13  C22 UNL     1      32.197  10.081  47.551  1.00  0.00     0.130 A 
HETATM   14  C23 UNL     1      32.521   8.717  48.047  1.00  0.00     0.222 A 
HETATM   15  O1  UNL     1      32.671   7.800  46.999  1.00  0.00    -0.334 OA
HETATM   16  H6  UNL     1      30.564   7.326  50.513  1.00  0.00     0.160 HD
ENDROOT
BRANCH  11  17
HETATM   17  N2  UNL     1      29.299   9.505  49.652  1.00  0.00    -0.339 N 
HETATM   18  H7  UNL     1      29.210   9.872  50.626  1.00  0.00     0.167 HD
BRANCH  17  19
HETATM   19  C10 UNL     1      28.124   9.015  49.017  1.00  0.00     0.034 A 
HETATM   20  C11 UNL     1      27.367   9.778  48.169  1.00  0.00     0.029 A 
HETATM   21  C12 UNL     1      26.226   9.278  47.561  1.00  0.00     0.003 A 
HETATM   22  C13 UNL     1      25.797   7.991  47.781  1.00  0.00     0.012 A 
HETATM   23  C14 UNL     1      26.533   7.186  48.633  1.00  0.00    -0.024 A 
HETATM   24  C21 UNL     1      27.671   7.729  49.219  1.00  0.00     0.041 A 
BRANCH  23  25
HETATM   25  C15 UNL     1      26.156   5.807  48.928  1.00  0.00    -0.026 A 
HETATM   26  C16 UNL     1      27.034   4.752  49.105  1.00  0.00     0.012 A 
HETATM   27  C17 UNL     1      26.522   3.493  49.381  1.00  0.00     0.001 A 
HETATM   28  C18 UNL     1      25.158   3.294  49.480  1.00  0.00     0.000 A 
HETATM   29  C19 UNL     1      24.268   4.355  49.303  1.00  0.00     0.001 A 
HETATM   30  C20 UNL     1      24.785   5.614  49.026  1.00  0.00     0.012 A 
ENDBRANCH  23  25
ENDBRANCH  17  19
ENDBRANCH  11  17
TORSDOF 3
ENDMDL
MODEL 9
REMARK VINA RESULT:      -9.1      5.520      8.645
REMARK  3 active torsions:
REMARK  status: ('A' for Active; 'I' for Inactive)
REMARK    1  A    between atoms: C9_11  and  N2_12 
REMARK    2  A    between atoms: N2_12  and  C10_13 
REMARK    3  A    between atoms: C14_17  and  C15_18 
ROOT
HETATM    1  F1  UNL     1      11.836   2.647  53.658  1.00  0.00    -0.206 F 
HETATM    2  C1  UNL     1      13.098   2.937  53.254  1.00  0.00     0.117 A 
HETATM    3  C2  UNL     1      13.685   4.076  53.735  1.00  0.00     0.045 A 
HETATM    4  C3  UNL     1      14.949   4.389  53.344  1.00  0.00     0.040 A 
HETATM    5  C4  UNL     1      15.637   3.570  52.474  1.00  0.00     0.078 A 
HETATM    6  C5  UNL     1      15.091   2.396  51.950  1.00  0.00    -0.004 A 
HETATM    7  C6  UNL     1      13.790   2.118  52.382  1.00  0.00     0.054 A 
HETATM    8  C7  UNL     1      15.476   1.314  51.049  1.00  0.00     0.161 C 
HETATM    9  N1  UNL     1      16.900   1.142  50.899  1.00  0.00    -0.383 N 
HETATM   10  C8  UNL     1      17.962   2.034  51.198  1.00  0.00     0.086 A 
HETATM   11  C9  UNL     1      19.198   1.656  51.496  1.00  0.00     0.153 A 
HETATM   12  N3  UNL     1      19.975   2.845  51.734  1.00  0.00    -0.242 NA
HETATM   13  C22 UNL     1      19.248   3.901  51.585  1.00  0.00     0.130 A 
HETATM   14  C23 UNL     1      17.860   3.509  51.222  1.00  0.00     0.222 A 
HETATM   15  O1  UNL     1      16.921   3.988  52.144  1.00  0.00    -0.334 OA
HETATM   16  H6  UNL     1      17.186   0.210  50.510  1.00  0.00     0.160 HD
ENDROOT
BRANCH  11  17
HETATM   17  N2  UNL     1      19.631   0.296  51.560  1.00  0.00    -0.339 N 
HETATM   18  H7  UNL     1      19.278  -0.467  50.939  1.00  0.00     0.167 HD
BRANCH  17  19
HETATM   19  C10 UNL     1      20.609  -0.041  52.536  1.00  0.00     0.034 A 
HETATM   20  C11 UNL     1      20.286  -0.564  53.760  1.00  0.00     0.029 A 
HETATM   21  C12 UNL     1      21.258  -0.885  54.695  1.00  0.00     0.003 A 
HETATM   22  C13 UNL     1      22.594  -0.693  54.441  1.00  0.00     0.012 A 
HETATM   23  C14 UNL     1      22.964  -0.166  53.216  1.00  0.00    -0.024 A 
HETATM   24  C21 UNL     1      21.957   0.140  52.309  1.00  0.00     0.041 A 
BRANCH  23  25
HETATM   25  C15 UNL     1      24.359   0.074  52.856  1.00  0.00    -0.026 A 
HETATM   26  C16 UNL     1      25.427  -0.744  53.183  1.00  0.00     0.012 A 
HETATM   27  C17 UNL     1      26.699  -0.383  52.768  1.00  0.00     0.001 A 
HETATM   28  C18 UNL     1      26.900   0.775  52.040  1.00  0.00     0.000 A 
HETATM   29  C19 UNL     1      25.826   1.604  51.709  1.00  0.00     0.001 A 
HETATM   30  C20 UNL     1      24.553   1.238  52.126  1.00  0.00     0.012 A 
ENDBRANCH  23  25
ENDBRANCH  17  19
ENDBRANCH  11  17
TORSDOF 3
ENDMDL
