MODEL 1
REMARK VINA RESULT:      -8.1      0.000      0.000
REMARK  3 active torsions:
REMARK  status: ('A' for Active; 'I' for Inactive)
REMARK    1  A    between atoms: C2_2  and  S1_3 
REMARK    2  A    between atoms: S1_3  and  C3_6 
REMARK    3  A    between atoms: C6_9  and  N1_10 
ROOT
HETATM    1  C3  UNL     1      24.176   1.946  51.790  1.00  0.00     0.155 A 
HETATM    2  C4  UNL     1      24.972   1.168  52.576  1.00  0.00     0.062 A 
HETATM    3  C5  UNL     1      24.459   0.287  53.490  1.00  0.00     0.043 A 
HETATM    4  C6  UNL     1      25.340  -0.462  54.243  1.00  0.00     0.148 A 
HETATM    5  N2  UNL     1      24.772  -1.321  55.135  1.00  0.00    -0.223 NA
HETATM    6  C13 UNL     1      23.442  -1.438  55.278  1.00  0.00     0.236 A 
HETATM    7  N3  UNL     1      22.612  -0.701  54.536  1.00  0.00    -0.240 NA
HETATM    8  C14 UNL     1      23.083   0.161  53.643  1.00  0.00     0.089 A 
HETATM    9  C15 UNL     1      22.289   0.963  52.833  1.00  0.00     0.150 A 
HETATM   10  N4  UNL     1      22.824   1.829  51.935  1.00  0.00    -0.246 NA
ENDROOT
BRANCH   4  11
HETATM   11  N1  UNL     1      26.747  -0.340  54.094  1.00  0.00    -0.307 N 
HETATM   12  C7  UNL     1      27.545   0.616  54.801  1.00  0.00     0.099 A 
HETATM   13  C8  UNL     1      28.855   0.715  54.648  1.00  0.00     0.018 A 
HETATM   14  C9  UNL     1      29.581  -0.176  53.720  1.00  0.00     0.004 A 
HETATM   15  C10 UNL     1      28.935  -1.109  53.006  1.00  0.00     0.029 A 
HETATM   16  C11 UNL     1      27.497  -1.171  53.215  1.00  0.00     0.031 A 
HETATM   17  C12 UNL     1      26.849  -2.088  52.514  1.00  0.00     0.043 C 
ENDBRANCH   4  11
BRANCH   1  18
HETATM   18  S1  UNL     1      24.642   3.110  50.588  1.00  0.00     0.213 S 
HETATM   19  O1  UNL     1      23.946   2.924  49.288  1.00  0.00    -0.217 OA
HETATM   20  O2  UNL     1      24.370   4.494  51.110  1.00  0.00    -0.217 OA
BRANCH  18  21
HETATM   21  C2  UNL     1      26.386   3.014  50.305  1.00  0.00     0.105 C 
HETATM   22  C1  UNL     1      26.840   3.850  49.380  1.00  0.00     0.024 C 
ENDBRANCH  18  21
ENDBRANCH   1  18
TORSDOF 3
ENDMDL
MODEL 2
REMARK VINA RESULT:      -7.7      2.646      5.441
REMARK  3 active torsions:
REMARK  status: ('A' for Active; 'I' for Inactive)
REMARK    1  A    between atoms: C2_2  and  S1_3 
REMARK    2  A    between atoms: S1_3  and  C3_6 
REMARK    3  A    between atoms: C6_9  and  N1_10 
ROOT
HETATM    1  C3  UNL     1      26.904   0.870  53.553  1.00  0.00     0.155 A 
HETATM    2  C4  UNL     1      25.996   1.526  52.775  1.00  0.00     0.062 A 
HETATM    3  C5  UNL     1      24.706   1.092  52.633  1.00  0.00     0.043 A 
HETATM    4  C6  UNL     1      23.855   1.819  51.825  1.00  0.00     0.148 A 
HETATM    5  N2  UNL     1      22.584   1.338  51.723  1.00  0.00    -0.223 NA
HETATM    6  C13 UNL     1      22.178   0.230  52.362  1.00  0.00     0.236 A 
HETATM    7  N3  UNL     1      23.022  -0.455  53.137  1.00  0.00    -0.240 NA
HETATM    8  C14 UNL     1      24.278  -0.055  53.292  1.00  0.00     0.089 A 
HETATM    9  C15 UNL     1      25.217  -0.709  54.079  1.00  0.00     0.150 A 
HETATM   10  N4  UNL     1      26.491  -0.257  54.203  1.00  0.00    -0.246 NA
ENDROOT
BRANCH   4  11
HETATM   11  N1  UNL     1      24.283   2.991  51.147  1.00  0.00    -0.307 N 
HETATM   12  C7  UNL     1      25.082   2.979  49.958  1.00  0.00     0.099 A 
HETATM   13  C8  UNL     1      25.471   4.082  49.341  1.00  0.00     0.018 A 
HETATM   14  C9  UNL     1      25.094   5.415  49.856  1.00  0.00     0.004 A 
HETATM   15  C10 UNL     1      24.348   5.545  50.962  1.00  0.00     0.029 A 
HETATM   16  C11 UNL     1      23.950   4.299  51.599  1.00  0.00     0.031 A 
HETATM   17  C12 UNL     1      23.214   4.416  52.692  1.00  0.00     0.043 C 
ENDBRANCH   4  11
BRANCH   1  18
HETATM   18  S1  UNL     1      28.568   1.268  53.849  1.00  0.00     0.213 S 
HETATM   19  O1  UNL     1      28.949   2.614  53.349  1.00  0.00    -0.217 OA
HETATM   20  O2  UNL     1      28.839   1.186  55.326  1.00  0.00    -0.217 OA
BRANCH  18  21
HETATM   21  C2  UNL     1      29.617   0.069  53.080  1.00  0.00     0.105 C 
HETATM   22  C1  UNL     1      29.907  -0.978  53.841  1.00  0.00     0.024 C 
ENDBRANCH  18  21
ENDBRANCH   1  18
TORSDOF 3
ENDMDL
MODEL 3
REMARK VINA RESULT:      -7.6      2.941      5.201
REMARK  3 active torsions:
REMARK  status: ('A' for Active; 'I' for Inactive)
REMARK    1  A    between atoms: C2_2  and  S1_3 
REMARK    2  A    between atoms: S1_3  and  C3_6 
REMARK    3  A    between atoms: C6_9  and  N1_10 
ROOT
HETATM    1  C3  UNL     1      25.424  -0.305  54.081  1.00  0.00     0.155 A 
HETATM    2  C4  UNL     1      24.433   0.377  53.442  1.00  0.00     0.062 A 
HETATM    3  C5  UNL     1      23.109   0.193  53.740  1.00  0.00     0.043 A 
HETATM    4  C6  UNL     1      22.172   0.928  53.042  1.00  0.00     0.148 A 
HETATM    5  N2  UNL     1      20.872   0.703  53.382  1.00  0.00    -0.223 NA
HETATM    6  C13 UNL     1      20.517  -0.175  54.333  1.00  0.00     0.236 A 
HETATM    7  N3  UNL     1      21.444  -0.874  54.993  1.00  0.00    -0.240 NA
HETATM    8  C14 UNL     1      22.734  -0.715  54.723  1.00  0.00     0.089 A 
HETATM    9  C15 UNL     1      23.759  -1.400  55.363  1.00  0.00     0.150 A 
HETATM   10  N4  UNL     1      25.064  -1.199  55.048  1.00  0.00    -0.246 NA
ENDROOT
BRANCH   4  11
HETATM   11  N1  UNL     1      22.546   1.857  52.035  1.00  0.00    -0.307 N 
HETATM   12  C7  UNL     1      23.229   3.088  52.299  1.00  0.00     0.099 A 
HETATM   13  C8  UNL     1      23.569   3.942  51.347  1.00  0.00     0.018 A 
HETATM   14  C9  UNL     1      23.254   3.664  49.930  1.00  0.00     0.004 A 
HETATM   15  C10 UNL     1      22.617   2.542  49.567  1.00  0.00     0.029 A 
HETATM   16  C11 UNL     1      22.268   1.642  50.656  1.00  0.00     0.031 A 
HETATM   17  C12 UNL     1      21.639   0.531  50.309  1.00  0.00     0.043 C 
ENDBRANCH   4  11
BRANCH   1  18
HETATM   18  S1  UNL     1      27.141  -0.206  53.839  1.00  0.00     0.213 S 
HETATM   19  O1  UNL     1      27.912  -0.173  55.109  1.00  0.00    -0.217 OA
HETATM   20  O2  UNL     1      27.590  -1.376  53.008  1.00  0.00    -0.217 OA
BRANCH  18  21
HETATM   21  C2  UNL     1      27.532   1.249  52.910  1.00  0.00     0.105 C 
HETATM   22  C1  UNL     1      28.416   2.050  53.491  1.00  0.00     0.024 C 
ENDBRANCH  18  21
ENDBRANCH   1  18
TORSDOF 3
ENDMDL
MODEL 4
REMARK VINA RESULT:      -7.6      2.805      5.658
REMARK  3 active torsions:
REMARK  status: ('A' for Active; 'I' for Inactive)
REMARK    1  A    between atoms: C2_2  and  S1_3 
REMARK    2  A    between atoms: S1_3  and  C3_6 
REMARK    3  A    between atoms: C6_9  and  N1_10 
ROOT
HETATM    1  C3  UNL     1      24.658   0.422  53.377  1.00  0.00     0.155 A 
HETATM    2  C4  UNL     1      24.202   1.355  52.494  1.00  0.00     0.062 A 
HETATM    3  C5  UNL     1      22.956   1.280  51.930  1.00  0.00     0.043 A 
HETATM    4  C6  UNL     1      22.577   2.269  51.046  1.00  0.00     0.148 A 
HETATM    5  N2  UNL     1      21.328   2.141  50.518  1.00  0.00    -0.223 NA
HETATM    6  C13 UNL     1      20.512   1.122  50.831  1.00  0.00     0.236 A 
HETATM    7  N3  UNL     1      20.905   0.178  51.689  1.00  0.00    -0.240 NA
HETATM    8  C14 UNL     1      22.107   0.227  52.250  1.00  0.00     0.089 A 
HETATM    9  C15 UNL     1      22.590  -0.713  53.152  1.00  0.00     0.150 A 
HETATM   10  N4  UNL     1      23.830  -0.615  53.696  1.00  0.00    -0.246 NA
ENDROOT
BRANCH   4  11
HETATM   11  N1  UNL     1      23.438   3.348  50.712  1.00  0.00    -0.307 N 
HETATM   12  C7  UNL     1      24.444   3.281  49.694  1.00  0.00     0.099 A 
HETATM   13  C8  UNL     1      25.238   4.297  49.398  1.00  0.00     0.018 A 
HETATM   14  C9  UNL     1      25.125   5.584  50.117  1.00  0.00     0.004 A 
HETATM   15  C10 UNL     1      24.219   5.759  51.089  1.00  0.00     0.029 A 
HETATM   16  C11 UNL     1      23.375   4.607  51.371  1.00  0.00     0.031 A 
HETATM   17  C12 UNL     1      22.477   4.769  52.330  1.00  0.00     0.043 C 
ENDBRANCH   4  11
BRANCH   1  18
HETATM   18  S1  UNL     1      26.194   0.352  54.185  1.00  0.00     0.213 S 
HETATM   19  O1  UNL     1      26.704   1.686  54.593  1.00  0.00    -0.217 OA
HETATM   20  O2  UNL     1      26.074  -0.532  55.396  1.00  0.00    -0.217 OA
BRANCH  18  21
HETATM   21  C2  UNL     1      27.394  -0.406  53.128  1.00  0.00     0.105 C 
HETATM   22  C1  UNL     1      27.068  -1.621  52.708  1.00  0.00     0.024 C 
ENDBRANCH  18  21
ENDBRANCH   1  18
TORSDOF 3
ENDMDL
MODEL 5
REMARK VINA RESULT:      -7.5      2.831      5.824
REMARK  3 active torsions:
REMARK  status: ('A' for Active; 'I' for Inactive)
REMARK    1  A    between atoms: C2_2  and  S1_3 
REMARK    2  A    between atoms: S1_3  and  C3_6 
REMARK    3  A    between atoms: C6_9  and  N1_10 
ROOT
HETATM    1  C3  UNL     1      26.520   1.756  52.619  1.00  0.00     0.155 A 
HETATM    2  C4  UNL     1      25.194   1.473  52.476  1.00  0.00     0.062 A 
HETATM    3  C5  UNL     1      24.460   1.928  51.414  1.00  0.00     0.043 A 
HETATM    4  C6  UNL     1      23.123   1.593  51.350  1.00  0.00     0.148 A 
HETATM    5  N2  UNL     1      22.445   2.073  50.271  1.00  0.00    -0.223 NA
HETATM    6  C13 UNL     1      23.031   2.824  49.326  1.00  0.00     0.236 A 
HETATM    7  N3  UNL     1      24.327   3.134  49.412  1.00  0.00    -0.240 NA
HETATM    8  C14 UNL     1      25.062   2.707  50.432  1.00  0.00     0.089 A 
HETATM    9  C15 UNL     1      26.413   2.983  50.595  1.00  0.00     0.150 A 
HETATM   10  N4  UNL     1      27.117   2.520  51.659  1.00  0.00    -0.246 NA
ENDROOT
BRANCH   4  11
HETATM   11  N1  UNL     1      22.500   0.799  52.349  1.00  0.00    -0.307 N 
HETATM   12  C7  UNL     1      22.963  -0.499  52.741  1.00  0.00     0.099 A 
HETATM   13  C8  UNL     1      22.369  -1.225  53.674  1.00  0.00     0.018 A 
HETATM   14  C9  UNL     1      21.170  -0.723  54.377  1.00  0.00     0.004 A 
HETATM   15  C10 UNL     1      20.650   0.478  54.092  1.00  0.00     0.029 A 
HETATM   16  C11 UNL     1      21.344   1.230  53.058  1.00  0.00     0.031 A 
HETATM   17  C12 UNL     1      20.838   2.418  52.767  1.00  0.00     0.043 C 
ENDBRANCH   4  11
BRANCH   1  18
HETATM   18  S1  UNL     1      27.603   1.272  53.888  1.00  0.00     0.213 S 
HETATM   19  O1  UNL     1      28.627   2.300  54.210  1.00  0.00    -0.217 OA
HETATM   20  O2  UNL     1      26.805   0.953  55.122  1.00  0.00    -0.217 OA
BRANCH  18  21
HETATM   21  C2  UNL     1      28.435  -0.221  53.429  1.00  0.00     0.105 C 
HETATM   22  C1  UNL     1      29.743  -0.211  53.651  1.00  0.00     0.024 C 
ENDBRANCH  18  21
ENDBRANCH   1  18
TORSDOF 3
ENDMDL
MODEL 6
REMARK VINA RESULT:      -7.1      3.118      5.840
REMARK  3 active torsions:
REMARK  status: ('A' for Active; 'I' for Inactive)
REMARK    1  A    between atoms: C2_2  and  S1_3 
REMARK    2  A    between atoms: S1_3  and  C3_6 
REMARK    3  A    between atoms: C6_9  and  N1_10 
ROOT
HETATM    1  C3  UNL     1      23.879  -0.167  53.574  1.00  0.00     0.155 A 
HETATM    2  C4  UNL     1      23.056   0.458  52.685  1.00  0.00     0.062 A 
HETATM    3  C5  UNL     1      21.701   0.258  52.679  1.00  0.00     0.043 A 
HETATM    4  C6  UNL     1      20.944   0.932  51.743  1.00  0.00     0.148 A 
HETATM    5  N2  UNL     1      19.603   0.693  51.786  1.00  0.00    -0.223 NA
HETATM    6  C13 UNL     1      19.047  -0.142  52.677  1.00  0.00     0.236 A 
HETATM    7  N3  UNL     1      19.803  -0.783  53.571  1.00  0.00    -0.240 NA
HETATM    8  C14 UNL     1      21.119  -0.607  53.599  1.00  0.00     0.089 A 
HETATM    9  C15 UNL     1      21.975  -1.233  54.496  1.00  0.00     0.150 A 
HETATM   10  N4  UNL     1      23.314  -1.017  54.480  1.00  0.00    -0.246 NA
ENDROOT
BRANCH   4  11
HETATM   11  N1  UNL     1      21.530   1.816  50.799  1.00  0.00    -0.307 N 
HETATM   12  C7  UNL     1      22.040   1.402  49.527  1.00  0.00     0.099 A 
HETATM   13  C8  UNL     1      22.584   2.240  48.660  1.00  0.00     0.018 A 
HETATM   14  C9  UNL     1      22.695   3.682  48.966  1.00  0.00     0.004 A 
HETATM   15  C10 UNL     1      22.250   4.181  50.128  1.00  0.00     0.029 A 
HETATM   16  C11 UNL     1      21.663   3.212  51.041  1.00  0.00     0.031 A 
HETATM   17  C12 UNL     1      21.221   3.695  52.191  1.00  0.00     0.043 C 
ENDBRANCH   4  11
BRANCH   1  18
HETATM   18  S1  UNL     1      25.604  -0.038  53.730  1.00  0.00     0.213 S 
HETATM   19  O1  UNL     1      26.096  -0.356  55.096  1.00  0.00    -0.217 OA
HETATM   20  O2  UNL     1      26.259  -0.956  52.735  1.00  0.00    -0.217 OA
BRANCH  18  21
HETATM   21  C2  UNL     1      26.124   1.602  53.317  1.00  0.00     0.105 C 
HETATM   22  C1  UNL     1      26.722   1.709  52.139  1.00  0.00     0.024 C 
ENDBRANCH  18  21
ENDBRANCH   1  18
TORSDOF 3
ENDMDL
MODEL 7
REMARK VINA RESULT:      -7.0      3.468      6.686
REMARK  3 active torsions:
REMARK  status: ('A' for Active; 'I' for Inactive)
REMARK    1  A    between atoms: C2_2  and  S1_3 
REMARK    2  A    between atoms: S1_3  and  C3_6 
REMARK    3  A    between atoms: C6_9  and  N1_10 
ROOT
HETATM    1  C3  UNL     1      23.575  -0.162  53.502  1.00  0.00     0.155 A 
HETATM    2  C4  UNL     1      23.437   0.890  52.647  1.00  0.00     0.062 A 
HETATM    3  C5  UNL     1      24.508   1.468  52.018  1.00  0.00     0.043 A 
HETATM    4  C6  UNL     1      24.274   2.529  51.168  1.00  0.00     0.148 A 
HETATM    5  N2  UNL     1      25.378   3.061  50.572  1.00  0.00    -0.223 NA
HETATM    6  C13 UNL     1      26.615   2.590  50.792  1.00  0.00     0.236 A 
HETATM    7  N3  UNL     1      26.813   1.562  51.620  1.00  0.00    -0.240 NA
HETATM    8  C14 UNL     1      25.792   0.985  52.242  1.00  0.00     0.089 A 
HETATM    9  C15 UNL     1      25.913  -0.087  53.117  1.00  0.00     0.150 A 
HETATM   10  N4  UNL     1      24.834  -0.641  53.727  1.00  0.00    -0.246 NA
ENDROOT
BRANCH   4  11
HETATM   11  N1  UNL     1      22.966   3.029  50.933  1.00  0.00    -0.307 N 
HETATM   12  C7  UNL     1      22.068   2.490  49.956  1.00  0.00     0.099 A 
HETATM   13  C8  UNL     1      20.852   2.970  49.752  1.00  0.00     0.018 A 
HETATM   14  C9  UNL     1      20.345   4.113  50.539  1.00  0.00     0.004 A 
HETATM   15  C10 UNL     1      21.099   4.696  51.482  1.00  0.00     0.029 A 
HETATM   16  C11 UNL     1      22.426   4.126  51.661  1.00  0.00     0.031 A 
HETATM   17  C12 UNL     1      23.180   4.695  52.588  1.00  0.00     0.043 C 
ENDBRANCH   4  11
BRANCH   1  18
HETATM   18  S1  UNL     1      22.345  -1.014  54.383  1.00  0.00     0.213 S 
HETATM   19  O1  UNL     1      21.835  -2.213  53.668  1.00  0.00    -0.217 OA
HETATM   20  O2  UNL     1      22.891  -1.422  55.723  1.00  0.00    -0.217 OA
BRANCH  18  21
HETATM   21  C2  UNL     1      20.981   0.067  54.705  1.00  0.00     0.105 C 
HETATM   22  C1  UNL     1      20.052   0.076  53.758  1.00  0.00     0.024 C 
ENDBRANCH  18  21
ENDBRANCH   1  18
TORSDOF 3
ENDMDL
MODEL 8
REMARK VINA RESULT:      -6.8      1.468      2.164
REMARK  3 active torsions:
REMARK  status: ('A' for Active; 'I' for Inactive)
REMARK    1  A    between atoms: C2_2  and  S1_3 
REMARK    2  A    between atoms: S1_3  and  C3_6 
REMARK    3  A    between atoms: C6_9  and  N1_10 
ROOT
HETATM    1  C3  UNL     1      23.411   2.046  51.427  1.00  0.00     0.155 A 
HETATM    2  C4  UNL     1      24.094   1.143  52.186  1.00  0.00     0.062 A 
HETATM    3  C5  UNL     1      23.486   0.399  53.161  1.00  0.00     0.043 A 
HETATM    4  C6  UNL     1      24.256  -0.492  53.881  1.00  0.00     0.148 A 
HETATM    5  N2  UNL     1      23.595  -1.204  54.836  1.00  0.00    -0.223 NA
HETATM    6  C13 UNL     1      22.282  -1.056  55.068  1.00  0.00     0.236 A 
HETATM    7  N3  UNL     1      21.560  -0.187  54.357  1.00  0.00    -0.240 NA
HETATM    8  C14 UNL     1      22.126   0.548  53.406  1.00  0.00     0.089 A 
HETATM    9  C15 UNL     1      21.447   1.472  52.622  1.00  0.00     0.150 A 
HETATM   10  N4  UNL     1      22.075   2.198  51.663  1.00  0.00    -0.246 NA
ENDROOT
BRANCH   4  11
HETATM   11  N1  UNL     1      25.645  -0.650  53.637  1.00  0.00    -0.307 N 
HETATM   12  C7  UNL     1      26.191  -1.593  52.707  1.00  0.00     0.099 A 
HETATM   13  C8  UNL     1      27.490  -1.727  52.494  1.00  0.00     0.018 A 
HETATM   14  C9  UNL     1      28.468  -0.890  53.220  1.00  0.00     0.004 A 
HETATM   15  C10 UNL     1      28.070   0.026  54.114  1.00  0.00     0.029 A 
HETATM   16  C11 UNL     1      26.632   0.127  54.307  1.00  0.00     0.031 A 
HETATM   17  C12 UNL     1      26.228   1.028  55.188  1.00  0.00     0.043 C 
ENDBRANCH   4  11
BRANCH   1  18
HETATM   18  S1  UNL     1      24.008   3.071  50.158  1.00  0.00     0.213 S 
HETATM   19  O1  UNL     1      25.491   3.085  50.064  1.00  0.00    -0.217 OA
HETATM   20  O2  UNL     1      23.426   2.622  48.846  1.00  0.00    -0.217 OA
BRANCH  18  21
HETATM   21  C2  UNL     1      23.449   4.730  50.414  1.00  0.00     0.105 C 
HETATM   22  C1  UNL     1      23.850   5.275  51.555  1.00  0.00     0.024 C 
ENDBRANCH  18  21
ENDBRANCH   1  18
TORSDOF 3
ENDMDL
MODEL 9
REMARK VINA RESULT:      -6.6      3.283      6.617
REMARK  3 active torsions:
REMARK  status: ('A' for Active; 'I' for Inactive)
REMARK    1  A    between atoms: C2_2  and  S1_3 
REMARK    2  A    between atoms: S1_3  and  C3_6 
REMARK    3  A    between atoms: C6_9  and  N1_10 
ROOT
HETATM    1  C3  UNL     1      25.671   2.827  51.216  1.00  0.00     0.155 A 
HETATM    2  C4  UNL     1      24.322   2.803  51.023  1.00  0.00     0.062 A 
HETATM    3  C5  UNL     1      23.704   3.587  50.087  1.00  0.00     0.043 A 
HETATM    4  C6  UNL     1      22.332   3.497  49.960  1.00  0.00     0.148 A 
HETATM    5  N2  UNL     1      21.774   4.301  49.012  1.00  0.00    -0.223 NA
HETATM    6  C13 UNL     1      22.502   5.130  48.248  1.00  0.00     0.236 A 
HETATM    7  N3  UNL     1      23.827   5.197  48.392  1.00  0.00    -0.240 NA
HETATM    8  C14 UNL     1      24.452   4.448  49.292  1.00  0.00     0.089 A 
HETATM    9  C15 UNL     1      25.825   4.458  49.504  1.00  0.00     0.150 A 
HETATM   10  N4  UNL     1      26.413   3.670  50.439  1.00  0.00    -0.246 NA
ENDROOT
BRANCH   4  11
HETATM   11  N1  UNL     1      21.560   2.622  50.768  1.00  0.00    -0.307 N 
HETATM   12  C7  UNL     1      21.125   2.937  52.096  1.00  0.00     0.099 A 
HETATM   13  C8  UNL     1      20.405   2.107  52.834  1.00  0.00     0.018 A 
HETATM   14  C9  UNL     1      20.003   0.783  52.315  1.00  0.00     0.004 A 
HETATM   15  C10 UNL     1      20.354   0.384  51.085  1.00  0.00     0.029 A 
HETATM   16  C11 UNL     1      21.145   1.336  50.321  1.00  0.00     0.031 A 
HETATM   17  C12 UNL     1      21.497   0.952  49.104  1.00  0.00     0.043 C 
ENDBRANCH   4  11
BRANCH   1  18
HETATM   18  S1  UNL     1      26.623   1.914  52.346  1.00  0.00     0.213 S 
HETATM   19  O1  UNL     1      28.047   2.337  52.392  1.00  0.00    -0.217 OA
HETATM   20  O2  UNL     1      26.017   2.039  53.716  1.00  0.00    -0.217 OA
BRANCH  18  21
HETATM   21  C2  UNL     1      26.565   0.195  51.927  1.00  0.00     0.105 C 
HETATM   22  C1  UNL     1      27.117  -0.608  52.826  1.00  0.00     0.024 C 
ENDBRANCH  18  21
ENDBRANCH   1  18
TORSDOF 3
ENDMDL
