MODEL 1
REMARK VINA RESULT:      -8.7      0.000      0.000
REMARK  5 active torsions:
REMARK  status: ('A' for Active; 'I' for Inactive)
REMARK    1  A    between atoms: O1_2  and  C2_3 
REMARK    2  A    between atoms: C7_8  and  N1_9 
REMARK       I    between atoms: N1_9  and  C8_10 
REMARK    3  A    between atoms: C8_10  and  C9_12 
REMARK    4  A    between atoms: C10_13  and  C11_14 
REMARK    5  A    between atoms: C11_14  and  N2_16 
ROOT
HETATM    1  C2  UNL     1      21.510   2.436  51.438  1.00  0.00     0.097 A 
HETATM    2  C3  UNL     1      22.805   1.994  51.607  1.00  0.00     0.071 A 
HETATM    3  C4  UNL     1      23.230   1.042  52.511  1.00  0.00     0.068 A 
HETATM    4  C5  UNL     1      22.230   0.507  53.299  1.00  0.00     0.045 A 
HETATM    5  C6  UNL     1      20.930   0.926  53.157  1.00  0.00     0.050 A 
HETATM    6  C7  UNL     1      20.514   1.877  52.253  1.00  0.00     0.069 A 
HETATM    7  C17 UNL     1      22.468  -0.452  54.226  1.00  0.00     0.180 C 
HETATM    8  F1  UNL     1      21.378  -0.917  54.957  1.00  0.00    -0.192 F 
HETATM    9  N3  UNL     1      23.839  -0.896  54.351  1.00  0.00    -0.245 NA
HETATM   10  C18 UNL     1      25.069  -0.905  55.132  1.00  0.00     0.064 C 
HETATM   11  C19 UNL     1      26.084  -0.097  54.870  1.00  0.00     0.013 C 
HETATM   12  C20 UNL     1      27.232   0.748  54.650  1.00  0.00     0.020 C 
HETATM   13  C21 UNL     1      27.213   1.604  53.612  1.00  0.00     0.013 C 
HETATM   14 CL1  UNL     1      28.729   2.534  53.589  1.00  0.00    -0.089 Cl
HETATM   15  C22 UNL     1      26.470   1.967  52.412  1.00  0.00     0.073 C 
HETATM   16  C23 UNL     1      25.517   0.976  51.862  1.00  0.00     0.155 C 
HETATM   17  N4  UNL     1      24.408   0.584  52.644  1.00  0.00    -0.288 NA
HETATM   18  H21 UNL     1      23.606  -0.256  55.187  1.00  0.00     0.135 HD
ENDROOT
BRANCH   6  19
HETATM   19  N1  UNL     1      19.212   2.356  52.050  1.00  0.00    -0.321 N 
HETATM   20  C8  UNL     1      18.079   1.788  51.406  1.00  0.00     0.245 C 
HETATM   21  O2  UNL     1      18.152   0.639  50.884  1.00  0.00    -0.268 OA
HETATM   22  H6  UNL     1      19.182   3.301  52.484  1.00  0.00     0.169 HD
BRANCH  20  23
HETATM   23  C9  UNL     1      16.839   2.539  51.357  1.00  0.00     0.072 C 
HETATM   24  C10 UNL     1      15.734   2.002  51.850  1.00  0.00     0.013 C 
BRANCH  24  25
HETATM   25  C11 UNL     1      14.445   2.757  51.810  1.00  0.00     0.242 C 
HETATM   26  C12 UNL     1      13.485   2.086  50.850  1.00  0.00     0.047 C 
BRANCH  25  27
HETATM   27  N2  UNL     1      13.890   2.843  53.133  1.00  0.00     0.100 N 
HETATM   28  C13 UNL     1      12.598   2.233  53.231  1.00  0.00     0.299 C 
HETATM   29  C14 UNL     1      11.939   2.565  54.550  1.00  0.00     0.198 C 
HETATM   30  O3  UNL     1      11.776   3.940  54.706  1.00  0.00    -0.388 OA
HETATM   31  C15 UNL     1      12.366   4.634  53.652  1.00  0.00     0.198 C 
HETATM   32  C16 UNL     1      13.794   4.233  53.509  1.00  0.00     0.299 C 
ENDBRANCH  25  27
ENDBRANCH  24  25
ENDBRANCH  20  23
ENDBRANCH   6  19
BRANCH   1  33
HETATM   33  O1  UNL     1      21.178   3.400  50.499  1.00  0.00    -0.354 OA
HETATM   34  C1  UNL     1      21.699   4.701  50.666  1.00  0.00     0.210 C 
ENDBRANCH   1  33
TORSDOF 5
ENDMDL
MODEL 2
REMARK VINA RESULT:      -8.7      6.374      9.618
REMARK  5 active torsions:
REMARK  status: ('A' for Active; 'I' for Inactive)
REMARK    1  A    between atoms: O1_2  and  C2_3 
REMARK    2  A    between atoms: C7_8  and  N1_9 
REMARK       I    between atoms: N1_9  and  C8_10 
REMARK    3  A    between atoms: C8_10  and  C9_12 
REMARK    4  A    between atoms: C10_13  and  C11_14 
REMARK    5  A    between atoms: C11_14  and  N2_16 
ROOT
HETATM    1  C2  UNL     1      25.630   5.734  49.438  1.00  0.00     0.097 A 
HETATM    2  C3  UNL     1      26.123   6.899  48.888  1.00  0.00     0.071 A 
HETATM    3  C4  UNL     1      27.360   7.062  48.300  1.00  0.00     0.068 A 
HETATM    4  C5  UNL     1      28.145   5.927  48.281  1.00  0.00     0.045 A 
HETATM    5  C6  UNL     1      27.685   4.751  48.821  1.00  0.00     0.050 A 
HETATM    6  C7  UNL     1      26.449   4.596  49.407  1.00  0.00     0.069 A 
HETATM    7  C17 UNL     1      29.381   5.906  47.726  1.00  0.00     0.180 C 
HETATM    8  F1  UNL     1      30.077   4.700  47.764  1.00  0.00    -0.192 F 
HETATM    9  N3  UNL     1      29.844   7.146  47.144  1.00  0.00    -0.245 NA
HETATM   10  C18 UNL     1      30.733   8.297  47.233  1.00  0.00     0.064 C 
HETATM   11  C19 UNL     1      30.335   9.470  47.700  1.00  0.00     0.013 C 
HETATM   12  C20 UNL     1      29.980  10.777  48.195  1.00  0.00     0.020 C 
HETATM   13  C21 UNL     1      28.709  10.999  48.577  1.00  0.00     0.013 C 
HETATM   14 CL1  UNL     1      28.554  12.671  49.163  1.00  0.00    -0.089 Cl
HETATM   15  C22 UNL     1      27.370  10.423  48.568  1.00  0.00     0.073 C 
HETATM   16  C23 UNL     1      27.096   9.325  47.614  1.00  0.00     0.155 C 
HETATM   17  N4  UNL     1      27.809   8.112  47.741  1.00  0.00    -0.288 NA
HETATM   18  H21 UNL     1      30.349   6.997  48.085  1.00  0.00     0.135 HD
ENDROOT
BRANCH   6  19
HETATM   19  N1  UNL     1      25.911   3.434  49.979  1.00  0.00    -0.321 N 
HETATM   20  C8  UNL     1      26.377   2.579  51.015  1.00  0.00     0.245 C 
HETATM   21  O2  UNL     1      27.474   2.822  51.596  1.00  0.00    -0.268 OA
HETATM   22  H6  UNL     1      25.015   3.257  49.481  1.00  0.00     0.169 HD
BRANCH  20  23
HETATM   23  C9  UNL     1      25.582   1.429  51.399  1.00  0.00     0.072 C 
HETATM   24  C10 UNL     1      24.876   1.472  52.518  1.00  0.00     0.013 C 
BRANCH  24  25
HETATM   25  C11 UNL     1      24.049   0.299  52.934  1.00  0.00     0.242 C 
HETATM   26  C12 UNL     1      24.754  -0.463  54.037  1.00  0.00     0.047 C 
BRANCH  25  27
HETATM   27  N2  UNL     1      22.748   0.744  53.352  1.00  0.00     0.100 N 
HETATM   28  C13 UNL     1      22.011  -0.273  54.040  1.00  0.00     0.299 C 
HETATM   29  C14 UNL     1      20.569   0.138  54.233  1.00  0.00     0.198 C 
HETATM   30  O3  UNL     1      19.938   0.373  53.013  1.00  0.00    -0.388 OA
HETATM   31  C15 UNL     1      20.842   0.272  51.958  1.00  0.00     0.198 C 
HETATM   32  C16 UNL     1      22.006   1.172  52.191  1.00  0.00     0.299 C 
ENDBRANCH  25  27
ENDBRANCH  24  25
ENDBRANCH  20  23
ENDBRANCH   6  19
BRANCH   1  33
HETATM   33  O1  UNL     1      24.369   5.666  50.009  1.00  0.00    -0.354 OA
HETATM   34  C1  UNL     1      24.123   6.419  51.176  1.00  0.00     0.210 C 
ENDBRANCH   1  33
TORSDOF 5
ENDMDL
MODEL 3
REMARK VINA RESULT:      -8.6      6.972     10.463
REMARK  5 active torsions:
REMARK  status: ('A' for Active; 'I' for Inactive)
REMARK    1  A    between atoms: O1_2  and  C2_3 
REMARK    2  A    between atoms: C7_8  and  N1_9 
REMARK       I    between atoms: N1_9  and  C8_10 
REMARK    3  A    between atoms: C8_10  and  C9_12 
REMARK    4  A    between atoms: C10_13  and  C11_14 
REMARK    5  A    between atoms: C11_14  and  N2_16 
ROOT
HETATM    1  C2  UNL     1      25.199   6.241  50.073  1.00  0.00     0.097 A 
HETATM    2  C3  UNL     1      25.713   7.336  49.411  1.00  0.00     0.071 A 
HETATM    3  C4  UNL     1      26.870   7.365  48.660  1.00  0.00     0.068 A 
HETATM    4  C5  UNL     1      27.543   6.162  48.590  1.00  0.00     0.045 A 
HETATM    5  C6  UNL     1      27.060   5.052  49.238  1.00  0.00     0.050 A 
HETATM    6  C7  UNL     1      25.905   5.031  49.987  1.00  0.00     0.069 A 
HETATM    7  C17 UNL     1      28.687   6.009  47.879  1.00  0.00     0.180 C 
HETATM    8  F1  UNL     1      29.274   4.745  47.880  1.00  0.00    -0.192 F 
HETATM    9  N3  UNL     1      29.174   7.181  47.187  1.00  0.00    -0.245 NA
HETATM   10  C18 UNL     1      30.164   8.247  47.107  1.00  0.00     0.064 C 
HETATM   11  C19 UNL     1      29.936   9.467  47.569  1.00  0.00     0.013 C 
HETATM   12  C20 UNL     1      29.766  10.817  48.046  1.00  0.00     0.020 C 
HETATM   13  C21 UNL     1      28.582  11.167  48.580  1.00  0.00     0.013 C 
HETATM   14 CL1  UNL     1      28.653  12.865  49.106  1.00  0.00    -0.089 Cl
HETATM   15  C22 UNL     1      27.209  10.718  48.773  1.00  0.00     0.073 C 
HETATM   16  C23 UNL     1      26.714   9.619  47.913  1.00  0.00     0.155 C 
HETATM   17  N4  UNL     1      27.329   8.349  48.000  1.00  0.00    -0.288 NA
HETATM   18  H21 UNL     1      29.786   7.017  48.060  1.00  0.00     0.135 HD
ENDROOT
BRANCH   6  19
HETATM   19  N1  UNL     1      25.349   3.944  50.676  1.00  0.00    -0.321 N 
HETATM   20  C8  UNL     1      24.364   2.987  50.308  1.00  0.00     0.245 C 
HETATM   21  O2  UNL     1      23.822   3.037  49.166  1.00  0.00    -0.268 OA
HETATM   22  H6  UNL     1      25.809   3.929  51.609  1.00  0.00     0.169 HD
BRANCH  20  23
HETATM   23  C9  UNL     1      23.989   1.954  51.254  1.00  0.00     0.072 C 
HETATM   24  C10 UNL     1      24.479   1.989  52.483  1.00  0.00     0.013 C 
BRANCH  24  25
HETATM   25  C11 UNL     1      24.108   0.935  53.475  1.00  0.00     0.242 C 
HETATM   26  C12 UNL     1      23.174  -0.070  52.833  1.00  0.00     0.047 C 
BRANCH  25  27
HETATM   27  N2  UNL     1      25.294   0.302  53.981  1.00  0.00     0.100 N 
HETATM   28  C13 UNL     1      26.418   1.188  54.023  1.00  0.00     0.299 C 
HETATM   29  C14 UNL     1      27.695   0.432  54.309  1.00  0.00     0.198 C 
HETATM   30  O3  UNL     1      27.947  -0.532  53.335  1.00  0.00    -0.388 OA
HETATM   31  C15 UNL     1      26.894  -0.606  52.426  1.00  0.00     0.198 C 
HETATM   32  C16 UNL     1      25.609  -0.832  53.146  1.00  0.00     0.299 C 
ENDBRANCH  25  27
ENDBRANCH  24  25
ENDBRANCH  20  23
ENDBRANCH   6  19
BRANCH   1  33
HETATM   33  O1  UNL     1      24.025   6.308  50.806  1.00  0.00    -0.354 OA
HETATM   34  C1  UNL     1      23.204   7.445  50.650  1.00  0.00     0.210 C 
ENDBRANCH   1  33
TORSDOF 5
ENDMDL
MODEL 4
REMARK VINA RESULT:      -8.6      4.304     10.341
REMARK  5 active torsions:
REMARK  status: ('A' for Active; 'I' for Inactive)
REMARK    1  A    between atoms: O1_2  and  C2_3 
REMARK    2  A    between atoms: C7_8  and  N1_9 
REMARK       I    between atoms: N1_9  and  C8_10 
REMARK    3  A    between atoms: C8_10  and  C9_12 
REMARK    4  A    between atoms: C10_13  and  C11_14 
REMARK    5  A    between atoms: C11_14  and  N2_16 
ROOT
HETATM    1  C2  UNL     1      20.331   0.747  51.913  1.00  0.00     0.097 A 
HETATM    2  C3  UNL     1      19.013   0.912  51.541  1.00  0.00     0.071 A 
HETATM    3  C4  UNL     1      17.948   0.137  51.952  1.00  0.00     0.068 A 
HETATM    4  C5  UNL     1      18.278  -0.887  52.818  1.00  0.00     0.045 A 
HETATM    5  C6  UNL     1      19.580  -1.079  53.207  1.00  0.00     0.050 A 
HETATM    6  C7  UNL     1      20.638  -0.303  52.792  1.00  0.00     0.069 A 
HETATM    7  C17 UNL     1      17.351  -1.730  53.333  1.00  0.00     0.180 C 
HETATM    8  F1  UNL     1      17.804  -2.723  54.199  1.00  0.00    -0.192 F 
HETATM    9  N3  UNL     1      15.981  -1.504  52.929  1.00  0.00    -0.245 NA
HETATM   10  C18 UNL     1      14.835  -1.942  52.142  1.00  0.00     0.064 C 
HETATM   11  C19 UNL     1      14.541  -1.419  50.961  1.00  0.00     0.013 C 
HETATM   12  C20 UNL     1      14.153  -0.903  49.672  1.00  0.00     0.020 C 
HETATM   13  C21 UNL     1      14.869   0.104  49.139  1.00  0.00     0.013 C 
HETATM   14 CL1  UNL     1      14.196   0.526  47.548  1.00  0.00    -0.089 Cl
HETATM   15  C22 UNL     1      15.914   1.077  49.432  1.00  0.00     0.073 C 
HETATM   16  C23 UNL     1      16.222   1.353  50.854  1.00  0.00     0.155 C 
HETATM   17  N4  UNL     1      16.722   0.308  51.663  1.00  0.00    -0.288 NA
HETATM   18  H21 UNL     1      16.358  -2.365  52.400  1.00  0.00     0.135 HD
ENDROOT
BRANCH   6  19
HETATM   19  N1  UNL     1      21.989  -0.437  53.142  1.00  0.00    -0.321 N 
HETATM   20  C8  UNL     1      22.624  -0.854  54.344  1.00  0.00     0.245 C 
HETATM   21  O2  UNL     1      21.931  -1.188  55.348  1.00  0.00    -0.268 OA
HETATM   22  H6  UNL     1      22.534  -0.154  52.302  1.00  0.00     0.169 HD
BRANCH  20  23
HETATM   23  C9  UNL     1      24.072  -0.894  54.405  1.00  0.00     0.072 C 
HETATM   24  C10 UNL     1      24.776  -0.666  53.308  1.00  0.00     0.013 C 
BRANCH  24  25
HETATM   25  C11 UNL     1      26.269  -0.702  53.346  1.00  0.00     0.242 C 
HETATM   26  C12 UNL     1      26.814  -0.970  51.959  1.00  0.00     0.047 C 
BRANCH  25  27
HETATM   27  N2  UNL     1      26.773   0.533  53.879  1.00  0.00     0.100 N 
HETATM   28  C13 UNL     1      27.442   1.328  52.895  1.00  0.00     0.299 C 
HETATM   29  C14 UNL     1      28.177   2.482  53.535  1.00  0.00     0.198 C 
HETATM   30  O3  UNL     1      29.133   2.036  54.446  1.00  0.00    -0.388 OA
HETATM   31  C15 UNL     1      29.069   0.653  54.595  1.00  0.00     0.198 C 
HETATM   32  C16 UNL     1      27.685   0.238  54.958  1.00  0.00     0.299 C 
ENDBRANCH  25  27
ENDBRANCH  24  25
ENDBRANCH  20  23
ENDBRANCH   6  19
BRANCH   1  33
HETATM   33  O1  UNL     1      21.337   1.578  51.447  1.00  0.00    -0.354 OA
HETATM   34  C1  UNL     1      20.980   2.649  50.600  1.00  0.00     0.210 C 
ENDBRANCH   1  33
TORSDOF 5
ENDMDL
MODEL 5
REMARK VINA RESULT:      -8.5      5.460     11.159
REMARK  5 active torsions:
REMARK  status: ('A' for Active; 'I' for Inactive)
REMARK    1  A    between atoms: O1_2  and  C2_3 
REMARK    2  A    between atoms: C7_8  and  N1_9 
REMARK       I    between atoms: N1_9  and  C8_10 
REMARK    3  A    between atoms: C8_10  and  C9_12 
REMARK    4  A    between atoms: C10_13  and  C11_14 
REMARK    5  A    between atoms: C11_14  and  N2_16 
ROOT
HETATM    1  C2  UNL     1      23.022   3.363  49.762  1.00  0.00     0.097 A 
HETATM    2  C3  UNL     1      21.868   2.946  50.392  1.00  0.00     0.071 A 
HETATM    3  C4  UNL     1      21.796   2.170  51.531  1.00  0.00     0.068 A 
HETATM    4  C5  UNL     1      23.019   1.800  52.056  1.00  0.00     0.045 A 
HETATM    5  C6  UNL     1      24.186   2.197  51.453  1.00  0.00     0.050 A 
HETATM    6  C7  UNL     1      24.251   2.970  50.316  1.00  0.00     0.069 A 
HETATM    7  C17 UNL     1      23.130   1.054  53.181  1.00  0.00     0.180 C 
HETATM    8  F1  UNL     1      24.418   0.747  53.617  1.00  0.00    -0.192 F 
HETATM    9  N3  UNL     1      21.893   0.659  53.815  1.00  0.00    -0.245 NA
HETATM   10  C18 UNL     1      20.942  -0.403  54.117  1.00  0.00     0.064 C 
HETATM   11  C19 UNL     1      19.834  -0.588  53.415  1.00  0.00     0.013 C 
HETATM   12  C20 UNL     1      18.610  -0.854  52.703  1.00  0.00     0.020 C 
HETATM   13  C21 UNL     1      18.263  -0.041  51.689  1.00  0.00     0.013 C 
HETATM   14 CL1  UNL     1      16.737  -0.608  50.974  1.00  0.00    -0.089 Cl
HETATM   15  C22 UNL     1      18.601   1.217  51.033  1.00  0.00     0.073 C 
HETATM   16  C23 UNL     1      19.431   2.186  51.784  1.00  0.00     0.155 C 
HETATM   17  N4  UNL     1      20.745   1.822  52.154  1.00  0.00    -0.288 NA
HETATM   18  H21 UNL     1      22.304  -0.195  53.301  1.00  0.00     0.135 HD
ENDROOT
BRANCH   6  19
HETATM   19  N1  UNL     1      25.399   3.413  49.643  1.00  0.00    -0.321 N 
HETATM   20  C8  UNL     1      26.032   4.684  49.577  1.00  0.00     0.245 C 
HETATM   21  O2  UNL     1      25.549   5.670  50.205  1.00  0.00    -0.268 OA
HETATM   22  H6  UNL     1      25.771   2.586  49.135  1.00  0.00     0.169 HD
BRANCH  20  23
HETATM   23  C9  UNL     1      27.236   4.837  48.784  1.00  0.00     0.072 C 
HETATM   24  C10 UNL     1      27.735   6.047  48.587  1.00  0.00     0.013 C 
BRANCH  24  25
HETATM   25  C11 UNL     1      28.975   6.230  47.774  1.00  0.00     0.242 C 
HETATM   26  C12 UNL     1      28.826   7.438  46.873  1.00  0.00     0.047 C 
BRANCH  25  27
HETATM   27  N2  UNL     1      30.113   6.359  48.642  1.00  0.00     0.100 N 
HETATM   28  C13 UNL     1      30.564   7.713  48.764  1.00  0.00     0.299 C 
HETATM   29  C14 UNL     1      31.901   7.779  49.465  1.00  0.00     0.198 C 
HETATM   30  O3  UNL     1      32.876   7.064  48.773  1.00  0.00    -0.388 OA
HETATM   31  C15 UNL     1      32.322   6.394  47.684  1.00  0.00     0.198 C 
HETATM   32  C16 UNL     1      31.185   5.541  48.130  1.00  0.00     0.299 C 
ENDBRANCH  25  27
ENDBRANCH  24  25
ENDBRANCH  20  23
ENDBRANCH   6  19
BRANCH   1  33
HETATM   33  O1  UNL     1      22.996   4.144  48.618  1.00  0.00    -0.354 OA
HETATM   34  C1  UNL     1      22.212   5.318  48.629  1.00  0.00     0.210 C 
ENDBRANCH   1  33
TORSDOF 5
ENDMDL
MODEL 6
REMARK VINA RESULT:      -8.4      6.326      9.245
REMARK  5 active torsions:
REMARK  status: ('A' for Active; 'I' for Inactive)
REMARK    1  A    between atoms: O1_2  and  C2_3 
REMARK    2  A    between atoms: C7_8  and  N1_9 
REMARK       I    between atoms: N1_9  and  C8_10 
REMARK    3  A    between atoms: C8_10  and  C9_12 
REMARK    4  A    between atoms: C10_13  and  C11_14 
REMARK    5  A    between atoms: C11_14  and  N2_16 
ROOT
HETATM    1  C2  UNL     1      24.504   6.611  48.850  1.00  0.00     0.097 A 
HETATM    2  C3  UNL     1      25.276   7.665  48.409  1.00  0.00     0.071 A 
HETATM    3  C4  UNL     1      26.628   7.628  48.139  1.00  0.00     0.068 A 
HETATM    4  C5  UNL     1      27.224   6.399  48.342  1.00  0.00     0.045 A 
HETATM    5  C6  UNL     1      26.485   5.329  48.782  1.00  0.00     0.050 A 
HETATM    6  C7  UNL     1      25.135   5.374  49.050  1.00  0.00     0.069 A 
HETATM    7  C17 UNL     1      28.541   6.182  48.108  1.00  0.00     0.180 C 
HETATM    8  F1  UNL     1      29.027   4.898  48.346  1.00  0.00    -0.192 F 
HETATM    9  N3  UNL     1      29.302   7.313  47.628  1.00  0.00    -0.245 NA
HETATM   10  C18 UNL     1      30.300   8.339  47.904  1.00  0.00     0.064 C 
HETATM   11  C19 UNL     1      29.973   9.580  48.229  1.00  0.00     0.013 C 
HETATM   12  C20 UNL     1      29.701  10.950  48.589  1.00  0.00     0.020 C 
HETATM   13  C21 UNL     1      28.421  11.360  48.641  1.00  0.00     0.013 C 
HETATM   14 CL1  UNL     1      28.370  13.070  49.130  1.00  0.00    -0.089 Cl
HETATM   15  C22 UNL     1      27.055  10.968  48.319  1.00  0.00     0.073 C 
HETATM   16  C23 UNL     1      26.863   9.862  47.354  1.00  0.00     0.155 C 
HETATM   17  N4  UNL     1      27.343   8.574  47.682  1.00  0.00    -0.288 NA
HETATM   18  H21 UNL     1      29.541   7.154  48.668  1.00  0.00     0.135 HD
ENDROOT
BRANCH   6  19
HETATM   19  N1  UNL     1      24.315   4.330  49.501  1.00  0.00    -0.321 N 
HETATM   20  C8  UNL     1      23.826   3.994  50.792  1.00  0.00     0.245 C 
HETATM   21  O2  UNL     1      24.129   4.705  51.793  1.00  0.00    -0.268 OA
HETATM   22  H6  UNL     1      24.085   3.761  48.660  1.00  0.00     0.169 HD
BRANCH  20  23
HETATM   23  C9  UNL     1      22.975   2.830  50.949  1.00  0.00     0.072 C 
HETATM   24  C10 UNL     1      22.429   2.578  52.128  1.00  0.00     0.013 C 
BRANCH  24  25
HETATM   25  C11 UNL     1      21.549   1.385  52.314  1.00  0.00     0.242 C 
HETATM   26  C12 UNL     1      21.722   0.431  51.150  1.00  0.00     0.047 C 
BRANCH  25  27
HETATM   27  N2  UNL     1      21.850   0.747  53.565  1.00  0.00     0.100 N 
HETATM   28  C13 UNL     1      22.814  -0.304  53.432  1.00  0.00     0.299 C 
HETATM   29  C14 UNL     1      22.913  -1.116  54.702  1.00  0.00     0.198 C 
HETATM   30  O3  UNL     1      21.691  -1.697  55.033  1.00  0.00    -0.388 OA
HETATM   31  C15 UNL     1      20.689  -1.277  54.160  1.00  0.00     0.198 C 
HETATM   32  C16 UNL     1      20.632   0.211  54.121  1.00  0.00     0.299 C 
ENDBRANCH  25  27
ENDBRANCH  24  25
ENDBRANCH  20  23
ENDBRANCH   6  19
BRANCH   1  33
HETATM   33  O1  UNL     1      23.146   6.744  49.095  1.00  0.00    -0.354 OA
HETATM   34  C1  UNL     1      22.738   7.587  50.151  1.00  0.00     0.210 C 
ENDBRANCH   1  33
TORSDOF 5
ENDMDL
MODEL 7
REMARK VINA RESULT:      -8.3      2.025      3.033
REMARK  5 active torsions:
REMARK  status: ('A' for Active; 'I' for Inactive)
REMARK    1  A    between atoms: O1_2  and  C2_3 
REMARK    2  A    between atoms: C7_8  and  N1_9 
REMARK       I    between atoms: N1_9  and  C8_10 
REMARK    3  A    between atoms: C8_10  and  C9_12 
REMARK    4  A    between atoms: C10_13  and  C11_14 
REMARK    5  A    between atoms: C11_14  and  N2_16 
ROOT
HETATM    1  C2  UNL     1      20.558   0.931  52.961  1.00  0.00     0.097 A 
HETATM    2  C3  UNL     1      21.877   0.657  53.257  1.00  0.00     0.071 A 
HETATM    3  C4  UNL     1      22.967   1.424  52.902  1.00  0.00     0.068 A 
HETATM    4  C5  UNL     1      22.663   2.564  52.185  1.00  0.00     0.045 A 
HETATM    5  C6  UNL     1      21.361   2.866  51.873  1.00  0.00     0.050 A 
HETATM    6  C7  UNL     1      20.277   2.095  52.229  1.00  0.00     0.069 A 
HETATM    7  C17 UNL     1      23.612   3.439  51.773  1.00  0.00     0.180 C 
HETATM    8  F1  UNL     1      23.183   4.556  51.060  1.00  0.00    -0.192 F 
HETATM    9  N3  UNL     1      24.977   3.118  52.126  1.00  0.00    -0.245 NA
HETATM   10  C18 UNL     1      26.292   2.661  51.693  1.00  0.00     0.064 C 
HETATM   11  C19 UNL     1      26.692   1.407  51.836  1.00  0.00     0.013 C 
HETATM   12  C20 UNL     1      27.202   0.064  51.956  1.00  0.00     0.020 C 
HETATM   13  C21 UNL     1      26.436  -0.866  52.555  1.00  0.00     0.013 C 
HETATM   14 CL1  UNL     1      27.288  -2.427  52.544  1.00  0.00    -0.089 Cl
HETATM   15  C22 UNL     1      25.218  -1.050  53.333  1.00  0.00     0.073 C 
HETATM   16  C23 UNL     1      24.639   0.138  54.002  1.00  0.00     0.155 C 
HETATM   17  N4  UNL     1      24.182   1.216  53.213  1.00  0.00    -0.288 NA
HETATM   18  H21 UNL     1      24.832   2.903  51.079  1.00  0.00     0.135 HD
ENDROOT
BRANCH   6  19
HETATM   19  N1  UNL     1      18.925   2.334  51.947  1.00  0.00    -0.321 N 
HETATM   20  C8  UNL     1      18.105   1.977  50.842  1.00  0.00     0.245 C 
HETATM   21  O2  UNL     1      18.590   1.320  49.876  1.00  0.00    -0.268 OA
HETATM   22  H6  UNL     1      18.555   2.877  52.754  1.00  0.00     0.169 HD
BRANCH  20  23
HETATM   23  C9  UNL     1      16.710   2.372  50.835  1.00  0.00     0.072 C 
HETATM   24  C10 UNL     1      16.288   3.280  51.701  1.00  0.00     0.013 C 
BRANCH  24  25
HETATM   25  C11 UNL     1      14.854   3.703  51.713  1.00  0.00     0.242 C 
HETATM   26  C12 UNL     1      14.145   3.152  50.493  1.00  0.00     0.047 C 
BRANCH  25  27
HETATM   27  N2  UNL     1      14.227   3.264  52.928  1.00  0.00     0.100 N 
HETATM   28  C13 UNL     1      13.052   2.481  52.692  1.00  0.00     0.299 C 
HETATM   29  C14 UNL     1      12.281   2.258  53.973  1.00  0.00     0.198 C 
HETATM   30  O3  UNL     1      11.882   3.464  54.544  1.00  0.00    -0.388 OA
HETATM   31  C15 UNL     1      12.400   4.545  53.835  1.00  0.00     0.198 C 
HETATM   32  C16 UNL     1      13.881   4.421  53.718  1.00  0.00     0.299 C 
ENDBRANCH  25  27
ENDBRANCH  24  25
ENDBRANCH  20  23
ENDBRANCH   6  19
BRANCH   1  33
HETATM   33  O1  UNL     1      19.525   0.097  53.361  1.00  0.00    -0.354 OA
HETATM   34  C1  UNL     1      19.852  -1.194  53.827  1.00  0.00     0.210 C 
ENDBRANCH   1  33
TORSDOF 5
ENDMDL
MODEL 8
REMARK VINA RESULT:      -8.3      6.210     11.935
REMARK  5 active torsions:
REMARK  status: ('A' for Active; 'I' for Inactive)
REMARK    1  A    between atoms: O1_2  and  C2_3 
REMARK    2  A    between atoms: C7_8  and  N1_9 
REMARK       I    between atoms: N1_9  and  C8_10 
REMARK    3  A    between atoms: C8_10  and  C9_12 
REMARK    4  A    between atoms: C10_13  and  C11_14 
REMARK    5  A    between atoms: C11_14  and  N2_16 
ROOT
HETATM    1  C2  UNL     1      24.759   4.783  49.374  1.00  0.00     0.097 A 
HETATM    2  C3  UNL     1      23.863   4.146  50.207  1.00  0.00     0.071 A 
HETATM    3  C4  UNL     1      24.169   3.193  51.157  1.00  0.00     0.068 A 
HETATM    4  C5  UNL     1      25.510   2.879  51.249  1.00  0.00     0.045 A 
HETATM    5  C6  UNL     1      26.429   3.494  50.434  1.00  0.00     0.050 A 
HETATM    6  C7  UNL     1      26.116   4.443  49.488  1.00  0.00     0.069 A 
HETATM    7  C17 UNL     1      25.986   1.978  52.141  1.00  0.00     0.180 C 
HETATM    8  F1  UNL     1      27.361   1.747  52.143  1.00  0.00    -0.192 F 
HETATM    9  N3  UNL     1      25.010   1.353  53.005  1.00  0.00    -0.245 NA
HETATM   10  C18 UNL     1      24.251   0.158  53.353  1.00  0.00     0.064 C 
HETATM   11  C19 UNL     1      23.001  -0.031  52.959  1.00  0.00     0.013 C 
HETATM   12  C20 UNL     1      21.641  -0.312  52.572  1.00  0.00     0.020 C 
HETATM   13  C21 UNL     1      20.969   0.612  51.861  1.00  0.00     0.013 C 
HETATM   14 CL1  UNL     1      19.338   0.004  51.499  1.00  0.00    -0.089 Cl
HETATM   15  C22 UNL     1      21.028   1.988  51.384  1.00  0.00     0.073 C 
HETATM   16  C23 UNL     1      21.981   2.909  52.046  1.00  0.00     0.155 C 
HETATM   17  N4  UNL     1      23.365   2.636  51.968  1.00  0.00    -0.288 NA
HETATM   18  H21 UNL     1      25.305   0.643  52.249  1.00  0.00     0.135 HD
ENDROOT
BRANCH   6  19
HETATM   19  N1  UNL     1      26.993   5.112  48.621  1.00  0.00    -0.321 N 
HETATM   20  C8  UNL     1      27.429   6.464  48.565  1.00  0.00     0.245 C 
HETATM   21  O2  UNL     1      27.005   7.305  49.410  1.00  0.00    -0.268 OA
HETATM   22  H6  UNL     1      27.322   4.399  47.938  1.00  0.00     0.169 HD
BRANCH  20  23
HETATM   23  C9  UNL     1      28.364   6.866  47.533  1.00  0.00     0.072 C 
HETATM   24  C10 UNL     1      29.664   6.793  47.770  1.00  0.00     0.013 C 
BRANCH  24  25
HETATM   25  C11 UNL     1      30.648   7.202  46.722  1.00  0.00     0.242 C 
HETATM   26  C12 UNL     1      31.038   8.652  46.920  1.00  0.00     0.047 C 
BRANCH  25  27
HETATM   27  N2  UNL     1      31.795   6.339  46.766  1.00  0.00     0.100 N 
HETATM   28  C13 UNL     1      31.540   5.115  47.466  1.00  0.00     0.299 C 
HETATM   29  C14 UNL     1      32.821   4.355  47.717  1.00  0.00     0.198 C 
HETATM   30  O3  UNL     1      33.718   5.103  48.477  1.00  0.00    -0.388 OA
HETATM   31  C15 UNL     1      33.228   6.388  48.701  1.00  0.00     0.198 C 
HETATM   32  C16 UNL     1      32.882   7.039  47.406  1.00  0.00     0.299 C 
ENDBRANCH  25  27
ENDBRANCH  24  25
ENDBRANCH  20  23
ENDBRANCH   6  19
BRANCH   1  33
HETATM   33  O1  UNL     1      24.357   5.731  48.447  1.00  0.00    -0.354 OA
HETATM   34  C1  UNL     1      23.507   6.771  48.880  1.00  0.00     0.210 C 
ENDBRANCH   1  33
TORSDOF 5
ENDMDL
MODEL 9
REMARK VINA RESULT:      -8.2      8.596     14.468
REMARK  5 active torsions:
REMARK  status: ('A' for Active; 'I' for Inactive)
REMARK    1  A    between atoms: O1_2  and  C2_3 
REMARK    2  A    between atoms: C7_8  and  N1_9 
REMARK       I    between atoms: N1_9  and  C8_10 
REMARK    3  A    between atoms: C8_10  and  C9_12 
REMARK    4  A    between atoms: C10_13  and  C11_14 
REMARK    5  A    between atoms: C11_14  and  N2_16 
ROOT
HETATM    1  C2  UNL     1      27.856   7.486  48.638  1.00  0.00     0.097 A 
HETATM    2  C3  UNL     1      26.658   7.452  49.320  1.00  0.00     0.071 A 
HETATM    3  C4  UNL     1      25.953   6.320  49.673  1.00  0.00     0.068 A 
HETATM    4  C5  UNL     1      26.541   5.131  49.290  1.00  0.00     0.045 A 
HETATM    5  C6  UNL     1      27.733   5.129  48.609  1.00  0.00     0.050 A 
HETATM    6  C7  UNL     1      28.430   6.263  48.258  1.00  0.00     0.069 A 
HETATM    7  C17 UNL     1      25.992   3.925  49.572  1.00  0.00     0.180 C 
HETATM    8  F1  UNL     1      26.680   2.794  49.137  1.00  0.00    -0.192 F 
HETATM    9  N3  UNL     1      24.747   3.942  50.306  1.00  0.00    -0.245 NA
HETATM   10  C18 UNL     1      23.303   3.745  50.296  1.00  0.00     0.064 C 
HETATM   11  C19 UNL     1      22.448   4.750  50.183  1.00  0.00     0.013 C 
HETATM   12  C20 UNL     1      21.454   5.788  50.064  1.00  0.00     0.020 C 
HETATM   13  C21 UNL     1      21.863   7.068  49.998  1.00  0.00     0.013 C 
HETATM   14 CL1  UNL     1      20.446   8.130  49.831  1.00  0.00    -0.089 Cl
HETATM   15  C22 UNL     1      23.029   7.931  50.145  1.00  0.00     0.073 C 
HETATM   16  C23 UNL     1      24.200   7.392  50.872  1.00  0.00     0.155 C 
HETATM   17  N4  UNL     1      24.877   6.268  50.347  1.00  0.00    -0.288 NA
HETATM   18  H21 UNL     1      24.536   3.709  49.275  1.00  0.00     0.135 HD
ENDROOT
BRANCH   6  19
HETATM   19  N1  UNL     1      29.646   6.342  47.565  1.00  0.00    -0.321 N 
HETATM   20  C8  UNL     1      30.956   5.895  47.888  1.00  0.00     0.245 C 
HETATM   21  O2  UNL     1      31.175   5.301  48.984  1.00  0.00    -0.268 OA
HETATM   22  H6  UNL     1      29.438   6.836  46.674  1.00  0.00     0.169 HD
BRANCH  20  23
HETATM   23  C9  UNL     1      32.037   6.123  46.948  1.00  0.00     0.072 C 
HETATM   24  C10 UNL     1      32.657   5.086  46.407  1.00  0.00     0.013 C 
BRANCH  24  25
HETATM   25  C11 UNL     1      33.773   5.296  45.436  1.00  0.00     0.242 C 
HETATM   26  C12 UNL     1      34.613   4.039  45.337  1.00  0.00     0.047 C 
BRANCH  25  27
HETATM   27  N2  UNL     1      33.241   5.673  44.156  1.00  0.00     0.100 N 
HETATM   28  C13 UNL     1      33.485   4.691  43.143  1.00  0.00     0.299 C 
HETATM   29  C14 UNL     1      33.148   5.227  41.772  1.00  0.00     0.198 C 
HETATM   30  O3  UNL     1      33.906   6.355  41.464  1.00  0.00    -0.388 OA
HETATM   31  C15 UNL     1      34.686   6.741  42.552  1.00  0.00     0.198 C 
HETATM   32  C16 UNL     1      33.830   6.928  43.757  1.00  0.00     0.299 C 
ENDBRANCH  25  27
ENDBRANCH  24  25
ENDBRANCH  20  23
ENDBRANCH   6  19
BRANCH   1  33
HETATM   33  O1  UNL     1      28.493   8.677  48.326  1.00  0.00    -0.354 OA
HETATM   34  C1  UNL     1      29.055   9.429  49.379  1.00  0.00     0.210 C 
ENDBRANCH   1  33
TORSDOF 5
ENDMDL
