MODEL 1
REMARK VINA RESULT:      -8.8      0.000      0.000
REMARK  5 active torsions:
REMARK  status: ('A' for Active; 'I' for Inactive)
REMARK    1  A    between atoms: C6_6  and  C7_7 
REMARK    2  A    between atoms: C7_7  and  N1_8 
REMARK    3  A    between atoms: N1_8  and  C8_9 
REMARK       I    between atoms: N1_8  and  C15_17 
REMARK    4  A    between atoms: C8_9  and  C9_10 
REMARK       I    between atoms: C15_17  and  N2_19 
REMARK    5  A    between atoms: N2_19  and  C16_20 
ROOT
HETATM    1  N1  UNL     1      25.319   2.361  51.524  1.00  0.00    -0.327 N 
HETATM    2  C15 UNL     1      24.088   1.628  51.706  1.00  0.00     0.323 C 
HETATM    3  O1  UNL     1      23.271   1.458  50.767  1.00  0.00    -0.247 OA
HETATM    4  N2  UNL     1      23.711   1.049  52.937  1.00  0.00    -0.309 N 
HETATM    5  H16 UNL     1      24.448   1.233  53.682  1.00  0.00     0.170 HD
ENDROOT
BRANCH   1   6
HETATM    6  C7  UNL     1      26.355   2.692  52.472  1.00  0.00     0.164 C 
BRANCH   6   7
HETATM    7  C6  UNL     1      27.414   1.636  52.641  1.00  0.00     0.162 C 
HETATM    8  C5  UNL     1      28.484   2.127  53.527  1.00  0.00     0.006 C 
HETATM    9  C4  UNL     1      29.349   1.213  54.007  1.00  0.00    -0.001 C 
HETATM   10  C3  UNL     1      29.486  -0.240  53.848  1.00  0.00     0.004 C 
HETATM   11  C2  UNL     1      28.597  -1.045  53.248  1.00  0.00    -0.060 C 
HETATM   12  C1  UNL     1      28.936  -2.489  53.197  1.00  0.00     0.045 C 
HETATM   13  C22 UNL     1      27.296  -0.669  52.621  1.00  0.00     0.202 C 
HETATM   14  O2  UNL     1      26.796   0.508  53.190  1.00  0.00    -0.376 OA
ENDBRANCH   6   7
ENDBRANCH   1   6
BRANCH   1  15
HETATM   15  C8  UNL     1      25.564   2.856  50.163  1.00  0.00     0.166 C 
BRANCH  15  16
HETATM   16  C9  UNL     1      25.501   4.316  50.052  1.00  0.00    -0.040 A 
HETATM   17  C10 UNL     1      24.605   5.127  50.708  1.00  0.00     0.012 A 
HETATM   18  C11 UNL     1      24.530   6.501  50.624  1.00  0.00     0.043 A 
HETATM   19  C12 UNL     1      25.428   7.153  49.810  1.00  0.00     0.116 A 
HETATM   20  F1  UNL     1      25.383   8.491  49.704  1.00  0.00    -0.206 F 
HETATM   21  C13 UNL     1      26.350   6.413  49.126  1.00  0.00     0.043 A 
HETATM   22  C14 UNL     1      26.381   5.042  49.247  1.00  0.00     0.012 A 
ENDBRANCH  15  16
ENDBRANCH   1  15
BRANCH   4  23
HETATM   23  C16 UNL     1      22.581   0.305  53.339  1.00  0.00     0.036 A 
HETATM   24  C17 UNL     1      22.733  -0.988  53.777  1.00  0.00     0.029 A 
HETATM   25  C18 UNL     1      21.679  -1.765  54.181  1.00  0.00     0.002 A 
HETATM   26  C19 UNL     1      20.397  -1.264  54.160  1.00  0.00     0.000 A 
HETATM   27  C20 UNL     1      20.178   0.019  53.733  1.00  0.00     0.002 A 
HETATM   28  C21 UNL     1      21.279   0.745  53.342  1.00  0.00     0.029 A 
ENDBRANCH   4  23
TORSDOF 5
ENDMDL
MODEL 2
REMARK VINA RESULT:      -8.7      2.765      6.145
REMARK  5 active torsions:
REMARK  status: ('A' for Active; 'I' for Inactive)
REMARK    1  A    between atoms: C6_6  and  C7_7 
REMARK    2  A    between atoms: C7_7  and  N1_8 
REMARK    3  A    between atoms: N1_8  and  C8_9 
REMARK       I    between atoms: N1_8  and  C15_17 
REMARK    4  A    between atoms: C8_9  and  C9_10 
REMARK       I    between atoms: C15_17  and  N2_19 
REMARK    5  A    between atoms: N2_19  and  C16_20 
ROOT
HETATM    1  N1  UNL     1      24.616   2.286  52.286  1.00  0.00    -0.327 N 
HETATM    2  C15 UNL     1      24.012   3.370  51.546  1.00  0.00     0.323 C 
HETATM    3  O1  UNL     1      23.308   3.166  50.526  1.00  0.00    -0.247 OA
HETATM    4  N2  UNL     1      24.162   4.727  51.906  1.00  0.00    -0.309 N 
HETATM    5  H16 UNL     1      24.768   4.821  52.776  1.00  0.00     0.170 HD
ENDROOT
BRANCH   1   6
HETATM    6  C7  UNL     1      25.476   2.315  53.444  1.00  0.00     0.164 C 
BRANCH   6   7
HETATM    7  C6  UNL     1      26.784   1.591  53.274  1.00  0.00     0.162 C 
HETATM    8  C5  UNL     1      27.898   2.442  53.725  1.00  0.00     0.006 C 
HETATM    9  C4  UNL     1      29.091   1.845  53.910  1.00  0.00    -0.001 C 
HETATM   10  C3  UNL     1      29.571   0.466  53.759  1.00  0.00     0.004 C 
HETATM   11  C2  UNL     1      28.800  -0.607  53.525  1.00  0.00    -0.060 C 
HETATM   12  C1  UNL     1      29.495  -1.913  53.406  1.00  0.00     0.045 C 
HETATM   13  C22 UNL     1      27.316  -0.653  53.368  1.00  0.00     0.202 C 
HETATM   14  O2  UNL     1      26.716   0.421  54.036  1.00  0.00    -0.376 OA
ENDBRANCH   6   7
ENDBRANCH   1   6
BRANCH   1  15
HETATM   15  C8  UNL     1      24.316   0.937  51.787  1.00  0.00     0.166 C 
BRANCH  15  16
HETATM   16  C9  UNL     1      23.214   0.284  52.498  1.00  0.00    -0.040 A 
HETATM   17  C10 UNL     1      21.880   0.416  52.194  1.00  0.00     0.012 A 
HETATM   18  C11 UNL     1      20.827  -0.192  52.844  1.00  0.00     0.043 A 
HETATM   19  C12 UNL     1      21.109  -1.019  53.906  1.00  0.00     0.116 A 
HETATM   20  F1  UNL     1      20.107  -1.627  54.563  1.00  0.00    -0.206 F 
HETATM   21  C13 UNL     1      22.414  -1.201  54.267  1.00  0.00     0.043 A 
HETATM   22  C14 UNL     1      23.427  -0.570  53.583  1.00  0.00     0.012 A 
ENDBRANCH  15  16
ENDBRANCH   1  15
BRANCH   4  23
HETATM   23  C16 UNL     1      23.674   5.926  51.344  1.00  0.00     0.036 A 
HETATM   24  C17 UNL     1      22.320   6.135  51.245  1.00  0.00     0.029 A 
HETATM   25  C18 UNL     1      21.782   7.275  50.710  1.00  0.00     0.002 A 
HETATM   26  C19 UNL     1      22.600   8.278  50.241  1.00  0.00     0.000 A 
HETATM   27  C20 UNL     1      23.960   8.131  50.312  1.00  0.00     0.002 A 
HETATM   28  C21 UNL     1      24.436   6.963  50.859  1.00  0.00     0.029 A 
ENDBRANCH   4  23
TORSDOF 5
ENDMDL
MODEL 3
REMARK VINA RESULT:      -8.7      2.792      7.131
REMARK  5 active torsions:
REMARK  status: ('A' for Active; 'I' for Inactive)
REMARK    1  A    between atoms: C6_6  and  C7_7 
REMARK    2  A    between atoms: C7_7  and  N1_8 
REMARK    3  A    between atoms: N1_8  and  C8_9 
REMARK       I    between atoms: N1_8  and  C15_17 
REMARK    4  A    between atoms: C8_9  and  C9_10 
REMARK       I    between atoms: C15_17  and  N2_19 
REMARK    5  A    between atoms: N2_19  and  C16_20 
ROOT
HETATM    1  N1  UNL     1      24.239   1.488  52.189  1.00  0.00    -0.327 N 
HETATM    2  C15 UNL     1      25.273   0.744  52.868  1.00  0.00     0.323 C 
HETATM    3  O1  UNL     1      25.259   0.573  54.113  1.00  0.00    -0.247 OA
HETATM    4  N2  UNL     1      26.367   0.157  52.197  1.00  0.00    -0.309 N 
HETATM    5  H16 UNL     1      26.312   0.342  51.150  1.00  0.00     0.170 HD
ENDROOT
BRANCH   1   6
HETATM    6  C7  UNL     1      24.096   1.822  50.792  1.00  0.00     0.164 C 
BRANCH   6   7
HETATM    7  C6  UNL     1      24.732   3.126  50.389  1.00  0.00     0.162 C 
HETATM    8  C5  UNL     1      26.158   2.922  50.084  1.00  0.00     0.006 C 
HETATM    9  C4  UNL     1      26.795   3.916  49.436  1.00  0.00    -0.001 C 
HETATM   10  C3  UNL     1      26.379   5.232  48.934  1.00  0.00     0.004 C 
HETATM   11  C2  UNL     1      25.118   5.685  48.886  1.00  0.00    -0.060 C 
HETATM   12  C1  UNL     1      24.920   7.050  48.339  1.00  0.00     0.045 C 
HETATM   13  C22 UNL     1      23.873   4.982  49.319  1.00  0.00     0.202 C 
HETATM   14  O2  UNL     1      24.047   3.594  49.263  1.00  0.00    -0.376 OA
ENDBRANCH   6   7
ENDBRANCH   1   6
BRANCH   1  15
HETATM   15  C8  UNL     1      23.157   1.992  53.045  1.00  0.00     0.166 C 
BRANCH  15  16
HETATM   16  C9  UNL     1      22.009   1.085  53.130  1.00  0.00    -0.040 A 
HETATM   17  C10 UNL     1      21.931  -0.030  53.932  1.00  0.00     0.012 A 
HETATM   18  C11 UNL     1      20.862  -0.895  54.032  1.00  0.00     0.043 A 
HETATM   19  C12 UNL     1      19.748  -0.642  53.266  1.00  0.00     0.116 A 
HETATM   20  F1  UNL     1      18.688  -1.464  53.339  1.00  0.00    -0.206 F 
HETATM   21  C13 UNL     1      19.750   0.449  52.445  1.00  0.00     0.043 A 
HETATM   22  C14 UNL     1      20.845   1.281  52.383  1.00  0.00     0.012 A 
ENDBRANCH  15  16
ENDBRANCH   1  15
BRANCH   4  23
HETATM   23  C16 UNL     1      27.472  -0.599  52.646  1.00  0.00     0.036 A 
HETATM   24  C17 UNL     1      27.437  -1.970  52.577  1.00  0.00     0.029 A 
HETATM   25  C18 UNL     1      28.474  -2.762  52.996  1.00  0.00     0.002 A 
HETATM   26  C19 UNL     1      29.617  -2.196  53.512  1.00  0.00     0.000 A 
HETATM   27  C20 UNL     1      29.715  -0.833  53.607  1.00  0.00     0.002 A 
HETATM   28  C21 UNL     1      28.639  -0.096  53.170  1.00  0.00     0.029 A 
ENDBRANCH   4  23
TORSDOF 5
ENDMDL
MODEL 4
REMARK VINA RESULT:      -8.6      1.379      5.700
REMARK  5 active torsions:
REMARK  status: ('A' for Active; 'I' for Inactive)
REMARK    1  A    between atoms: C6_6  and  C7_7 
REMARK    2  A    between atoms: C7_7  and  N1_8 
REMARK    3  A    between atoms: N1_8  and  C8_9 
REMARK       I    between atoms: N1_8  and  C15_17 
REMARK    4  A    between atoms: C8_9  and  C9_10 
REMARK       I    between atoms: C15_17  and  N2_19 
REMARK    5  A    between atoms: N2_19  and  C16_20 
ROOT
HETATM    1  N1  UNL     1      24.304   1.852  51.971  1.00  0.00    -0.327 N 
HETATM    2  C15 UNL     1      25.625   1.269  51.926  1.00  0.00     0.323 C 
HETATM    3  O1  UNL     1      26.323   1.288  50.881  1.00  0.00    -0.247 OA
HETATM    4  N2  UNL     1      26.229   0.642  53.036  1.00  0.00    -0.309 N 
HETATM    5  H16 UNL     1      25.582   0.665  53.881  1.00  0.00     0.170 HD
ENDROOT
BRANCH   1   6
HETATM    6  C7  UNL     1      23.344   1.900  53.047  1.00  0.00     0.164 C 
BRANCH   6   7
HETATM    7  C6  UNL     1      22.380   0.745  53.083  1.00  0.00     0.162 C 
HETATM    8  C5  UNL     1      22.869  -0.296  54.003  1.00  0.00     0.006 C 
HETATM    9  C4  UNL     1      21.993  -1.253  54.366  1.00  0.00    -0.001 C 
HETATM   10  C3  UNL     1      20.586  -1.519  54.044  1.00  0.00     0.004 C 
HETATM   11  C2  UNL     1      19.772  -0.694  53.371  1.00  0.00    -0.060 C 
HETATM   12  C1  UNL     1      18.380  -1.162  53.154  1.00  0.00     0.045 C 
HETATM   13  C22 UNL     1      20.090   0.652  52.807  1.00  0.00     0.202 C 
HETATM   14  O2  UNL     1      21.146   1.243  53.511  1.00  0.00    -0.376 OA
ENDBRANCH   6   7
ENDBRANCH   1   6
BRANCH   1  15
HETATM   15  C8  UNL     1      23.855   2.498  50.731  1.00  0.00     0.166 C 
BRANCH  15  16
HETATM   16  C9  UNL     1      24.237   3.910  50.637  1.00  0.00    -0.040 A 
HETATM   17  C10 UNL     1      23.664   4.939  51.346  1.00  0.00     0.012 A 
HETATM   18  C11 UNL     1      24.008   6.273  51.278  1.00  0.00     0.043 A 
HETATM   19  C12 UNL     1      25.022   6.639  50.424  1.00  0.00     0.116 A 
HETATM   20  F1  UNL     1      25.384   7.930  50.332  1.00  0.00    -0.206 F 
HETATM   21  C13 UNL     1      25.640   5.671  49.685  1.00  0.00     0.043 A 
HETATM   22  C14 UNL     1      25.257   4.353  49.792  1.00  0.00     0.012 A 
ENDBRANCH  15  16
ENDBRANCH   1  15
BRANCH   4  23
HETATM   23  C16 UNL     1      27.482   0.018  53.219  1.00  0.00     0.036 A 
HETATM   24  C17 UNL     1      28.568   0.763  53.608  1.00  0.00     0.029 A 
HETATM   25  C18 UNL     1      29.810   0.220  53.802  1.00  0.00     0.002 A 
HETATM   26  C19 UNL     1      30.020  -1.126  53.610  1.00  0.00     0.000 A 
HETATM   27  C20 UNL     1      28.977  -1.925  53.222  1.00  0.00     0.002 A 
HETATM   28  C21 UNL     1      27.755  -1.318  53.044  1.00  0.00     0.029 A 
ENDBRANCH   4  23
TORSDOF 5
ENDMDL
MODEL 5
REMARK VINA RESULT:      -8.6      1.634      5.281
REMARK  5 active torsions:
REMARK  status: ('A' for Active; 'I' for Inactive)
REMARK    1  A    between atoms: C6_6  and  C7_7 
REMARK    2  A    between atoms: C7_7  and  N1_8 
REMARK    3  A    between atoms: N1_8  and  C8_9 
REMARK       I    between atoms: N1_8  and  C15_17 
REMARK    4  A    between atoms: C8_9  and  C9_10 
REMARK       I    between atoms: C15_17  and  N2_19 
REMARK    5  A    between atoms: N2_19  and  C16_20 
ROOT
HETATM    1  N1  UNL     1      24.961   3.883  50.679  1.00  0.00    -0.327 N 
HETATM    2  C15 UNL     1      26.114   3.101  51.055  1.00  0.00     0.323 C 
HETATM    3  O1  UNL     1      27.089   2.939  50.278  1.00  0.00    -0.247 OA
HETATM    4  N2  UNL     1      26.240   2.466  52.310  1.00  0.00    -0.309 N 
HETATM    5  H16 UNL     1      25.381   2.647  52.912  1.00  0.00     0.170 HD
ENDROOT
BRANCH   1   6
HETATM    6  C7  UNL     1      23.742   4.154  51.403  1.00  0.00     0.164 C 
BRANCH   6   7
HETATM    7  C6  UNL     1      22.810   2.978  51.529  1.00  0.00     0.162 C 
HETATM    8  C5  UNL     1      22.452   2.470  50.194  1.00  0.00     0.006 C 
HETATM    9  C4  UNL     1      21.867   1.258  50.136  1.00  0.00    -0.001 C 
HETATM   10  C3  UNL     1      21.480   0.267  51.148  1.00  0.00     0.004 C 
HETATM   11  C2  UNL     1      21.800   0.316  52.449  1.00  0.00    -0.060 C 
HETATM   12  C1  UNL     1      21.303  -0.794  53.299  1.00  0.00     0.045 C 
HETATM   13  C22 UNL     1      22.602   1.357  53.158  1.00  0.00     0.202 C 
HETATM   14  O2  UNL     1      23.475   1.996  52.270  1.00  0.00    -0.376 OA
ENDBRANCH   6   7
ENDBRANCH   1   6
BRANCH   1  15
HETATM   15  C8  UNL     1      25.024   4.504  49.349  1.00  0.00     0.166 C 
BRANCH  15  16
HETATM   16  C9  UNL     1      25.817   5.735  49.316  1.00  0.00    -0.040 A 
HETATM   17  C10 UNL     1      25.568   6.864  50.061  1.00  0.00     0.012 A 
HETATM   18  C11 UNL     1      26.302   8.031  50.051  1.00  0.00     0.043 A 
HETATM   19  C12 UNL     1      27.398   8.103  49.223  1.00  0.00     0.116 A 
HETATM   20  F1  UNL     1      28.136   9.225  49.188  1.00  0.00    -0.206 F 
HETATM   21  C13 UNL     1      27.709   7.019  48.453  1.00  0.00     0.043 A 
HETATM   22  C14 UNL     1      26.943   5.878  48.502  1.00  0.00     0.012 A 
ENDBRANCH  15  16
ENDBRANCH   1  15
BRANCH   4  23
HETATM   23  C16 UNL     1      27.254   1.670  52.883  1.00  0.00     0.036 A 
HETATM   24  C17 UNL     1      27.233   0.307  52.714  1.00  0.00     0.029 A 
HETATM   25  C18 UNL     1      28.186  -0.522  53.244  1.00  0.00     0.002 A 
HETATM   26  C19 UNL     1      29.225  -0.006  53.983  1.00  0.00     0.000 A 
HETATM   27  C20 UNL     1      29.305   1.346  54.188  1.00  0.00     0.002 A 
HETATM   28  C21 UNL     1      28.316   2.123  53.629  1.00  0.00     0.029 A 
ENDBRANCH   4  23
TORSDOF 5
ENDMDL
MODEL 6
REMARK VINA RESULT:      -8.5      2.818      5.953
REMARK  5 active torsions:
REMARK  status: ('A' for Active; 'I' for Inactive)
REMARK    1  A    between atoms: C6_6  and  C7_7 
REMARK    2  A    between atoms: C7_7  and  N1_8 
REMARK    3  A    between atoms: N1_8  and  C8_9 
REMARK       I    between atoms: N1_8  and  C15_17 
REMARK    4  A    between atoms: C8_9  and  C9_10 
REMARK       I    between atoms: C15_17  and  N2_19 
REMARK    5  A    between atoms: N2_19  and  C16_20 
ROOT
HETATM    1  N1  UNL     1      24.899   3.964  50.828  1.00  0.00    -0.327 N 
HETATM    2  C15 UNL     1      25.992   3.065  51.117  1.00  0.00     0.323 C 
HETATM    3  O1  UNL     1      26.733   2.609  50.211  1.00  0.00    -0.247 OA
HETATM    4  N2  UNL     1      26.312   2.635  52.423  1.00  0.00    -0.309 N 
HETATM    5  H16 UNL     1      25.645   3.062  53.135  1.00  0.00     0.170 HD
ENDROOT
BRANCH   1   6
HETATM    6  C7  UNL     1      23.925   4.560  51.711  1.00  0.00     0.164 C 
BRANCH   6   7
HETATM    7  C6  UNL     1      22.964   3.585  52.338  1.00  0.00     0.162 C 
HETATM    8  C5  UNL     1      21.586   3.891  51.919  1.00  0.00     0.006 C 
HETATM    9  C4  UNL     1      20.651   2.950  52.154  1.00  0.00    -0.001 C 
HETATM   10  C3  UNL     1      20.683   1.615  52.764  1.00  0.00     0.004 C 
HETATM   11  C2  UNL     1      21.790   0.943  53.109  1.00  0.00    -0.060 C 
HETATM   12  C1  UNL     1      21.594  -0.398  53.715  1.00  0.00     0.045 C 
HETATM   13  C22 UNL     1      23.211   1.376  52.959  1.00  0.00     0.202 C 
HETATM   14  O2  UNL     1      23.336   2.304  51.918  1.00  0.00    -0.376 OA
ENDBRANCH   6   7
ENDBRANCH   1   6
BRANCH   1  15
HETATM   15  C8  UNL     1      24.741   4.334  49.415  1.00  0.00     0.166 C 
BRANCH  15  16
HETATM   16  C9  UNL     1      23.476   3.881  48.831  1.00  0.00    -0.040 A 
HETATM   17  C10 UNL     1      23.097   2.570  48.667  1.00  0.00     0.012 A 
HETATM   18  C11 UNL     1      21.911   2.121  48.125  1.00  0.00     0.043 A 
HETATM   19  C12 UNL     1      20.997   3.055  47.698  1.00  0.00     0.116 A 
HETATM   20  F1  UNL     1      19.831   2.653  47.164  1.00  0.00    -0.206 F 
HETATM   21  C13 UNL     1      21.303   4.380  47.829  1.00  0.00     0.043 A 
HETATM   22  C14 UNL     1      22.501   4.774  48.378  1.00  0.00     0.012 A 
ENDBRANCH  15  16
ENDBRANCH   1  15
BRANCH   4  23
HETATM   23  C16 UNL     1      27.313   1.780  52.931  1.00  0.00     0.036 A 
HETATM   24  C17 UNL     1      27.198   0.421  52.773  1.00  0.00     0.029 A 
HETATM   25  C18 UNL     1      28.134  -0.463  53.242  1.00  0.00     0.002 A 
HETATM   26  C19 UNL     1      29.250  -0.009  53.906  1.00  0.00     0.000 A 
HETATM   27  C20 UNL     1      29.425   1.336  54.096  1.00  0.00     0.002 A 
HETATM   28  C21 UNL     1      28.449   2.170  53.601  1.00  0.00     0.029 A 
ENDBRANCH   4  23
TORSDOF 5
ENDMDL
MODEL 7
REMARK VINA RESULT:      -8.2      2.919      6.686
REMARK  5 active torsions:
REMARK  status: ('A' for Active; 'I' for Inactive)
REMARK    1  A    between atoms: C6_6  and  C7_7 
REMARK    2  A    between atoms: C7_7  and  N1_8 
REMARK    3  A    between atoms: N1_8  and  C8_9 
REMARK       I    between atoms: N1_8  and  C15_17 
REMARK    4  A    between atoms: C8_9  and  C9_10 
REMARK       I    between atoms: C15_17  and  N2_19 
REMARK    5  A    between atoms: N2_19  and  C16_20 
ROOT
HETATM    1  N1  UNL     1      23.511   2.847  51.390  1.00  0.00    -0.327 N 
HETATM    2  C15 UNL     1      24.127   3.970  50.724  1.00  0.00     0.323 C 
HETATM    3  O1  UNL     1      23.605   5.113  50.728  1.00  0.00    -0.247 OA
HETATM    4  N2  UNL     1      25.350   3.875  50.024  1.00  0.00    -0.309 N 
HETATM    5  H16 UNL     1      25.731   2.882  50.064  1.00  0.00     0.170 HD
ENDROOT
BRANCH   1   6
HETATM    6  C7  UNL     1      23.927   1.467  51.469  1.00  0.00     0.164 C 
BRANCH   6   7
HETATM    7  C6  UNL     1      25.010   1.193  52.477  1.00  0.00     0.162 C 
HETATM    8  C5  UNL     1      24.813  -0.133  53.086  1.00  0.00     0.006 C 
HETATM    9  C4  UNL     1      25.843  -0.646  53.785  1.00  0.00    -0.001 C 
HETATM   10  C3  UNL     1      27.194  -0.168  54.103  1.00  0.00     0.004 C 
HETATM   11  C2  UNL     1      27.778   0.921  53.581  1.00  0.00    -0.060 C 
HETATM   12  C1  UNL     1      29.156   1.224  54.043  1.00  0.00     0.045 C 
HETATM   13  C22 UNL     1      27.212   1.876  52.583  1.00  0.00     0.202 C 
HETATM   14  O2  UNL     1      26.233   1.250  51.802  1.00  0.00    -0.376 OA
ENDBRANCH   6   7
ENDBRANCH   1   6
BRANCH   1  15
HETATM   15  C8  UNL     1      22.260   3.143  52.102  1.00  0.00     0.166 C 
BRANCH  15  16
HETATM   16  C9  UNL     1      21.201   2.161  51.855  1.00  0.00    -0.040 A 
HETATM   17  C10 UNL     1      20.701   1.277  52.783  1.00  0.00     0.012 A 
HETATM   18  C11 UNL     1      19.704   0.348  52.575  1.00  0.00     0.043 A 
HETATM   19  C12 UNL     1      19.133   0.276  51.326  1.00  0.00     0.116 A 
HETATM   20  F1  UNL     1      18.159  -0.618  51.088  1.00  0.00    -0.206 F 
HETATM   21  C13 UNL     1      19.578   1.123  50.351  1.00  0.00     0.043 A 
HETATM   22  C14 UNL     1      20.577   2.033  50.613  1.00  0.00     0.012 A 
ENDBRANCH  15  16
ENDBRANCH   1  15
BRANCH   4  23
HETATM   23  C16 UNL     1      26.122   4.819  49.314  1.00  0.00     0.036 A 
HETATM   24  C17 UNL     1      27.439   4.552  49.030  1.00  0.00     0.029 A 
HETATM   25  C18 UNL     1      28.243   5.424  48.345  1.00  0.00     0.002 A 
HETATM   26  C19 UNL     1      27.747   6.631  47.907  1.00  0.00     0.000 A 
HETATM   27  C20 UNL     1      26.441   6.958  48.159  1.00  0.00     0.002 A 
HETATM   28  C21 UNL     1      25.687   6.038  48.850  1.00  0.00     0.029 A 
ENDBRANCH   4  23
TORSDOF 5
ENDMDL
MODEL 8
REMARK VINA RESULT:      -8.1      2.138      6.082
REMARK  5 active torsions:
REMARK  status: ('A' for Active; 'I' for Inactive)
REMARK    1  A    between atoms: C6_6  and  C7_7 
REMARK    2  A    between atoms: C7_7  and  N1_8 
REMARK    3  A    between atoms: N1_8  and  C8_9 
REMARK       I    between atoms: N1_8  and  C15_17 
REMARK    4  A    between atoms: C8_9  and  C9_10 
REMARK       I    between atoms: C15_17  and  N2_19 
REMARK    5  A    between atoms: N2_19  and  C16_20 
ROOT
HETATM    1  N1  UNL     1      25.009   3.809  50.720  1.00  0.00    -0.327 N 
HETATM    2  C15 UNL     1      26.084   2.910  51.069  1.00  0.00     0.323 C 
HETATM    3  O1  UNL     1      26.868   2.446  50.204  1.00  0.00    -0.247 OA
HETATM    4  N2  UNL     1      26.338   2.489  52.392  1.00  0.00    -0.309 N 
HETATM    5  H16 UNL     1      25.637   2.922  53.067  1.00  0.00     0.170 HD
ENDROOT
BRANCH   1   6
HETATM    6  C7  UNL     1      23.994   4.413  51.549  1.00  0.00     0.164 C 
BRANCH   6   7
HETATM    7  C6  UNL     1      22.651   3.734  51.495  1.00  0.00     0.162 C 
HETATM    8  C5  UNL     1      22.666   2.514  52.320  1.00  0.00     0.006 C 
HETATM    9  C4  UNL     1      21.475   1.956  52.610  1.00  0.00    -0.001 C 
HETATM   10  C3  UNL     1      20.086   2.295  52.278  1.00  0.00     0.004 C 
HETATM   11  C2  UNL     1      19.680   3.426  51.684  1.00  0.00    -0.060 C 
HETATM   12  C1  UNL     1      18.223   3.565  51.440  1.00  0.00     0.045 C 
HETATM   13  C22 UNL     1      20.518   4.577  51.232  1.00  0.00     0.202 C 
HETATM   14  O2  UNL     1      21.704   4.644  51.974  1.00  0.00    -0.376 OA
ENDBRANCH   6   7
ENDBRANCH   1   6
BRANCH   1  15
HETATM   15  C8  UNL     1      24.923   4.169  49.298  1.00  0.00     0.166 C 
BRANCH  15  16
HETATM   16  C9  UNL     1      25.652   5.394  48.961  1.00  0.00    -0.040 A 
HETATM   17  C10 UNL     1      25.104   6.653  48.882  1.00  0.00     0.012 A 
HETATM   18  C11 UNL     1      25.770   7.819  48.571  1.00  0.00     0.043 A 
HETATM   19  C12 UNL     1      27.119   7.748  48.311  1.00  0.00     0.116 A 
HETATM   20  F1  UNL     1      27.800   8.865  48.005  1.00  0.00    -0.206 F 
HETATM   21  C13 UNL     1      27.735   6.530  48.373  1.00  0.00     0.043 A 
HETATM   22  C14 UNL     1      27.022   5.396  48.688  1.00  0.00     0.012 A 
ENDBRANCH  15  16
ENDBRANCH   1  15
BRANCH   4  23
HETATM   23  C16 UNL     1      27.311   1.636  52.956  1.00  0.00     0.036 A 
HETATM   24  C17 UNL     1      28.364   2.168  53.659  1.00  0.00     0.029 A 
HETATM   25  C18 UNL     1      29.341   1.396  54.230  1.00  0.00     0.002 A 
HETATM   26  C19 UNL     1      29.301   0.025  54.116  1.00  0.00     0.000 A 
HETATM   27  C20 UNL     1      28.277  -0.568  53.427  1.00  0.00     0.002 A 
HETATM   28  C21 UNL     1      27.328   0.263  52.878  1.00  0.00     0.029 A 
ENDBRANCH   4  23
TORSDOF 5
ENDMDL
MODEL 9
REMARK VINA RESULT:      -8.1      2.831      6.077
REMARK  5 active torsions:
REMARK  status: ('A' for Active; 'I' for Inactive)
REMARK    1  A    between atoms: C6_6  and  C7_7 
REMARK    2  A    between atoms: C7_7  and  N1_8 
REMARK    3  A    between atoms: N1_8  and  C8_9 
REMARK       I    between atoms: N1_8  and  C15_17 
REMARK    4  A    between atoms: C8_9  and  C9_10 
REMARK       I    between atoms: C15_17  and  N2_19 
REMARK    5  A    between atoms: N2_19  and  C16_20 
ROOT
HETATM    1  N1  UNL     1      23.517   1.734  52.106  1.00  0.00    -0.327 N 
HETATM    2  C15 UNL     1      22.268   1.146  52.531  1.00  0.00     0.323 C 
HETATM    3  O1  UNL     1      22.042   0.865  53.734  1.00  0.00    -0.247 OA
HETATM    4  N2  UNL     1      21.215   0.847  51.640  1.00  0.00    -0.309 N 
HETATM    5  H16 UNL     1      21.478   1.112  50.642  1.00  0.00     0.170 HD
ENDROOT
BRANCH   1   6
HETATM    6  C7  UNL     1      23.978   2.091  50.786  1.00  0.00     0.164 C 
BRANCH   6   7
HETATM    7  C6  UNL     1      24.598   3.459  50.685  1.00  0.00     0.162 C 
HETATM    8  C5  UNL     1      25.739   3.432  49.754  1.00  0.00     0.006 C 
HETATM    9  C4  UNL     1      26.215   4.620  49.333  1.00  0.00    -0.001 C 
HETATM   10  C3  UNL     1      25.844   6.015  49.598  1.00  0.00     0.004 C 
HETATM   11  C2  UNL     1      24.753   6.418  50.265  1.00  0.00    -0.060 C 
HETATM   12  C1  UNL     1      24.570   7.883  50.419  1.00  0.00     0.045 C 
HETATM   13  C22 UNL     1      23.686   5.571  50.876  1.00  0.00     0.202 C 
HETATM   14  O2  UNL     1      23.607   4.334  50.227  1.00  0.00    -0.376 OA
ENDBRANCH   6   7
ENDBRANCH   1   6
BRANCH   1  15
HETATM   15  C8  UNL     1      24.481   2.014  53.179  1.00  0.00     0.166 C 
BRANCH  15  16
HETATM   16  C9  UNL     1      25.662   1.146  53.144  1.00  0.00    -0.040 A 
HETATM   17  C10 UNL     1      26.968   1.575  53.188  1.00  0.00     0.012 A 
HETATM   18  C11 UNL     1      28.093   0.779  53.161  1.00  0.00     0.043 A 
HETATM   19  C12 UNL     1      27.923  -0.584  53.082  1.00  0.00     0.116 A 
HETATM   20  F1  UNL     1      28.998  -1.390  53.053  1.00  0.00    -0.206 F 
HETATM   21  C13 UNL     1      26.653  -1.085  53.035  1.00  0.00     0.043 A 
HETATM   22  C14 UNL     1      25.564  -0.245  53.066  1.00  0.00     0.012 A 
ENDBRANCH  15  16
ENDBRANCH   1  15
BRANCH   4  23
HETATM   23  C16 UNL     1      19.934   0.284  51.826  1.00  0.00     0.036 A 
HETATM   24  C17 UNL     1      18.964   0.460  50.870  1.00  0.00     0.029 A 
HETATM   25  C18 UNL     1      17.702  -0.059  50.989  1.00  0.00     0.002 A 
HETATM   26  C19 UNL     1      17.352  -0.793  52.100  1.00  0.00     0.000 A 
HETATM   27  C20 UNL     1      18.275  -1.004  53.090  1.00  0.00     0.002 A 
HETATM   28  C21 UNL     1      19.524  -0.457  52.909  1.00  0.00     0.029 A 
ENDBRANCH   4  23
TORSDOF 5
ENDMDL
