MODEL 1
REMARK VINA RESULT:      -6.9      0.000      0.000
REMARK  6 active torsions:
REMARK  status: ('A' for Active; 'I' for Inactive)
REMARK    1  A    between atoms: C3_3  and  C4_4 
REMARK    2  A    between atoms: C4_4  and  C5_5 
REMARK    3  A    between atoms: C5_5  and  O1_6 
REMARK    4  A    between atoms: O1_6  and  C6_7 
REMARK    5  A    between atoms: C9_10  and  N1_11 
REMARK    6  A    between atoms: C18_23  and  O2_24 
ROOT
HETATM    1  C1  UNL     1      17.080   4.062  51.172  1.00  0.00     0.012 C 
HETATM    2  C2  UNL     1      18.083   3.498  51.488  1.00  0.00    -0.117 C 
HETATM    3  C3  UNL     1      19.303   2.794  51.858  1.00  0.00     0.095 C 
ENDROOT
BRANCH   3   4
HETATM    4  C4  UNL     1      19.395   1.504  51.081  1.00  0.00     0.039 C 
BRANCH   4   5
HETATM    5  C5  UNL     1      20.332   0.500  51.760  1.00  0.00     0.176 C 
BRANCH   5   6
HETATM    6  O1  UNL     1      21.542   0.542  51.083  1.00  0.00    -0.348 OA
BRANCH   6   7
HETATM    7  C6  UNL     1      22.619   1.286  51.205  1.00  0.00     0.104 C 
HETATM    8  C7  UNL     1      23.555   1.148  52.206  1.00  0.00     0.051 C 
HETATM    9  C8  UNL     1      24.691   2.118  52.140  1.00  0.00    -0.004 C 
HETATM   10  C9  UNL     1      26.009   1.834  52.077  1.00  0.00     0.134 C 
HETATM   11  C20 UNL     1      24.132   3.567  51.915  1.00  0.00     0.102 C 
HETATM   12  N2  UNL     1      26.866   2.742  51.244  1.00  0.00    -0.226 NA
HETATM   13  C16 UNL     1      26.487   3.049  49.963  1.00  0.00     0.209 C 
HETATM   14  N3  UNL     1      25.089   3.298  49.446  1.00  0.00    -0.351 N 
HETATM   15  C17 UNL     1      24.002   3.108  50.403  1.00  0.00     0.051 C 
HETATM   16  H17 UNL     1      24.526   3.549  48.611  1.00  0.00     0.166 HD
HETATM   17  C18 UNL     1      22.876   2.383  50.182  1.00  0.00     0.124 C 
BRANCH  10  18
HETATM   18  N1  UNL     1      26.007   0.656  52.876  1.00  0.00    -0.358 N 
HETATM   19  C10 UNL     1      25.583   0.914  54.239  1.00  0.00     0.152 C 
HETATM   20  C11 UNL     1      26.703   0.462  55.131  1.00  0.00    -0.005 C 
HETATM   21  C12 UNL     1      27.874  -0.137  54.942  1.00  0.00     0.021 C 
HETATM   22  C13 UNL     1      28.429  -0.557  53.660  1.00  0.00     0.031 C 
HETATM   23 CL1  UNL     1      30.164  -0.855  53.680  1.00  0.00    -0.085 Cl
HETATM   24  C14 UNL     1      27.876  -0.758  52.480  1.00  0.00     0.017 C 
HETATM   25  C15 UNL     1      26.417  -0.569  52.219  1.00  0.00     0.153 C 
ENDBRANCH  10  18
BRANCH  17  26
HETATM   26  O2  UNL     1      22.381   2.944  49.049  1.00  0.00    -0.351 OA
HETATM   27  C19 UNL     1      22.274   2.269  47.799  1.00  0.00     0.210 C 
ENDBRANCH  17  26
ENDBRANCH   6   7
ENDBRANCH   5   6
ENDBRANCH   4   5
ENDBRANCH   3   4
TORSDOF 6
ENDMDL
MODEL 2
REMARK VINA RESULT:      -6.9      3.623      7.050
REMARK  6 active torsions:
REMARK  status: ('A' for Active; 'I' for Inactive)
REMARK    1  A    between atoms: C3_3  and  C4_4 
REMARK    2  A    between atoms: C4_4  and  C5_5 
REMARK    3  A    between atoms: C5_5  and  O1_6 
REMARK    4  A    between atoms: O1_6  and  C6_7 
REMARK    5  A    between atoms: C9_10  and  N1_11 
REMARK    6  A    between atoms: C18_23  and  O2_24 
ROOT
HETATM    1  C1  UNL     1      28.608   8.182  48.732  1.00  0.00     0.012 C 
HETATM    2  C2  UNL     1      27.702   7.434  48.526  1.00  0.00    -0.117 C 
HETATM    3  C3  UNL     1      26.596   6.514  48.294  1.00  0.00     0.095 C 
ENDROOT
BRANCH   3   4
HETATM    4  C4  UNL     1      26.428   5.618  49.496  1.00  0.00     0.039 C 
BRANCH   4   5
HETATM    5  C5  UNL     1      26.618   4.142  49.132  1.00  0.00     0.176 C 
BRANCH   5   6
HETATM    6  O1  UNL     1      26.937   3.466  50.300  1.00  0.00    -0.348 OA
BRANCH   6   7
HETATM    7  C6  UNL     1      26.214   2.910  51.247  1.00  0.00     0.104 C 
HETATM    8  C7  UNL     1      24.869   3.140  51.440  1.00  0.00     0.051 C 
HETATM    9  C8  UNL     1      24.265   2.399  52.590  1.00  0.00    -0.004 C 
HETATM   10  C9  UNL     1      23.215   1.551  52.558  1.00  0.00     0.134 C 
HETATM   11  C20 UNL     1      25.179   2.558  53.855  1.00  0.00     0.102 C 
HETATM   12  N2  UNL     1      23.261   0.369  53.481  1.00  0.00    -0.226 NA
HETATM   13  C16 UNL     1      24.381  -0.421  53.518  1.00  0.00     0.209 C 
HETATM   14  N3  UNL     1      25.825   0.014  53.415  1.00  0.00    -0.351 N 
HETATM   15  C17 UNL     1      26.057   1.433  53.162  1.00  0.00     0.051 C 
HETATM   16  H17 UNL     1      26.810  -0.310  53.427  1.00  0.00     0.166 HD
HETATM   17  C18 UNL     1      26.881   1.940  52.211  1.00  0.00     0.124 C 
BRANCH  10  18
HETATM   18  N1  UNL     1      22.462   2.190  51.532  1.00  0.00    -0.358 N 
HETATM   19  C10 UNL     1      21.996   3.505  51.927  1.00  0.00     0.152 C 
HETATM   20  C11 UNL     1      20.500   3.487  51.801  1.00  0.00    -0.005 C 
HETATM   21  C12 UNL     1      19.601   2.606  51.374  1.00  0.00     0.021 C 
HETATM   22  C13 UNL     1      19.884   1.272  50.854  1.00  0.00     0.031 C 
HETATM   23 CL1  UNL     1      18.497   0.187  50.842  1.00  0.00    -0.085 Cl
HETATM   24  C14 UNL     1      20.986   0.719  50.389  1.00  0.00     0.017 C 
HETATM   25  C15 UNL     1      22.290   1.444  50.302  1.00  0.00     0.153 C 
ENDBRANCH  10  18
BRANCH  17  26
HETATM   26  O2  UNL     1      28.063   1.337  52.493  1.00  0.00    -0.351 OA
HETATM   27  C19 UNL     1      28.926   1.718  53.562  1.00  0.00     0.210 C 
ENDBRANCH  17  26
ENDBRANCH   6   7
ENDBRANCH   5   6
ENDBRANCH   4   5
ENDBRANCH   3   4
TORSDOF 6
ENDMDL
MODEL 3
REMARK VINA RESULT:      -6.4     10.325     13.229
REMARK  6 active torsions:
REMARK  status: ('A' for Active; 'I' for Inactive)
REMARK    1  A    between atoms: C3_3  and  C4_4 
REMARK    2  A    between atoms: C4_4  and  C5_5 
REMARK    3  A    between atoms: C5_5  and  O1_6 
REMARK    4  A    between atoms: O1_6  and  C6_7 
REMARK    5  A    between atoms: C9_10  and  N1_11 
REMARK    6  A    between atoms: C18_23  and  O2_24 
ROOT
HETATM    1  C1  UNL     1      33.938   1.846  39.922  1.00  0.00     0.012 C 
HETATM    2  C2  UNL     1      34.022   2.949  40.370  1.00  0.00    -0.117 C 
HETATM    3  C3  UNL     1      34.113   4.289  40.933  1.00  0.00     0.095 C 
ENDROOT
BRANCH   3   4
HETATM    4  C4  UNL     1      33.177   4.404  42.110  1.00  0.00     0.039 C 
BRANCH   4   5
HETATM    5  C5  UNL     1      33.932   4.729  43.404  1.00  0.00     0.176 C 
BRANCH   5   6
HETATM    6  O1  UNL     1      33.048   5.394  44.241  1.00  0.00    -0.348 OA
BRANCH   6   7
HETATM    7  C6  UNL     1      33.126   5.816  45.483  1.00  0.00     0.104 C 
HETATM    8  C7  UNL     1      33.110   7.141  45.861  1.00  0.00     0.051 C 
HETATM    9  C8  UNL     1      33.221   7.376  47.333  1.00  0.00    -0.004 C 
HETATM   10  C9  UNL     1      32.361   8.054  48.123  1.00  0.00     0.134 C 
HETATM   11  C20 UNL     1      34.391   6.508  47.915  1.00  0.00     0.102 C 
HETATM   12  N2  UNL     1      32.158   7.536  49.517  1.00  0.00    -0.226 NA
HETATM   13  C16 UNL     1      31.882   6.209  49.715  1.00  0.00     0.209 C 
HETATM   14  N3  UNL     1      32.450   5.023  48.970  1.00  0.00    -0.351 N 
HETATM   15  C17 UNL     1      33.334   5.327  47.848  1.00  0.00     0.051 C 
HETATM   16  H17 UNL     1      32.455   3.988  48.902  1.00  0.00     0.166 HD
HETATM   17  C18 UNL     1      33.241   4.794  46.604  1.00  0.00     0.124 C 
BRANCH  10  18
HETATM   18  N1  UNL     1      31.950   9.041  47.183  1.00  0.00    -0.358 N 
HETATM   19  C10 UNL     1      32.994  10.010  46.908  1.00  0.00     0.152 C 
HETATM   20  C11 UNL     1      32.431  11.359  47.249  1.00  0.00    -0.005 C 
HETATM   21  C12 UNL     1      31.249  11.811  47.654  1.00  0.00     0.021 C 
HETATM   22  C13 UNL     1      30.056  11.006  47.894  1.00  0.00     0.031 C 
HETATM   23 CL1  UNL     1      28.829  11.798  48.877  1.00  0.00    -0.085 Cl
HETATM   24  C14 UNL     1      29.719   9.789  47.514  1.00  0.00     0.017 C 
HETATM   25  C15 UNL     1      30.599   8.922  46.674  1.00  0.00     0.153 C 
ENDBRANCH  10  18
BRANCH  17  26
HETATM   26  O2  UNL     1      33.277   3.460  46.852  1.00  0.00    -0.351 OA
HETATM   27  C19 UNL     1      32.229   2.552  46.520  1.00  0.00     0.210 C 
ENDBRANCH  17  26
ENDBRANCH   6   7
ENDBRANCH   5   6
ENDBRANCH   4   5
ENDBRANCH   3   4
TORSDOF 6
ENDMDL
MODEL 4
REMARK VINA RESULT:      -6.2      4.343      7.536
REMARK  6 active torsions:
REMARK  status: ('A' for Active; 'I' for Inactive)
REMARK    1  A    between atoms: C3_3  and  C4_4 
REMARK    2  A    between atoms: C4_4  and  C5_5 
REMARK    3  A    between atoms: C5_5  and  O1_6 
REMARK    4  A    between atoms: O1_6  and  C6_7 
REMARK    5  A    between atoms: C9_10  and  N1_11 
REMARK    6  A    between atoms: C18_23  and  O2_24 
ROOT
HETATM    1  C1  UNL     1      29.320   8.457  46.077  1.00  0.00     0.012 C 
HETATM    2  C2  UNL     1      29.180   7.860  47.101  1.00  0.00    -0.117 C 
HETATM    3  C3  UNL     1      29.012   7.111  48.339  1.00  0.00     0.095 C 
ENDROOT
BRANCH   3   4
HETATM    4  C4  UNL     1      28.998   5.634  48.035  1.00  0.00     0.039 C 
BRANCH   4   5
HETATM    5  C5  UNL     1      27.750   4.951  48.607  1.00  0.00     0.176 C 
BRANCH   5   6
HETATM    6  O1  UNL     1      26.860   5.953  48.966  1.00  0.00    -0.348 OA
BRANCH   6   7
HETATM    7  C6  UNL     1      25.556   5.985  49.129  1.00  0.00     0.104 C 
HETATM    8  C7  UNL     1      24.728   4.889  49.026  1.00  0.00     0.051 C 
HETATM    9  C8  UNL     1      23.277   5.175  49.244  1.00  0.00    -0.004 C 
HETATM   10  C9  UNL     1      22.456   4.605  50.152  1.00  0.00     0.134 C 
HETATM   11  C20 UNL     1      22.860   6.435  48.407  1.00  0.00     0.102 C 
HETATM   12  N2  UNL     1      21.407   5.481  50.772  1.00  0.00    -0.226 NA
HETATM   13  C16 UNL     1      21.760   6.697  51.297  1.00  0.00     0.209 C 
HETATM   14  N3  UNL     1      22.778   7.677  50.760  1.00  0.00    -0.351 N 
HETATM   15  C17 UNL     1      23.538   7.245  49.590  1.00  0.00     0.051 C 
HETATM   16  H17 UNL     1      23.218   8.606  50.903  1.00  0.00     0.166 HD
HETATM   17  C18 UNL     1      24.887   7.311  49.458  1.00  0.00     0.124 C 
BRANCH  10  18
HETATM   18  N1  UNL     1      23.024   3.300  50.156  1.00  0.00    -0.358 N 
HETATM   19  C10 UNL     1      22.608   2.513  49.011  1.00  0.00     0.152 C 
HETATM   20  C11 UNL     1      21.951   1.277  49.554  1.00  0.00    -0.005 C 
HETATM   21  C12 UNL     1      21.753   0.771  50.767  1.00  0.00     0.021 C 
HETATM   22  C13 UNL     1      22.180   1.368  52.028  1.00  0.00     0.031 C 
HETATM   23 CL1  UNL     1      21.355   0.735  53.449  1.00  0.00    -0.085 Cl
HETATM   24  C14 UNL     1      23.072   2.297  52.310  1.00  0.00     0.017 C 
HETATM   25  C15 UNL     1      23.896   2.981  51.268  1.00  0.00     0.153 C 
ENDBRANCH  10  18
BRANCH  17  26
HETATM   26  O2  UNL     1      25.143   8.622  49.699  1.00  0.00    -0.351 OA
HETATM   27  C19 UNL     1      25.518   9.565  48.698  1.00  0.00     0.210 C 
ENDBRANCH  17  26
ENDBRANCH   6   7
ENDBRANCH   5   6
ENDBRANCH   4   5
ENDBRANCH   3   4
TORSDOF 6
ENDMDL
MODEL 5
REMARK VINA RESULT:      -6.2      7.022     10.813
REMARK  6 active torsions:
REMARK  status: ('A' for Active; 'I' for Inactive)
REMARK    1  A    between atoms: C3_3  and  C4_4 
REMARK    2  A    between atoms: C4_4  and  C5_5 
REMARK    3  A    between atoms: C5_5  and  O1_6 
REMARK    4  A    between atoms: O1_6  and  C6_7 
REMARK    5  A    between atoms: C9_10  and  N1_11 
REMARK    6  A    between atoms: C18_23  and  O2_24 
ROOT
HETATM    1  C1  UNL     1      35.258   3.508  45.842  1.00  0.00     0.012 C 
HETATM    2  C2  UNL     1      34.087   3.737  45.820  1.00  0.00    -0.117 C 
HETATM    3  C3  UNL     1      32.661   4.034  45.805  1.00  0.00     0.095 C 
ENDROOT
BRANCH   3   4
HETATM    4  C4  UNL     1      32.380   5.190  46.733  1.00  0.00     0.039 C 
BRANCH   4   5
HETATM    5  C5  UNL     1      31.884   4.710  48.101  1.00  0.00     0.176 C 
BRANCH   5   6
HETATM    6  O1  UNL     1      30.560   5.108  48.223  1.00  0.00    -0.348 OA
BRANCH   6   7
HETATM    7  C6  UNL     1      29.969   6.281  48.244  1.00  0.00     0.104 C 
HETATM    8  C7  UNL     1      28.701   6.526  47.766  1.00  0.00     0.051 C 
HETATM    9  C8  UNL     1      28.246   7.945  47.892  1.00  0.00    -0.004 C 
HETATM   10  C9  UNL     1      27.141   8.399  48.521  1.00  0.00     0.134 C 
HETATM   11  C20 UNL     1      29.374   8.905  47.376  1.00  0.00     0.102 C 
HETATM   12  N2  UNL     1      27.251   9.717  49.232  1.00  0.00    -0.226 NA
HETATM   13  C16 UNL     1      28.292   9.939  50.094  1.00  0.00     0.209 C 
HETATM   14  N3  UNL     1      29.727   9.487  49.950  1.00  0.00    -0.351 N 
HETATM   15  C17 UNL     1      30.026   8.640  48.798  1.00  0.00     0.051 C 
HETATM   16  H17 UNL     1      30.671   9.510  50.380  1.00  0.00     0.166 HD
HETATM   17  C18 UNL     1      30.712   7.470  48.836  1.00  0.00     0.124 C 
BRANCH  10  18
HETATM   18  N1  UNL     1      26.277   7.303  48.244  1.00  0.00    -0.358 N 
HETATM   19  C10 UNL     1      25.648   7.412  46.941  1.00  0.00     0.152 C 
HETATM   20  C11 UNL     1      24.165   7.388  47.176  1.00  0.00    -0.005 C 
HETATM   21  C12 UNL     1      23.382   7.232  48.238  1.00  0.00     0.021 C 
HETATM   22  C13 UNL     1      23.828   7.016  49.611  1.00  0.00     0.031 C 
HETATM   23 CL1  UNL     1      22.603   7.341  50.833  1.00  0.00    -0.085 Cl
HETATM   24  C14 UNL     1      24.981   6.623  50.116  1.00  0.00     0.017 C 
HETATM   25  C15 UNL     1      26.170   6.290  49.275  1.00  0.00     0.153 C 
ENDBRANCH  10  18
BRANCH  17  26
HETATM   26  O2  UNL     1      31.873   7.829  49.440  1.00  0.00    -0.351 OA
HETATM   27  C19 UNL     1      33.060   8.200  48.745  1.00  0.00     0.210 C 
ENDBRANCH  17  26
ENDBRANCH   6   7
ENDBRANCH   5   6
ENDBRANCH   4   5
ENDBRANCH   3   4
TORSDOF 6
ENDMDL
MODEL 6
REMARK VINA RESULT:      -6.0      8.686     10.853
REMARK  6 active torsions:
REMARK  status: ('A' for Active; 'I' for Inactive)
REMARK    1  A    between atoms: C3_3  and  C4_4 
REMARK    2  A    between atoms: C4_4  and  C5_5 
REMARK    3  A    between atoms: C5_5  and  O1_6 
REMARK    4  A    between atoms: O1_6  and  C6_7 
REMARK    5  A    between atoms: C9_10  and  N1_11 
REMARK    6  A    between atoms: C18_23  and  O2_24 
ROOT
HETATM    1  C1  UNL     1      27.270   9.019  45.859  1.00  0.00     0.012 C 
HETATM    2  C2  UNL     1      26.921   8.273  46.722  1.00  0.00    -0.117 C 
HETATM    3  C3  UNL     1      26.484   7.379  47.786  1.00  0.00     0.095 C 
ENDROOT
BRANCH   3   4
HETATM    4  C4  UNL     1      25.779   8.177  48.855  1.00  0.00     0.039 C 
BRANCH   4   5
HETATM    5  C5  UNL     1      26.675   8.400  50.077  1.00  0.00     0.176 C 
BRANCH   5   6
HETATM    6  O1  UNL     1      27.192   9.684  49.982  1.00  0.00    -0.348 OA
BRANCH   6   7
HETATM    7  C6  UNL     1      28.281  10.181  49.438  1.00  0.00     0.104 C 
HETATM    8  C7  UNL     1      29.491   9.526  49.375  1.00  0.00     0.051 C 
HETATM    9  C8  UNL     1      30.588  10.299  48.715  1.00  0.00    -0.004 C 
HETATM   10  C9  UNL     1      31.330   9.924  47.652  1.00  0.00     0.134 C 
HETATM   11  C20 UNL     1      30.623  11.757  49.293  1.00  0.00     0.102 C 
HETATM   12  N2  UNL     1      31.731  10.999  46.684  1.00  0.00    -0.226 NA
HETATM   13  C16 UNL     1      30.786  11.862  46.196  1.00  0.00     0.209 C 
HETATM   14  N3  UNL     1      29.611  12.462  46.934  1.00  0.00    -0.351 N 
HETATM   15  C17 UNL     1      29.406  12.004  48.306  1.00  0.00     0.051 C 
HETATM   16  H17 UNL     1      28.800  13.106  46.858  1.00  0.00     0.166 HD
HETATM   17  C18 UNL     1      28.230  11.573  48.826  1.00  0.00     0.124 C 
BRANCH  10  18
HETATM   18  N1  UNL     1      31.381   8.526  47.915  1.00  0.00    -0.358 N 
HETATM   19  C10 UNL     1      32.214   8.210  49.060  1.00  0.00     0.152 C 
HETATM   20  C11 UNL     1      33.277   7.268  48.572  1.00  0.00    -0.005 C 
HETATM   21  C12 UNL     1      33.543   6.665  47.418  1.00  0.00     0.021 C 
HETATM   22  C13 UNL     1      32.770   6.785  46.186  1.00  0.00     0.031 C 
HETATM   23 CL1  UNL     1      33.632   6.283  44.735  1.00  0.00    -0.085 Cl
HETATM   24  C14 UNL     1      31.541   7.200  45.950  1.00  0.00     0.017 C 
HETATM   25  C15 UNL     1      30.619   7.675  47.024  1.00  0.00     0.153 C 
ENDBRANCH  10  18
BRANCH  17  26
HETATM   26  O2  UNL     1      27.396  12.614  48.573  1.00  0.00    -0.351 OA
HETATM   27  C19 UNL     1      26.084  12.481  48.034  1.00  0.00     0.210 C 
ENDBRANCH  17  26
ENDBRANCH   6   7
ENDBRANCH   5   6
ENDBRANCH   4   5
ENDBRANCH   3   4
TORSDOF 6
ENDMDL
MODEL 7
REMARK VINA RESULT:      -6.0      9.698     11.943
REMARK  6 active torsions:
REMARK  status: ('A' for Active; 'I' for Inactive)
REMARK    1  A    between atoms: C3_3  and  C4_4 
REMARK    2  A    between atoms: C4_4  and  C5_5 
REMARK    3  A    between atoms: C5_5  and  O1_6 
REMARK    4  A    between atoms: O1_6  and  C6_7 
REMARK    5  A    between atoms: C9_10  and  N1_11 
REMARK    6  A    between atoms: C18_23  and  O2_24 
ROOT
HETATM    1  C1  UNL     1      28.303   8.864  49.336  1.00  0.00     0.012 C 
HETATM    2  C2  UNL     1      29.400   9.336  49.342  1.00  0.00    -0.117 C 
HETATM    3  C3  UNL     1      30.730   9.929  49.339  1.00  0.00     0.095 C 
ENDROOT
BRANCH   3   4
HETATM    4  C4  UNL     1      30.724  11.172  48.484  1.00  0.00     0.039 C 
BRANCH   4   5
HETATM    5  C5  UNL     1      31.537  10.978  47.200  1.00  0.00     0.176 C 
BRANCH   5   6
HETATM    6  O1  UNL     1      31.340   9.671  46.780  1.00  0.00    -0.348 OA
BRANCH   6   7
HETATM    7  C6  UNL     1      32.033   8.853  46.018  1.00  0.00     0.104 C 
HETATM    8  C7  UNL     1      32.825   7.830  46.489  1.00  0.00     0.051 C 
HETATM    9  C8  UNL     1      33.524   7.039  45.429  1.00  0.00    -0.004 C 
HETATM   10  C9  UNL     1      33.455   5.707  45.220  1.00  0.00     0.134 C 
HETATM   11  C20 UNL     1      34.198   8.017  44.404  1.00  0.00     0.102 C 
HETATM   12  N2  UNL     1      33.493   5.235  43.796  1.00  0.00    -0.226 NA
HETATM   13  C16 UNL     1      32.659   5.803  42.869  1.00  0.00     0.209 C 
HETATM   14  N3  UNL     1      32.252   7.255  42.757  1.00  0.00    -0.351 N 
HETATM   15  C17 UNL     1      32.734   8.146  43.809  1.00  0.00     0.051 C 
HETATM   16  H17 UNL     1      31.703   7.941  42.205  1.00  0.00     0.166 HD
HETATM   17  C18 UNL     1      31.972   9.025  44.507  1.00  0.00     0.124 C 
BRANCH  10  18
HETATM   18  N1  UNL     1      33.323   5.290  46.575  1.00  0.00    -0.358 N 
HETATM   19  C10 UNL     1      34.588   5.316  47.286  1.00  0.00     0.152 C 
HETATM   20  C11 UNL     1      34.822   3.924  47.798  1.00  0.00    -0.005 C 
HETATM   21  C12 UNL     1      34.133   2.789  47.789  1.00  0.00     0.021 C 
HETATM   22  C13 UNL     1      32.809   2.591  47.207  1.00  0.00     0.031 C 
HETATM   23 CL1  UNL     1      32.386   0.907  46.916  1.00  0.00    -0.085 Cl
HETATM   24  C14 UNL     1      31.861   3.438  46.856  1.00  0.00     0.017 C 
HETATM   25  C15 UNL     1      31.991   4.919  47.008  1.00  0.00     0.153 C 
ENDBRANCH  10  18
BRANCH  17  26
HETATM   26  O2  UNL     1      31.398   9.764  43.524  1.00  0.00    -0.351 OA
HETATM   27  C19 UNL     1      31.994  10.915  42.932  1.00  0.00     0.210 C 
ENDBRANCH  17  26
ENDBRANCH   6   7
ENDBRANCH   5   6
ENDBRANCH   4   5
ENDBRANCH   3   4
TORSDOF 6
ENDMDL
MODEL 8
REMARK VINA RESULT:      -6.0      8.277     11.019
REMARK  6 active torsions:
REMARK  status: ('A' for Active; 'I' for Inactive)
REMARK    1  A    between atoms: C3_3  and  C4_4 
REMARK    2  A    between atoms: C4_4  and  C5_5 
REMARK    3  A    between atoms: C5_5  and  O1_6 
REMARK    4  A    between atoms: O1_6  and  C6_7 
REMARK    5  A    between atoms: C9_10  and  N1_11 
REMARK    6  A    between atoms: C18_23  and  O2_24 
ROOT
HETATM    1  C1  UNL     1      27.614  14.859  47.106  1.00  0.00     0.012 C 
HETATM    2  C2  UNL     1      27.886  14.045  47.936  1.00  0.00    -0.117 C 
HETATM    3  C3  UNL     1      28.240  13.059  48.948  1.00  0.00     0.095 C 
ENDROOT
BRANCH   3   4
HETATM    4  C4  UNL     1      29.737  13.045  49.134  1.00  0.00     0.039 C 
BRANCH   4   5
HETATM    5  C5  UNL     1      30.433  12.214  48.051  1.00  0.00     0.176 C 
BRANCH   5   6
HETATM    6  O1  UNL     1      30.613  10.937  48.563  1.00  0.00    -0.348 OA
BRANCH   6   7
HETATM    7  C6  UNL     1      30.231   9.743  48.166  1.00  0.00     0.104 C 
HETATM    8  C7  UNL     1      30.970   8.919  47.346  1.00  0.00     0.051 C 
HETATM    9  C8  UNL     1      30.323   7.610  47.024  1.00  0.00    -0.004 C 
HETATM   10  C9  UNL     1      30.821   6.374  47.239  1.00  0.00     0.134 C 
HETATM   11  C20 UNL     1      28.834   7.854  46.595  1.00  0.00     0.102 C 
HETATM   12  N2  UNL     1      29.846   5.302  47.630  1.00  0.00    -0.226 NA
HETATM   13  C16 UNL     1      28.956   5.530  48.646  1.00  0.00     0.209 C 
HETATM   14  N3  UNL     1      28.227   6.814  48.968  1.00  0.00    -0.351 N 
HETATM   15  C17 UNL     1      28.573   7.976  48.154  1.00  0.00     0.051 C 
HETATM   16  H17 UNL     1      27.536   7.261  49.600  1.00  0.00     0.166 HD
HETATM   17  C18 UNL     1      28.885   9.208  48.630  1.00  0.00     0.124 C 
BRANCH  10  18
HETATM   18  N1  UNL     1      32.197   6.663  47.019  1.00  0.00    -0.358 N 
HETATM   19  C10 UNL     1      32.512   6.807  45.610  1.00  0.00     0.152 C 
HETATM   20  C11 UNL     1      33.578   5.795  45.302  1.00  0.00    -0.005 C 
HETATM   21  C12 UNL     1      34.277   4.917  46.013  1.00  0.00     0.021 C 
HETATM   22  C13 UNL     1      34.168   4.693  47.451  1.00  0.00     0.031 C 
HETATM   23 CL1  UNL     1      34.841   3.162  48.002  1.00  0.00    -0.085 Cl
HETATM   24  C14 UNL     1      33.659   5.423  48.424  1.00  0.00     0.017 C 
HETATM   25  C15 UNL     1      33.032   6.760  48.200  1.00  0.00     0.153 C 
ENDBRANCH  10  18
BRANCH  17  26
HETATM   26  O2  UNL     1      27.809   9.507  49.402  1.00  0.00    -0.351 OA
HETATM   27  C19 UNL     1      26.516   9.821  48.892  1.00  0.00     0.210 C 
ENDBRANCH  17  26
ENDBRANCH   6   7
ENDBRANCH   5   6
ENDBRANCH   4   5
ENDBRANCH   3   4
TORSDOF 6
ENDMDL
MODEL 9
REMARK VINA RESULT:      -5.9      3.249      5.627
REMARK  6 active torsions:
REMARK  status: ('A' for Active; 'I' for Inactive)
REMARK    1  A    between atoms: C3_3  and  C4_4 
REMARK    2  A    between atoms: C4_4  and  C5_5 
REMARK    3  A    between atoms: C5_5  and  O1_6 
REMARK    4  A    between atoms: O1_6  and  C6_7 
REMARK    5  A    between atoms: C9_10  and  N1_11 
REMARK    6  A    between atoms: C18_23  and  O2_24 
ROOT
HETATM    1  C1  UNL     1      15.376   0.114  49.366  1.00  0.00     0.012 C 
HETATM    2  C2  UNL     1      16.260   0.132  50.169  1.00  0.00    -0.117 C 
HETATM    3  C3  UNL     1      17.346   0.172  51.138  1.00  0.00     0.095 C 
ENDROOT
BRANCH   3   4
HETATM    4  C4  UNL     1      18.322   1.255  50.754  1.00  0.00     0.039 C 
BRANCH   4   5
HETATM    5  C5  UNL     1      18.036   2.564  51.498  1.00  0.00     0.176 C 
BRANCH   5   6
HETATM    6  O1  UNL     1      19.211   2.946  52.130  1.00  0.00    -0.348 OA
BRANCH   6   7
HETATM    7  C6  UNL     1      20.482   2.714  51.887  1.00  0.00     0.104 C 
HETATM    8  C7  UNL     1      21.232   3.380  50.944  1.00  0.00     0.051 C 
HETATM    9  C8  UNL     1      22.656   2.934  50.845  1.00  0.00    -0.004 C 
HETATM   10  C9  UNL     1      23.764   3.693  50.978  1.00  0.00     0.134 C 
HETATM   11  C20 UNL     1      22.712   1.367  50.789  1.00  0.00     0.102 C 
HETATM   12  N2  UNL     1      24.952   3.060  51.641  1.00  0.00    -0.226 NA
HETATM   13  C16 UNL     1      24.797   2.408  52.837  1.00  0.00     0.209 C 
HETATM   14  N3  UNL     1      23.635   1.547  53.278  1.00  0.00    -0.351 N 
HETATM   15  C17 UNL     1      22.504   1.464  52.358  1.00  0.00     0.051 C 
HETATM   16  H17 UNL     1      23.263   0.954  54.044  1.00  0.00     0.166 HD
HETATM   17  C18 UNL     1      21.202   1.642  52.693  1.00  0.00     0.124 C 
BRANCH  10  18
HETATM   18  N1  UNL     1      23.260   4.898  50.412  1.00  0.00    -0.358 N 
HETATM   19  C10 UNL     1      22.955   4.760  49.001  1.00  0.00     0.152 C 
HETATM   20  C11 UNL     1      23.772   5.793  48.280  1.00  0.00    -0.005 C 
HETATM   21  C12 UNL     1      24.595   6.768  48.649  1.00  0.00     0.021 C 
HETATM   22  C13 UNL     1      24.951   7.121  50.020  1.00  0.00     0.031 C 
HETATM   23 CL1  UNL     1      26.408   8.099  50.165  1.00  0.00    -0.085 Cl
HETATM   24  C14 UNL     1      24.387   6.845  51.180  1.00  0.00     0.017 C 
HETATM   25  C15 UNL     1      23.141   6.031  51.309  1.00  0.00     0.153 C 
ENDBRANCH  10  18
BRANCH  17  26
HETATM   26  O2  UNL     1      21.029   0.743  53.695  1.00  0.00    -0.351 OA
HETATM   27  C19 UNL     1      20.298  -0.474  53.566  1.00  0.00     0.210 C 
ENDBRANCH  17  26
ENDBRANCH   6   7
ENDBRANCH   5   6
ENDBRANCH   4   5
ENDBRANCH   3   4
TORSDOF 6
ENDMDL
