MODEL 1
REMARK VINA RESULT:      -7.7      0.000      0.000
REMARK  1 active torsions:
REMARK  status: ('A' for Active; 'I' for Inactive)
REMARK    1  A    between atoms: O1_2  and  C2_3 
ROOT
HETATM    1  C2  UNL     1      23.413   2.772  51.514  1.00  0.00     0.050 C 
HETATM    2  C3  UNL     1      22.510   3.282  52.340  1.00  0.00     0.049 C 
HETATM    3  C4  UNL     1      21.113   3.032  52.069  1.00  0.00     0.030 A 
HETATM    4  C5  UNL     1      20.089   3.729  51.517  1.00  0.00     0.133 A 
HETATM    5  N1  UNL     1      18.877   3.160  51.407  1.00  0.00    -0.253 NA
HETATM    6  C6  UNL     1      18.749   1.907  51.860  1.00  0.00     0.234 A 
HETATM    7  N2  UNL     1      19.782   1.242  52.402  1.00  0.00    -0.224 NA
HETATM    8  C7  UNL     1      21.032   1.711  52.562  1.00  0.00     0.138 A 
HETATM    9  N3  UNL     1      21.755   0.610  53.176  1.00  0.00    -0.366 N 
HETATM   10  C8  UNL     1      21.216   0.133  54.464  1.00  0.00     0.151 C 
HETATM   11  C9  UNL     1      22.845  -0.216  52.826  1.00  0.00     0.151 C 
HETATM   12  C10 UNL     1      24.015  -0.238  53.674  1.00  0.00    -0.006 C 
HETATM   13  C11 UNL     1      25.293   0.027  53.609  1.00  0.00     0.016 C 
HETATM   14  C12 UNL     1      26.721   0.296  53.626  1.00  0.00     0.007 C 
HETATM   15 BR1  UNL     1      28.133   0.155  54.873  1.00  0.00    -0.051 Br
HETATM   16  C13 UNL     1      27.348   0.773  52.550  1.00  0.00    -0.004 C 
HETATM   17  C14 UNL     1      26.331   0.932  51.547  1.00  0.00     0.055 C 
HETATM   18  C15 UNL     1      26.509   2.222  50.799  1.00  0.00    -0.027 C 
HETATM   19  C16 UNL     1      25.790   3.388  50.796  1.00  0.00    -0.024 C 
HETATM   20  C17 UNL     1      24.803   3.000  51.792  1.00  0.00     0.091 C 
ENDROOT
BRANCH   1  21
HETATM   21  O1  UNL     1      22.245   2.346  50.929  1.00  0.00    -0.360 OA
HETATM   22  C1  UNL     1      22.297   1.759  49.640  1.00  0.00     0.209 C 
ENDBRANCH   1  21
TORSDOF 1
ENDMDL
MODEL 2
REMARK VINA RESULT:      -7.6      3.000      4.711
REMARK  1 active torsions:
REMARK  status: ('A' for Active; 'I' for Inactive)
REMARK    1  A    between atoms: O1_2  and  C2_3 
ROOT
HETATM    1  C2  UNL     1      22.968   2.522  50.639  1.00  0.00     0.050 C 
HETATM    2  C3  UNL     1      23.144   2.759  49.347  1.00  0.00     0.049 C 
HETATM    3  C4  UNL     1      23.194   4.132  48.901  1.00  0.00     0.030 A 
HETATM    4  C5  UNL     1      22.333   4.994  48.303  1.00  0.00     0.133 A 
HETATM    5  N1  UNL     1      22.725   6.250  48.035  1.00  0.00    -0.253 NA
HETATM    6  C6  UNL     1      23.973   6.588  48.383  1.00  0.00     0.234 A 
HETATM    7  N2  UNL     1      24.803   5.712  48.974  1.00  0.00    -0.224 NA
HETATM    8  C7  UNL     1      24.519   4.435  49.287  1.00  0.00     0.138 A 
HETATM    9  N3  UNL     1      25.733   3.937  49.910  1.00  0.00    -0.366 N 
HETATM   10  C8  UNL     1      26.950   4.004  49.076  1.00  0.00     0.151 C 
HETATM   11  C9  UNL     1      26.101   3.447  51.181  1.00  0.00     0.151 C 
HETATM   12  C10 UNL     1      26.640   2.110  51.294  1.00  0.00    -0.006 C 
HETATM   13  C11 UNL     1      26.362   0.975  51.878  1.00  0.00     0.016 C 
HETATM   14  C12 UNL     1      26.131  -0.323  52.489  1.00  0.00     0.007 C 
HETATM   15 BR1  UNL     1      27.014  -1.992  52.549  1.00  0.00    -0.051 Br
HETATM   16  C13 UNL     1      25.050  -0.554  53.236  1.00  0.00    -0.004 C 
HETATM   17  C14 UNL     1      24.303   0.673  53.226  1.00  0.00     0.055 C 
HETATM   18  C15 UNL     1      22.833   0.408  53.069  1.00  0.00    -0.027 C 
HETATM   19  C16 UNL     1      21.967   0.621  52.030  1.00  0.00    -0.024 C 
HETATM   20  C17 UNL     1      22.938   1.159  51.087  1.00  0.00     0.091 C 
ENDROOT
BRANCH   1  21
HETATM   21  O1  UNL     1      22.939   3.896  50.613  1.00  0.00    -0.360 OA
HETATM   22  C1  UNL     1      22.509   4.596  51.768  1.00  0.00     0.209 C 
ENDBRANCH   1  21
TORSDOF 1
ENDMDL
MODEL 3
REMARK VINA RESULT:      -7.4      3.137      4.466
REMARK  1 active torsions:
REMARK  status: ('A' for Active; 'I' for Inactive)
REMARK    1  A    between atoms: O1_2  and  C2_3 
ROOT
HETATM    1  C2  UNL     1      24.519   3.514  51.845  1.00  0.00     0.050 C 
HETATM    2  C3  UNL     1      23.714   4.561  51.726  1.00  0.00     0.049 C 
HETATM    3  C4  UNL     1      23.725   5.298  50.483  1.00  0.00     0.030 A 
HETATM    4  C5  UNL     1      24.274   6.458  50.045  1.00  0.00     0.133 A 
HETATM    5  N1  UNL     1      24.083   6.848  48.773  1.00  0.00    -0.253 NA
HETATM    6  C6  UNL     1      23.344   6.048  47.995  1.00  0.00     0.234 A 
HETATM    7  N2  UNL     1      22.812   4.904  48.458  1.00  0.00    -0.224 NA
HETATM    8  C7  UNL     1      22.938   4.419  49.706  1.00  0.00     0.138 A 
HETATM    9  N3  UNL     1      22.196   3.170  49.684  1.00  0.00    -0.366 N 
HETATM   10  C8  UNL     1      20.771   3.282  49.316  1.00  0.00     0.151 C 
HETATM   11  C9  UNL     1      22.496   1.803  49.858  1.00  0.00     0.151 C 
HETATM   12  C10 UNL     1      21.836   1.062  50.910  1.00  0.00    -0.006 C 
HETATM   13  C11 UNL     1      22.136   0.391  51.990  1.00  0.00     0.016 C 
HETATM   14  C12 UNL     1      22.379  -0.372  53.202  1.00  0.00     0.007 C 
HETATM   15 BR1  UNL     1      21.340  -1.332  54.455  1.00  0.00    -0.051 Br
HETATM   16  C13 UNL     1      23.611  -0.526  53.688  1.00  0.00    -0.004 C 
HETATM   17  C14 UNL     1      24.473   0.199  52.795  1.00  0.00     0.055 C 
HETATM   18  C15 UNL     1      25.512   0.970  53.558  1.00  0.00    -0.027 C 
HETATM   19  C16 UNL     1      25.681   2.311  53.781  1.00  0.00    -0.024 C 
HETATM   20  C17 UNL     1      24.495   2.767  53.070  1.00  0.00     0.091 C 
ENDROOT
BRANCH   1  21
HETATM   21  O1  UNL     1      24.825   3.944  50.575  1.00  0.00    -0.360 OA
HETATM   22  C1  UNL     1      25.976   3.423  49.933  1.00  0.00     0.209 C 
ENDBRANCH   1  21
TORSDOF 1
ENDMDL
MODEL 4
REMARK VINA RESULT:      -7.1      1.892      3.793
REMARK  1 active torsions:
REMARK  status: ('A' for Active; 'I' for Inactive)
REMARK    1  A    between atoms: O1_2  and  C2_3 
ROOT
HETATM    1  C2  UNL     1      21.437   0.529  51.777  1.00  0.00     0.050 C 
HETATM    2  C3  UNL     1      21.213   0.525  50.471  1.00  0.00     0.049 C 
HETATM    3  C4  UNL     1      20.492   1.636  49.894  1.00  0.00     0.030 A 
HETATM    4  C5  UNL     1      19.220   1.861  49.480  1.00  0.00     0.133 A 
HETATM    5  N1  UNL     1      18.882   3.064  48.988  1.00  0.00    -0.253 NA
HETATM    6  C6  UNL     1      19.843   3.994  48.935  1.00  0.00     0.234 A 
HETATM    7  N2  UNL     1      21.095   3.741  49.353  1.00  0.00    -0.224 NA
HETATM    8  C7  UNL     1      21.543   2.579  49.859  1.00  0.00     0.138 A 
HETATM    9  N3  UNL     1      22.941   2.833  50.161  1.00  0.00    -0.366 N 
HETATM   10  C8  UNL     1      23.775   3.251  49.017  1.00  0.00     0.151 C 
HETATM   11  C9  UNL     1      23.747   2.858  51.320  1.00  0.00     0.151 C 
HETATM   12  C10 UNL     1      24.884   1.969  51.410  1.00  0.00    -0.006 C 
HETATM   13  C11 UNL     1      25.322   0.992  52.159  1.00  0.00     0.016 C 
HETATM   14  C12 UNL     1      25.885  -0.098  52.937  1.00  0.00     0.007 C 
HETATM   15 BR1  UNL     1      27.466  -1.132  52.912  1.00  0.00    -0.051 Br
HETATM   16  C13 UNL     1      25.231  -0.617  53.977  1.00  0.00    -0.004 C 
HETATM   17  C14 UNL     1      23.992   0.108  54.055  1.00  0.00     0.055 C 
HETATM   18  C15 UNL     1      22.845  -0.817  54.346  1.00  0.00    -0.027 C 
HETATM   19  C16 UNL     1      21.800  -1.254  53.577  1.00  0.00    -0.024 C 
HETATM   20  C17 UNL     1      22.171  -0.563  52.350  1.00  0.00     0.091 C 
ENDROOT
BRANCH   1  21
HETATM   21  O1  UNL     1      20.733   1.699  51.623  1.00  0.00    -0.360 OA
HETATM   22  C1  UNL     1      20.307   2.402  52.778  1.00  0.00     0.209 C 
ENDBRANCH   1  21
TORSDOF 1
ENDMDL
MODEL 5
REMARK VINA RESULT:      -7.0      3.406      5.856
REMARK  1 active torsions:
REMARK  status: ('A' for Active; 'I' for Inactive)
REMARK    1  A    between atoms: O1_2  and  C2_3 
ROOT
HETATM    1  C2  UNL     1      26.527   2.328  50.999  1.00  0.00     0.050 C 
HETATM    2  C3  UNL     1      26.244   1.034  51.047  1.00  0.00     0.049 C 
HETATM    3  C4  UNL     1      26.449   0.332  52.292  1.00  0.00     0.030 A 
HETATM    4  C5  UNL     1      27.398  -0.495  52.799  1.00  0.00     0.133 A 
HETATM    5  N1  UNL     1      27.269  -0.972  54.048  1.00  0.00    -0.253 NA
HETATM    6  C6  UNL     1      26.185  -0.593  54.737  1.00  0.00     0.234 A 
HETATM    7  N2  UNL     1      25.262   0.227  54.208  1.00  0.00    -0.224 NA
HETATM    8  C7  UNL     1      25.288   0.760  52.974  1.00  0.00     0.138 A 
HETATM    9  N3  UNL     1      24.083   1.568  52.905  1.00  0.00    -0.366 N 
HETATM   10  C8  UNL     1      22.816   0.844  53.125  1.00  0.00     0.151 C 
HETATM   11  C9  UNL     1      23.781   2.938  52.746  1.00  0.00     0.151 C 
HETATM   12  C10 UNL     1      22.972   3.358  51.623  1.00  0.00    -0.006 C 
HETATM   13  C11 UNL     1      23.059   4.129  50.572  1.00  0.00     0.016 C 
HETATM   14  C12 UNL     1      23.067   4.962  49.382  1.00  0.00     0.007 C 
HETATM   15 BR1  UNL     1      21.844   5.424  48.017  1.00  0.00    -0.051 Br
HETATM   16  C13 UNL     1      24.154   5.647  49.023  1.00  0.00    -0.004 C 
HETATM   17  C14 UNL     1      25.152   5.332  50.009  1.00  0.00     0.055 C 
HETATM   18  C15 UNL     1      26.491   5.108  49.367  1.00  0.00    -0.027 C 
HETATM   19  C16 UNL     1      27.242   3.978  49.178  1.00  0.00    -0.024 C 
HETATM   20  C17 UNL     1      26.304   3.033  49.768  1.00  0.00     0.091 C 
ENDROOT
BRANCH   1  21
HETATM   21  O1  UNL     1      26.861   2.029  52.298  1.00  0.00    -0.360 OA
HETATM   22  C1  UNL     1      28.004   2.641  52.871  1.00  0.00     0.209 C 
ENDBRANCH   1  21
TORSDOF 1
ENDMDL
MODEL 6
REMARK VINA RESULT:      -6.9      3.271      5.080
REMARK  1 active torsions:
REMARK  status: ('A' for Active; 'I' for Inactive)
REMARK    1  A    between atoms: O1_2  and  C2_3 
ROOT
HETATM    1  C2  UNL     1      24.049   2.597  50.797  1.00  0.00     0.050 C 
HETATM    2  C3  UNL     1      23.043   1.774  50.542  1.00  0.00     0.049 C 
HETATM    3  C4  UNL     1      22.294   1.238  51.655  1.00  0.00     0.030 A 
HETATM    4  C5  UNL     1      22.263   0.063  52.333  1.00  0.00     0.133 A 
HETATM    5  N1  UNL     1      21.418  -0.090  53.365  1.00  0.00    -0.253 NA
HETATM    6  C6  UNL     1      20.636   0.953  53.673  1.00  0.00     0.234 A 
HETATM    7  N2  UNL     1      20.688   2.104  52.982  1.00  0.00    -0.224 NA
HETATM    8  C7  UNL     1      21.491   2.366  51.936  1.00  0.00     0.138 A 
HETATM    9  N3  UNL     1      21.169   3.734  51.568  1.00  0.00    -0.366 N 
HETATM   10  C8  UNL     1      19.759   3.982  51.209  1.00  0.00     0.151 C 
HETATM   11  C9  UNL     1      21.854   4.967  51.525  1.00  0.00     0.151 C 
HETATM   12  C10 UNL     1      21.963   5.672  50.267  1.00  0.00    -0.006 C 
HETATM   13  C11 UNL     1      22.886   6.101  49.447  1.00  0.00     0.016 C 
HETATM   14  C12 UNL     1      23.843   6.612  48.481  1.00  0.00     0.007 C 
HETATM   15 BR1  UNL     1      23.778   7.580  46.860  1.00  0.00    -0.051 Br
HETATM   16  C13 UNL     1      25.154   6.430  48.643  1.00  0.00    -0.004 C 
HETATM   17  C14 UNL     1      25.293   5.674  49.858  1.00  0.00     0.055 C 
HETATM   18  C15 UNL     1      26.330   4.598  49.708  1.00  0.00    -0.027 C 
HETATM   19  C16 UNL     1      26.234   3.235  49.627  1.00  0.00    -0.024 C 
HETATM   20  C17 UNL     1      24.782   3.147  49.692  1.00  0.00     0.091 C 
ENDROOT
BRANCH   1  21
HETATM   21  O1  UNL     1      23.617   2.300  52.068  1.00  0.00    -0.360 OA
HETATM   22  C1  UNL     1      24.421   2.680  53.172  1.00  0.00     0.209 C 
ENDBRANCH   1  21
TORSDOF 1
ENDMDL
MODEL 7
REMARK VINA RESULT:      -6.7      3.139      5.822
REMARK  1 active torsions:
REMARK  status: ('A' for Active; 'I' for Inactive)
REMARK    1  A    between atoms: O1_2  and  C2_3 
ROOT
HETATM    1  C2  UNL     1      22.901   2.996  51.029  1.00  0.00     0.050 C 
HETATM    2  C3  UNL     1      23.859   2.194  50.585  1.00  0.00     0.049 C 
HETATM    3  C4  UNL     1      25.121   2.177  51.287  1.00  0.00     0.030 A 
HETATM    4  C5  UNL     1      26.349   2.720  51.094  1.00  0.00     0.133 A 
HETATM    5  N1  UNL     1      27.325   2.499  51.991  1.00  0.00    -0.253 NA
HETATM    6  C6  UNL     1      27.020   1.737  53.049  1.00  0.00     0.234 A 
HETATM    7  N2  UNL     1      25.794   1.211  53.212  1.00  0.00    -0.224 NA
HETATM    8  C7  UNL     1      24.747   1.366  52.382  1.00  0.00     0.138 A 
HETATM    9  N3  UNL     1      23.674   0.618  53.012  1.00  0.00    -0.366 N 
HETATM   10  C8  UNL     1      23.943  -0.816  53.239  1.00  0.00     0.151 C 
HETATM   11  C9  UNL     1      22.407   0.916  53.558  1.00  0.00     0.151 C 
HETATM   12  C10 UNL     1      21.232   0.278  53.007  1.00  0.00    -0.006 C 
HETATM   13  C11 UNL     1      20.110   0.602  52.420  1.00  0.00     0.016 C 
HETATM   14  C12 UNL     1      18.843   0.871  51.763  1.00  0.00     0.007 C 
HETATM   15 BR1  UNL     1      17.374  -0.141  51.140  1.00  0.00    -0.051 Br
HETATM   16  C13 UNL     1      18.475   2.115  51.451  1.00  0.00    -0.004 C 
HETATM   17  C14 UNL     1      19.559   2.957  51.877  1.00  0.00     0.055 C 
HETATM   18  C15 UNL     1      19.849   4.019  50.855  1.00  0.00    -0.027 C 
HETATM   19  C16 UNL     1      20.896   4.200  49.992  1.00  0.00    -0.024 C 
HETATM   20  C17 UNL     1      21.639   2.999  50.346  1.00  0.00     0.091 C 
ENDROOT
BRANCH   1  21
HETATM   21  O1  UNL     1      23.915   3.271  51.916  1.00  0.00    -0.360 OA
HETATM   22  C1  UNL     1      23.765   4.360  52.812  1.00  0.00     0.209 C 
ENDBRANCH   1  21
TORSDOF 1
ENDMDL
MODEL 8
REMARK VINA RESULT:      -6.6      3.305      5.478
REMARK  1 active torsions:
REMARK  status: ('A' for Active; 'I' for Inactive)
REMARK    1  A    between atoms: O1_2  and  C2_3 
ROOT
HETATM    1  C2  UNL     1      22.907   3.501  51.077  1.00  0.00     0.050 C 
HETATM    2  C3  UNL     1      23.285   3.274  52.327  1.00  0.00     0.049 C 
HETATM    3  C4  UNL     1      23.473   1.906  52.750  1.00  0.00     0.030 A 
HETATM    4  C5  UNL     1      22.757   0.999  53.462  1.00  0.00     0.133 A 
HETATM    5  N1  UNL     1      23.251  -0.234  53.659  1.00  0.00    -0.253 NA
HETATM    6  C6  UNL     1      24.450  -0.504  53.128  1.00  0.00     0.234 A 
HETATM    7  N2  UNL     1      25.136   0.416  52.428  1.00  0.00    -0.224 NA
HETATM    8  C7  UNL     1      24.741   1.675  52.171  1.00  0.00     0.138 A 
HETATM    9  N3  UNL     1      25.822   2.237  51.380  1.00  0.00    -0.366 N 
HETATM   10  C8  UNL     1      27.150   2.237  52.025  1.00  0.00     0.151 C 
HETATM   11  C9  UNL     1      25.971   2.747  50.073  1.00  0.00     0.151 C 
HETATM   12  C10 UNL     1      26.416   4.111  49.891  1.00  0.00    -0.006 C 
HETATM   13  C11 UNL     1      25.995   5.229  49.363  1.00  0.00     0.016 C 
HETATM   14  C12 UNL     1      25.607   6.513  48.804  1.00  0.00     0.007 C 
HETATM   15 BR1  UNL     1      26.381   8.227  48.627  1.00  0.00    -0.051 Br
HETATM   16  C13 UNL     1      24.417   6.685  48.225  1.00  0.00    -0.004 C 
HETATM   17  C14 UNL     1      23.747   5.418  48.336  1.00  0.00     0.055 C 
HETATM   18  C15 UNL     1      22.304   5.604  48.709  1.00  0.00    -0.027 C 
HETATM   19  C16 UNL     1      21.613   5.344  49.863  1.00  0.00    -0.024 C 
HETATM   20  C17 UNL     1      22.740   4.861  50.648  1.00  0.00     0.091 C 
ENDROOT
BRANCH   1  21
HETATM   21  O1  UNL     1      22.957   2.127  51.096  1.00  0.00    -0.360 OA
HETATM   22  C1  UNL     1      22.289   1.402  50.078  1.00  0.00     0.209 C 
ENDBRANCH   1  21
TORSDOF 1
ENDMDL
MODEL 9
REMARK VINA RESULT:      -6.6      3.325      4.986
REMARK  1 active torsions:
REMARK  status: ('A' for Active; 'I' for Inactive)
REMARK    1  A    between atoms: O1_2  and  C2_3 
ROOT
HETATM    1  C2  UNL     1      21.857   3.341  49.339  1.00  0.00     0.050 C 
HETATM    2  C3  UNL     1      22.654   4.129  48.631  1.00  0.00     0.049 C 
HETATM    3  C4  UNL     1      22.231   5.487  48.381  1.00  0.00     0.030 A 
HETATM    4  C5  UNL     1      21.678   6.159  47.341  1.00  0.00     0.133 A 
HETATM    5  N1  UNL     1      21.393   7.466  47.467  1.00  0.00    -0.253 NA
HETATM    6  C6  UNL     1      21.679   8.043  48.641  1.00  0.00     0.234 A 
HETATM    7  N2  UNL     1      22.228   7.351  49.653  1.00  0.00    -0.224 NA
HETATM    8  C7  UNL     1      22.554   6.046  49.638  1.00  0.00     0.138 A 
HETATM    9  N3  UNL     1      23.093   5.794  50.963  1.00  0.00    -0.366 N 
HETATM   10  C8  UNL     1      24.262   6.612  51.342  1.00  0.00     0.151 C 
HETATM   11  C9  UNL     1      22.746   4.991  52.070  1.00  0.00     0.151 C 
HETATM   12  C10 UNL     1      23.686   4.002  52.549  1.00  0.00    -0.006 C 
HETATM   13  C11 UNL     1      23.767   2.709  52.717  1.00  0.00     0.016 C 
HETATM   14  C12 UNL     1      23.944   1.284  52.936  1.00  0.00     0.007 C 
HETATM   15 BR1  UNL     1      25.286   0.156  53.640  1.00  0.00    -0.051 Br
HETATM   16  C13 UNL     1      22.993   0.409  52.604  1.00  0.00    -0.004 C 
HETATM   17  C14 UNL     1      21.930   1.191  52.035  1.00  0.00     0.055 C 
HETATM   18  C15 UNL     1      21.360   0.520  50.818  1.00  0.00    -0.027 C 
HETATM   19  C16 UNL     1      21.432   0.822  49.484  1.00  0.00    -0.024 C 
HETATM   20  C17 UNL     1      22.284   1.997  49.606  1.00  0.00     0.091 C 
ENDROOT
BRANCH   1  21
HETATM   21  O1  UNL     1      21.123   4.503  49.305  1.00  0.00    -0.360 OA
HETATM   22  C1  UNL     1      19.783   4.482  49.767  1.00  0.00     0.209 C 
ENDBRANCH   1  21
TORSDOF 1
ENDMDL
