MODEL 1
REMARK VINA RESULT:      -6.6      0.000      0.000
REMARK  3 active torsions:
REMARK  status: ('A' for Active; 'I' for Inactive)
REMARK    1  A    between atoms: C2_2  and  O1_3 
REMARK    2  A    between atoms: O1_3  and  C3_4 
REMARK    3  A    between atoms: C14_19  and  O3_20 
ROOT
HETATM    1  C3  UNL     1      26.190   2.634  50.470  1.00  0.00     0.325 C 
HETATM    2  O2  UNL     1      24.973   2.221  51.175  1.00  0.00    -0.299 OA
HETATM    3  C4  UNL     1      24.038   3.321  51.228  1.00  0.00     0.157 A 
HETATM    4  C5  UNL     1      23.371   3.361  50.134  1.00  0.00     0.147 A 
HETATM    5  N1  UNL     1      23.464   2.432  49.081  1.00  0.00    -0.397 N 
HETATM    6  C6  UNL     1      22.214   2.268  48.257  1.00  0.00     0.075 C 
HETATM    7  C7  UNL     1      21.481   1.098  48.810  1.00  0.00     0.032 C 
HETATM    8  C8  UNL     1      21.422   3.607  48.486  1.00  0.00     0.044 C 
HETATM    9  C9  UNL     1      22.425   4.402  49.287  1.00  0.00     0.047 A 
HETATM   10  C10 UNL     1      22.767   4.641  50.487  1.00  0.00     0.063 A 
HETATM   11  N2  UNL     1      22.830   5.413  51.587  1.00  0.00    -0.249 NA
HETATM   12  C11 UNL     1      23.543   5.106  52.615  1.00  0.00     0.208 A 
HETATM   13  N3  UNL     1      24.299   3.914  52.470  1.00  0.00    -0.333 N 
HETATM   14  C12 UNL     1      23.634   5.229  48.701  1.00  0.00     0.049 C 
HETATM   15  C13 UNL     1      24.868   4.563  49.170  1.00  0.00     0.012 C 
HETATM   16  C14 UNL     1      25.967   3.888  49.642  1.00  0.00     0.097 C 
HETATM   17  H7  UNL     1      24.262   1.854  48.844  1.00  0.00     0.155 HD
HETATM   18  H15 UNL     1      24.905   3.671  53.274  1.00  0.00     0.168 HD
ENDROOT
BRANCH   1  19
HETATM   19  O1  UNL     1      27.191   2.877  51.352  1.00  0.00    -0.355 OA
BRANCH  19  20
HETATM   20  C2  UNL     1      27.302   1.941  52.360  1.00  0.00     0.167 C 
HETATM   21  C1  UNL     1      28.259   2.296  53.453  1.00  0.00     0.033 C 
ENDBRANCH  19  20
ENDBRANCH   1  19
BRANCH  16  22
HETATM   22  O3  UNL     1      27.299   4.147  49.502  1.00  0.00    -0.355 OA
HETATM   23  C15 UNL     1      27.884   5.017  48.571  1.00  0.00     0.209 C 
ENDBRANCH  16  22
TORSDOF 3
ENDMDL
MODEL 2
REMARK VINA RESULT:      -6.3      8.038      9.987
REMARK  3 active torsions:
REMARK  status: ('A' for Active; 'I' for Inactive)
REMARK    1  A    between atoms: C2_2  and  O1_3 
REMARK    2  A    between atoms: O1_3  and  C3_4 
REMARK    3  A    between atoms: C14_19  and  O3_20 
ROOT
HETATM    1  C3  UNL     1      32.493   4.128  46.526  1.00  0.00     0.325 C 
HETATM    2  O2  UNL     1      32.364   4.521  47.932  1.00  0.00    -0.299 OA
HETATM    3  C4  UNL     1      33.305   5.575  48.236  1.00  0.00     0.157 A 
HETATM    4  C5  UNL     1      32.802   6.702  47.891  1.00  0.00     0.147 A 
HETATM    5  N1  UNL     1      31.505   6.901  47.381  1.00  0.00    -0.397 N 
HETATM    6  C6  UNL     1      30.905   8.253  47.665  1.00  0.00     0.075 C 
HETATM    7  C7  UNL     1      30.066   8.107  48.884  1.00  0.00     0.032 C 
HETATM    8  C8  UNL     1      32.147   9.181  47.926  1.00  0.00     0.044 C 
HETATM    9  C9  UNL     1      33.282   8.243  47.592  1.00  0.00     0.047 A 
HETATM   10  C10 UNL     1      34.060   7.398  48.135  1.00  0.00     0.063 A 
HETATM   11  N2  UNL     1      35.248   7.001  48.626  1.00  0.00    -0.249 NA
HETATM   12  C11 UNL     1      35.487   5.785  48.977  1.00  0.00     0.208 A 
HETATM   13  N3  UNL     1      34.411   4.887  48.753  1.00  0.00    -0.333 N 
HETATM   14  C12 UNL     1      33.833   7.930  46.147  1.00  0.00     0.049 C 
HETATM   15  C13 UNL     1      33.534   6.506  45.881  1.00  0.00     0.012 C 
HETATM   16  C14 UNL     1      33.219   5.181  45.707  1.00  0.00     0.097 C 
HETATM   17  H7  UNL     1      30.936   6.231  46.877  1.00  0.00     0.155 HD
HETATM   18  H15 UNL     1      34.598   3.898  48.997  1.00  0.00     0.168 HD
ENDROOT
BRANCH   1  19
HETATM   19  O1  UNL     1      33.174   2.960  46.420  1.00  0.00    -0.355 OA
BRANCH  19  20
HETATM   20  C2  UNL     1      32.765   1.980  47.302  1.00  0.00     0.167 C 
HETATM   21  C1  UNL     1      32.101   0.797  46.673  1.00  0.00     0.033 C 
ENDBRANCH  19  20
ENDBRANCH   1  19
BRANCH  16  22
HETATM   22  O3  UNL     1      33.474   4.334  44.668  1.00  0.00    -0.355 OA
HETATM   23  C15 UNL     1      33.629   4.692  43.322  1.00  0.00     0.209 C 
ENDBRANCH  16  22
TORSDOF 3
ENDMDL
MODEL 3
REMARK VINA RESULT:      -6.2      6.791     10.033
REMARK  3 active torsions:
REMARK  status: ('A' for Active; 'I' for Inactive)
REMARK    1  A    between atoms: C2_2  and  O1_3 
REMARK    2  A    between atoms: O1_3  and  C3_4 
REMARK    3  A    between atoms: C14_19  and  O3_20 
ROOT
HETATM    1  C3  UNL     1      31.416   7.006  48.012  1.00  0.00     0.325 C 
HETATM    2  O2  UNL     1      32.747   7.414  47.552  1.00  0.00    -0.299 OA
HETATM    3  C4  UNL     1      33.610   6.259  47.460  1.00  0.00     0.157 A 
HETATM    4  C5  UNL     1      33.417   5.676  46.335  1.00  0.00     0.147 A 
HETATM    5  N1  UNL     1      32.568   6.132  45.309  1.00  0.00    -0.397 N 
HETATM    6  C6  UNL     1      32.970   5.724  43.916  1.00  0.00     0.075 C 
HETATM    7  C7  UNL     1      33.752   6.850  43.342  1.00  0.00     0.032 C 
HETATM    8  C8  UNL     1      33.864   4.448  44.128  1.00  0.00     0.044 C 
HETATM    9  C9  UNL     1      33.705   4.230  45.614  1.00  0.00     0.047 A 
HETATM   10  C10 UNL     1      34.243   4.538  46.723  1.00  0.00     0.063 A 
HETATM   11  N2  UNL     1      34.987   4.273  47.813  1.00  0.00    -0.249 NA
HETATM   12  C11 UNL     1      35.073   5.081  48.812  1.00  0.00     0.208 A 
HETATM   13  N3  UNL     1      34.276   6.249  48.694  1.00  0.00    -0.333 N 
HETATM   14  C12 UNL     1      32.503   3.491  46.320  1.00  0.00     0.049 C 
HETATM   15  C13 UNL     1      31.795   4.511  47.124  1.00  0.00     0.012 C 
HETATM   16  C14 UNL     1      31.191   5.513  47.843  1.00  0.00     0.097 C 
HETATM   17  H7  UNL     1      31.748   6.718  45.409  1.00  0.00     0.155 HD
HETATM   18  H15 UNL     1      34.306   6.893  49.504  1.00  0.00     0.168 HD
ENDROOT
BRANCH   1  19
HETATM   19  O1  UNL     1      31.250   7.316  49.322  1.00  0.00    -0.355 OA
BRANCH  19  20
HETATM   20  C2  UNL     1      31.270   8.670  49.593  1.00  0.00     0.167 C 
HETATM   21  C1  UNL     1      29.999   9.397  49.287  1.00  0.00     0.033 C 
ENDBRANCH  19  20
ENDBRANCH   1  19
BRANCH  16  22
HETATM   22  O3  UNL     1      30.119   5.483  48.686  1.00  0.00    -0.355 OA
HETATM   23  C15 UNL     1      28.768   5.447  48.314  1.00  0.00     0.209 C 
ENDBRANCH  16  22
TORSDOF 3
ENDMDL
MODEL 4
REMARK VINA RESULT:      -6.2      2.830      4.349
REMARK  3 active torsions:
REMARK  status: ('A' for Active; 'I' for Inactive)
REMARK    1  A    between atoms: C2_2  and  O1_3 
REMARK    2  A    between atoms: O1_3  and  C3_4 
REMARK    3  A    between atoms: C14_19  and  O3_20 
ROOT
HETATM    1  C3  UNL     1      24.136   2.946  50.327  1.00  0.00     0.325 C 
HETATM    2  O2  UNL     1      24.028   3.109  51.780  1.00  0.00    -0.299 OA
HETATM    3  C4  UNL     1      22.675   2.837  52.206  1.00  0.00     0.157 A 
HETATM    4  C5  UNL     1      22.525   1.573  52.353  1.00  0.00     0.147 A 
HETATM    5  N1  UNL     1      23.537   0.604  52.213  1.00  0.00    -0.397 N 
HETATM    6  C6  UNL     1      23.348  -0.644  53.033  1.00  0.00     0.075 C 
HETATM    7  C7  UNL     1      24.128  -0.463  54.286  1.00  0.00     0.032 C 
HETATM    8  C8  UNL     1      21.802  -0.691  53.318  1.00  0.00     0.044 C 
HETATM    9  C9  UNL     1      21.320   0.465  52.474  1.00  0.00     0.047 A 
HETATM   10  C10 UNL     1      21.085   1.712  52.544  1.00  0.00     0.063 A 
HETATM   11  N2  UNL     1      20.270   2.779  52.625  1.00  0.00    -0.249 NA
HETATM   12  C11 UNL     1      20.691   3.990  52.509  1.00  0.00     0.208 A 
HETATM   13  N3  UNL     1      22.079   4.105  52.235  1.00  0.00    -0.333 N 
HETATM   14  C12 UNL     1      21.025   0.424  50.924  1.00  0.00     0.049 C 
HETATM   15  C13 UNL     1      22.021   1.308  50.282  1.00  0.00     0.012 C 
HETATM   16  C14 UNL     1      22.978   2.143  49.759  1.00  0.00     0.097 C 
HETATM   17  H7  UNL     1      24.376   0.673  51.648  1.00  0.00     0.155 HD
HETATM   18  H15 UNL     1      22.428   5.071  52.104  1.00  0.00     0.168 HD
ENDROOT
BRANCH   1  19
HETATM   19  O1  UNL     1      24.159   4.155  49.713  1.00  0.00    -0.355 OA
BRANCH  19  20
HETATM   20  C2  UNL     1      25.358   4.829  49.827  1.00  0.00     0.167 C 
HETATM   21  C1  UNL     1      26.567   4.045  49.424  1.00  0.00     0.033 C 
ENDBRANCH  19  20
ENDBRANCH   1  19
BRANCH  16  22
HETATM   22  O3  UNL     1      23.209   2.539  48.475  1.00  0.00    -0.355 OA
HETATM   23  C15 UNL     1      22.313   2.445  47.401  1.00  0.00     0.209 C 
ENDBRANCH  16  22
TORSDOF 3
ENDMDL
MODEL 5
REMARK VINA RESULT:      -5.8      2.844      4.566
REMARK  3 active torsions:
REMARK  status: ('A' for Active; 'I' for Inactive)
REMARK    1  A    between atoms: C2_2  and  O1_3 
REMARK    2  A    between atoms: O1_3  and  C3_4 
REMARK    3  A    between atoms: C14_19  and  O3_20 
ROOT
HETATM    1  C3  UNL     1      23.997   3.361  50.300  1.00  0.00     0.325 C 
HETATM    2  O2  UNL     1      23.904   3.462  51.759  1.00  0.00    -0.299 OA
HETATM    3  C4  UNL     1      22.638   2.930  52.209  1.00  0.00     0.157 A 
HETATM    4  C5  UNL     1      22.730   1.657  52.319  1.00  0.00     0.147 A 
HETATM    5  N1  UNL     1      23.899   0.898  52.123  1.00  0.00    -0.397 N 
HETATM    6  C6  UNL     1      23.970  -0.386  52.907  1.00  0.00     0.075 C 
HETATM    7  C7  UNL     1      24.740  -0.096  54.146  1.00  0.00     0.032 C 
HETATM    8  C8  UNL     1      22.469  -0.728  53.227  1.00  0.00     0.044 C 
HETATM    9  C9  UNL     1      21.755   0.340  52.433  1.00  0.00     0.047 A 
HETATM   10  C10 UNL     1      21.296   1.519  52.549  1.00  0.00     0.063 A 
HETATM   11  N2  UNL     1      20.299   2.413  52.684  1.00  0.00    -0.249 NA
HETATM   12  C11 UNL     1      20.484   3.684  52.597  1.00  0.00     0.208 A 
HETATM   13  N3  UNL     1      21.817   4.064  52.293  1.00  0.00    -0.333 N 
HETATM   14  C12 UNL     1      21.428   0.287  50.890  1.00  0.00     0.049 C 
HETATM   15  C13 UNL     1      22.222   1.359  50.253  1.00  0.00     0.012 C 
HETATM   16  C14 UNL     1      22.992   2.372  49.735  1.00  0.00     0.097 C 
HETATM   17  H7  UNL     1      24.693   1.137  51.541  1.00  0.00     0.155 HD
HETATM   18  H15 UNL     1      21.978   5.081  52.185  1.00  0.00     0.168 HD
ENDROOT
BRANCH   1  19
HETATM   19  O1  UNL     1      23.777   4.569  49.725  1.00  0.00    -0.355 OA
BRANCH  19  20
HETATM   20  C2  UNL     1      24.494   5.606  50.286  1.00  0.00     0.167 C 
HETATM   21  C1  UNL     1      23.682   6.797  50.685  1.00  0.00     0.033 C 
ENDBRANCH  19  20
ENDBRANCH   1  19
BRANCH  16  22
HETATM   22  O3  UNL     1      23.106   2.839  48.458  1.00  0.00    -0.355 OA
HETATM   23  C15 UNL     1      22.331   2.450  47.358  1.00  0.00     0.209 C 
ENDBRANCH  16  22
TORSDOF 3
ENDMDL
MODEL 6
REMARK VINA RESULT:      -5.8      3.393      6.143
REMARK  3 active torsions:
REMARK  status: ('A' for Active; 'I' for Inactive)
REMARK    1  A    between atoms: C2_2  and  O1_3 
REMARK    2  A    between atoms: O1_3  and  C3_4 
REMARK    3  A    between atoms: C14_19  and  O3_20 
ROOT
HETATM    1  C3  UNL     1      19.966   0.933  51.822  1.00  0.00     0.325 C 
HETATM    2  O2  UNL     1      21.016   0.133  51.184  1.00  0.00    -0.299 OA
HETATM    3  C4  UNL     1      21.872   0.987  50.393  1.00  0.00     0.157 A 
HETATM    4  C5  UNL     1      22.759   1.516  51.153  1.00  0.00     0.147 A 
HETATM    5  N1  UNL     1      22.934   1.244  52.523  1.00  0.00    -0.397 N 
HETATM    6  C6  UNL     1      24.339   1.418  53.036  1.00  0.00     0.075 C 
HETATM    7  C7  UNL     1      24.981   0.077  53.007  1.00  0.00     0.032 C 
HETATM    8  C8  UNL     1      25.009   2.401  52.008  1.00  0.00     0.044 C 
HETATM    9  C9  UNL     1      23.824   2.765  51.145  1.00  0.00     0.047 A 
HETATM   10  C10 UNL     1      23.220   2.400  50.088  1.00  0.00     0.063 A 
HETATM   11  N2  UNL     1      22.888   2.524  48.790  1.00  0.00    -0.249 NA
HETATM   12  C11 UNL     1      21.982   1.801  48.229  1.00  0.00     0.208 A 
HETATM   13  N3  UNL     1      21.323   0.900  49.106  1.00  0.00    -0.333 N 
HETATM   14  C12 UNL     1      22.740   3.863  51.473  1.00  0.00     0.049 C 
HETATM   15  C13 UNL     1      21.461   3.147  51.670  1.00  0.00     0.012 C 
HETATM   16  C14 UNL     1      20.313   2.412  51.841  1.00  0.00     0.097 C 
HETATM   17  H7  UNL     1      22.231   0.923  53.178  1.00  0.00     0.155 HD
HETATM   18  H15 UNL     1      20.567   0.336  48.680  1.00  0.00     0.168 HD
ENDROOT
BRANCH   1  19
HETATM   19  O1  UNL     1      18.788   0.780  51.167  1.00  0.00    -0.355 OA
BRANCH  19  20
HETATM   20  C2  UNL     1      18.110  -0.381  51.479  1.00  0.00     0.167 C 
HETATM   21  C1  UNL     1      18.275  -0.853  52.889  1.00  0.00     0.033 C 
ENDBRANCH  19  20
ENDBRANCH   1  19
BRANCH  16  22
HETATM   22  O3  UNL     1      19.034   2.807  52.105  1.00  0.00    -0.355 OA
HETATM   23  C15 UNL     1      18.334   3.840  51.468  1.00  0.00     0.209 C 
ENDBRANCH  16  22
TORSDOF 3
ENDMDL
MODEL 7
REMARK VINA RESULT:      -5.7      8.362     10.860
REMARK  3 active torsions:
REMARK  status: ('A' for Active; 'I' for Inactive)
REMARK    1  A    between atoms: C2_2  and  O1_3 
REMARK    2  A    between atoms: O1_3  and  C3_4 
REMARK    3  A    between atoms: C14_19  and  O3_20 
ROOT
HETATM    1  C3  UNL     1      32.593   8.594  46.877  1.00  0.00     0.325 C 
HETATM    2  O2  UNL     1      33.851   8.141  46.278  1.00  0.00    -0.299 OA
HETATM    3  C4  UNL     1      34.392   7.041  47.043  1.00  0.00     0.157 A 
HETATM    4  C5  UNL     1      33.837   5.950  46.665  1.00  0.00     0.147 A 
HETATM    5  N1  UNL     1      32.914   5.821  45.609  1.00  0.00    -0.397 N 
HETATM    6  C6  UNL     1      32.907   4.480  44.924  1.00  0.00     0.075 C 
HETATM    7  C7  UNL     1      33.783   4.598  43.729  1.00  0.00     0.032 C 
HETATM    8  C8  UNL     1      33.515   3.496  45.990  1.00  0.00     0.044 C 
HETATM    9  C9  UNL     1      33.630   4.408  47.189  1.00  0.00     0.047 A 
HETATM   10  C10 UNL     1      34.448   5.198  47.756  1.00  0.00     0.063 A 
HETATM   11  N2  UNL     1      35.327   5.530  48.718  1.00  0.00    -0.249 NA
HETATM   12  C11 UNL     1      35.805   6.719  48.848  1.00  0.00     0.208 A 
HETATM   13  N3  UNL     1      35.285   7.664  47.926  1.00  0.00    -0.333 N 
HETATM   14  C12 UNL     1      32.471   4.768  48.197  1.00  0.00     0.049 C 
HETATM   15  C13 UNL     1      32.200   6.212  48.030  1.00  0.00     0.012 C 
HETATM   16  C14 UNL     1      32.005   7.554  47.816  1.00  0.00     0.097 C 
HETATM   17  H7  UNL     1      32.288   6.534  45.254  1.00  0.00     0.155 HD
HETATM   18  H15 UNL     1      35.632   8.633  48.038  1.00  0.00     0.168 HD
ENDROOT
BRANCH   1  19
HETATM   19  O1  UNL     1      32.784   9.740  47.575  1.00  0.00    -0.355 OA
BRANCH  19  20
HETATM   20  C2  UNL     1      33.466  10.721  46.884  1.00  0.00     0.167 C 
HETATM   21  C1  UNL     1      32.630  11.538  45.951  1.00  0.00     0.033 C 
ENDBRANCH  19  20
ENDBRANCH   1  19
BRANCH  16  22
HETATM   22  O3  UNL     1      31.159   8.438  48.419  1.00  0.00    -0.355 OA
HETATM   23  C15 UNL     1      29.816   8.213  48.747  1.00  0.00     0.209 C 
ENDBRANCH  16  22
TORSDOF 3
ENDMDL
MODEL 8
REMARK VINA RESULT:      -5.7      2.443      3.551
REMARK  3 active torsions:
REMARK  status: ('A' for Active; 'I' for Inactive)
REMARK    1  A    between atoms: C2_2  and  O1_3 
REMARK    2  A    between atoms: O1_3  and  C3_4 
REMARK    3  A    between atoms: C14_19  and  O3_20 
ROOT
HETATM    1  C3  UNL     1      22.603   0.939  52.101  1.00  0.00     0.325 C 
HETATM    2  O2  UNL     1      21.493   1.848  51.803  1.00  0.00    -0.299 OA
HETATM    3  C4  UNL     1      22.006   3.150  51.445  1.00  0.00     0.157 A 
HETATM    4  C5  UNL     1      22.322   3.152  50.202  1.00  0.00     0.147 A 
HETATM    5  N1  UNL     1      22.118   2.090  49.302  1.00  0.00    -0.397 N 
HETATM    6  C6  UNL     1      21.929   2.495  47.864  1.00  0.00     0.075 C 
HETATM    7  C7  UNL     1      20.464   2.567  47.623  1.00  0.00     0.032 C 
HETATM    8  C8  UNL     1      22.600   3.914  47.769  1.00  0.00     0.044 C 
HETATM    9  C9  UNL     1      23.215   4.033  49.144  1.00  0.00     0.047 A 
HETATM   10  C10 UNL     1      22.955   4.462  50.311  1.00  0.00     0.063 A 
HETATM   11  N2  UNL     1      23.066   5.347  51.318  1.00  0.00    -0.249 NA
HETATM   12  C11 UNL     1      22.586   5.130  52.494  1.00  0.00     0.208 A 
HETATM   13  N3  UNL     1      21.978   3.858  52.654  1.00  0.00    -0.333 N 
HETATM   14  C12 UNL     1      24.596   3.421  49.599  1.00  0.00     0.049 C 
HETATM   15  C13 UNL     1      24.287   2.392  50.615  1.00  0.00     0.012 C 
HETATM   16  C14 UNL     1      23.921   1.453  51.548  1.00  0.00     0.097 C 
HETATM   17  H7  UNL     1      22.060   1.103  49.523  1.00  0.00     0.155 HD
HETATM   18  H15 UNL     1      21.618   3.653  53.603  1.00  0.00     0.168 HD
ENDROOT
BRANCH   1  19
HETATM   19  O1  UNL     1      22.737   0.777  53.441  1.00  0.00    -0.355 OA
BRANCH  19  20
HETATM   20  C2  UNL     1      21.631   0.233  54.063  1.00  0.00     0.167 C 
HETATM   21  C1  UNL     1      21.821  -1.150  54.600  1.00  0.00     0.033 C 
ENDBRANCH  19  20
ENDBRANCH   1  19
BRANCH  16  22
HETATM   22  O3  UNL     1      24.679   0.623  52.322  1.00  0.00    -0.355 OA
HETATM   23  C15 UNL     1      26.060   0.413  52.210  1.00  0.00     0.209 C 
ENDBRANCH  16  22
TORSDOF 3
ENDMDL
MODEL 9
REMARK VINA RESULT:      -5.6      2.350      4.479
REMARK  3 active torsions:
REMARK  status: ('A' for Active; 'I' for Inactive)
REMARK    1  A    between atoms: C2_2  and  O1_3 
REMARK    2  A    between atoms: O1_3  and  C3_4 
REMARK    3  A    between atoms: C14_19  and  O3_20 
ROOT
HETATM    1  C3  UNL     1      23.464   3.728  51.357  1.00  0.00     0.325 C 
HETATM    2  O2  UNL     1      22.455   4.179  50.395  1.00  0.00    -0.299 OA
HETATM    3  C4  UNL     1      21.963   3.054  49.634  1.00  0.00     0.157 A 
HETATM    4  C5  UNL     1      21.041   2.465  50.301  1.00  0.00     0.147 A 
HETATM    5  N1  UNL     1      20.520   2.891  51.537  1.00  0.00    -0.397 N 
HETATM    6  C6  UNL     1      19.092   2.496  51.803  1.00  0.00     0.075 C 
HETATM    7  C7  UNL     1      18.241   3.648  51.402  1.00  0.00     0.032 C 
HETATM    8  C8  UNL     1      18.854   1.251  50.872  1.00  0.00     0.044 C 
HETATM    9  C9  UNL     1      20.247   1.028  50.331  1.00  0.00     0.047 A 
HETATM   10  C10 UNL     1      20.993   1.354  49.356  1.00  0.00     0.063 A 
HETATM   11  N2  UNL     1      21.620   1.115  48.190  1.00  0.00    -0.249 NA
HETATM   12  C11 UNL     1      22.483   1.925  47.682  1.00  0.00     0.208 A 
HETATM   13  N3  UNL     1      22.758   3.066  48.480  1.00  0.00    -0.333 N 
HETATM   14  C12 UNL     1      21.411   0.250  51.057  1.00  0.00     0.049 C 
HETATM   15  C13 UNL     1      22.464   1.246  51.350  1.00  0.00     0.012 C 
HETATM   16  C14 UNL     1      23.394   2.228  51.591  1.00  0.00     0.097 C 
HETATM   17  H7  UNL     1      20.992   3.450  52.240  1.00  0.00     0.155 HD
HETATM   18  H15 UNL     1      23.475   3.711  48.103  1.00  0.00     0.168 HD
ENDROOT
BRANCH   1  19
HETATM   19  O1  UNL     1      24.710   4.033  50.917  1.00  0.00    -0.355 OA
BRANCH  19  20
HETATM   20  C2  UNL     1      24.835   5.305  50.396  1.00  0.00     0.167 C 
HETATM   21  C1  UNL     1      25.896   5.463  49.354  1.00  0.00     0.033 C 
ENDBRANCH  19  20
ENDBRANCH   1  19
BRANCH  16  22
HETATM   22  O3  UNL     1      24.633   2.162  52.159  1.00  0.00    -0.355 OA
HETATM   23  C15 UNL     1      25.185   1.059  52.823  1.00  0.00     0.209 C 
ENDBRANCH  16  22
TORSDOF 3
ENDMDL
