MODEL 1
REMARK VINA RESULT:      -8.1      0.000      0.000
REMARK  8 active torsions:
REMARK  status: ('A' for Active; 'I' for Inactive)
REMARK    1  A    between atoms: C2_2  and  C3_3 
REMARK    2  A    between atoms: C3_3  and  C4_4 
REMARK    3  A    between atoms: C3_3  and  C19_25 
REMARK    4  A    between atoms: C4_4  and  C5_5 
REMARK    5  A    between atoms: C7_10  and  N3_11 
REMARK    6  A    between atoms: C8_13  and  N5_14 
REMARK    7  A    between atoms: N5_14  and  C9_15 
REMARK    8  A    between atoms: C14_20  and  C15_21 
ROOT
HETATM    1  C5  UNL     1      26.657   1.923  53.420  1.00  0.00     0.048 A 
HETATM    2  N1  UNL     1      27.649   2.823  53.870  1.00  0.00    -0.361 N 
HETATM    3  P1  UNL     1      29.105   1.783  54.222  1.00  0.00     0.026 P 
HETATM    4  C6  UNL     1      28.233   0.240  53.658  1.00  0.00     0.113 A 
HETATM    5  N2  UNL     1      28.787  -0.976  53.624  1.00  0.00    -0.060 NA
HETATM    6  C7  UNL     1      28.071  -2.034  53.215  1.00  0.00     0.722 A 
HETATM    7  N4  UNL     1      26.851  -1.726  52.881  1.00  0.00    -0.044 NA
HETATM    8  C8  UNL     1      26.198  -0.569  52.873  1.00  0.00     0.162 A 
HETATM    9  C18 UNL     1      26.941   0.514  53.294  1.00  0.00     0.069 A 
HETATM   10  H6  UNL     1      28.027   3.711  54.114  1.00  0.00     0.164 HD
HETATM   11  H7  UNL     1      29.224   1.733  55.689  1.00  0.00     0.086 HD
ENDROOT
BRANCH   8  12
HETATM   12  N5  UNL     1      24.807  -0.410  52.475  1.00  0.00    -0.339 N 
HETATM   13  H10 UNL     1      24.303  -0.229  51.556  1.00  0.00     0.167 HD
BRANCH  12  14
HETATM   14  C9  UNL     1      23.642  -0.503  53.281  1.00  0.00     0.040 A 
HETATM   15  C10 UNL     1      23.554  -1.164  54.486  1.00  0.00     0.030 A 
HETATM   16  C11 UNL     1      22.448  -1.264  55.301  1.00  0.00     0.002 A 
HETATM   17  C12 UNL     1      21.282  -0.650  54.901  1.00  0.00     0.001 A 
HETATM   18  C13 UNL     1      21.297   0.044  53.685  1.00  0.00     0.010 A 
HETATM   19  C14 UNL     1      22.462   0.092  52.933  1.00  0.00    -0.028 A 
BRANCH  19  20
HETATM   20  C15 UNL     1      22.242   0.978  51.771  1.00  0.00     0.013 C 
HETATM   21  C16 UNL     1      21.283   2.080  52.323  1.00  0.00     0.015 C 
HETATM   22  C17 UNL     1      21.498   0.318  50.645  1.00  0.00     0.015 C 
ENDBRANCH  19  20
ENDBRANCH  12  14
ENDBRANCH   8  12
BRANCH   6  23
HETATM   23  N3  UNL     1      28.380  -3.412  53.076  1.00  0.00    -0.231 N 
HETATM   24  H8  UNL     1      27.764  -3.926  53.729  1.00  0.00     0.174 HD
HETATM   25  H9  UNL     1      29.068  -3.902  52.471  1.00  0.00     0.174 HD
ENDBRANCH   6  23
BRANCH   1  26
HETATM   26  C4  UNL     1      25.540   2.527  53.123  1.00  0.00     0.038 C 
BRANCH  26  27
HETATM   27  C3  UNL     1      24.963   3.207  51.994  1.00  0.00    -0.046 C 
BRANCH  27  28
HETATM   28  C2  UNL     1      25.298   2.786  50.772  1.00  0.00    -0.023 C 
HETATM   29  C1  UNL     1      26.476   3.196  50.031  1.00  0.00     0.036 C 
ENDBRANCH  27  28
BRANCH  27  30
HETATM   30  C19 UNL     1      24.028   4.355  51.936  1.00  0.00     0.152 C 
HETATM   31 CL1  UNL     1      23.130   4.431  50.398  1.00  0.00    -0.126 Cl
ENDBRANCH  27  30
ENDBRANCH  26  27
ENDBRANCH   1  26
TORSDOF 8
ENDMDL
MODEL 2
REMARK VINA RESULT:      -7.8      3.104      5.958
REMARK  8 active torsions:
REMARK  status: ('A' for Active; 'I' for Inactive)
REMARK    1  A    between atoms: C2_2  and  C3_3 
REMARK    2  A    between atoms: C3_3  and  C4_4 
REMARK    3  A    between atoms: C3_3  and  C19_25 
REMARK    4  A    between atoms: C4_4  and  C5_5 
REMARK    5  A    between atoms: C7_10  and  N3_11 
REMARK    6  A    between atoms: C8_13  and  N5_14 
REMARK    7  A    between atoms: N5_14  and  C9_15 
REMARK    8  A    between atoms: C14_20  and  C15_21 
ROOT
HETATM    1  C5  UNL     1      23.806   3.406  51.842  1.00  0.00     0.048 A 
HETATM    2  N1  UNL     1      22.716   4.296  51.964  1.00  0.00    -0.361 N 
HETATM    3  P1  UNL     1      23.180   5.751  50.967  1.00  0.00     0.026 P 
HETATM    4  C6  UNL     1      24.782   4.968  50.435  1.00  0.00     0.113 A 
HETATM    5  N2  UNL     1      25.663   5.532  49.603  1.00  0.00    -0.060 NA
HETATM    6  C7  UNL     1      26.801   4.894  49.289  1.00  0.00     0.722 A 
HETATM    7  N4  UNL     1      26.911   3.734  49.869  1.00  0.00    -0.044 NA
HETATM    8  C8  UNL     1      26.112   3.079  50.703  1.00  0.00     0.162 A 
HETATM    9  C18 UNL     1      24.944   3.741  51.020  1.00  0.00     0.069 A 
HETATM   10  H6  UNL     1      21.824   4.602  52.283  1.00  0.00     0.164 HD
HETATM   11  H7  UNL     1      23.490   6.822  51.929  1.00  0.00     0.086 HD
ENDROOT
BRANCH   8  12
HETATM   12  N5  UNL     1      26.408   1.773  51.275  1.00  0.00    -0.339 N 
HETATM   13  H10 UNL     1      26.118   0.773  51.057  1.00  0.00     0.167 HD
BRANCH  12  14
HETATM   14  C9  UNL     1      27.276   1.457  52.352  1.00  0.00     0.040 A 
HETATM   15  C10 UNL     1      28.144   2.335  52.963  1.00  0.00     0.030 A 
HETATM   16  C11 UNL     1      28.990   2.069  54.017  1.00  0.00     0.002 A 
HETATM   17  C12 UNL     1      28.999   0.797  54.546  1.00  0.00     0.001 A 
HETATM   18  C13 UNL     1      28.140  -0.149  53.975  1.00  0.00     0.010 A 
HETATM   19  C14 UNL     1      27.320   0.212  52.916  1.00  0.00    -0.028 A 
BRANCH  19  20
HETATM   20  C15 UNL     1      26.438  -0.926  52.586  1.00  0.00     0.013 C 
HETATM   21  C16 UNL     1      25.424  -0.963  53.773  1.00  0.00     0.015 C 
HETATM   22  C17 UNL     1      27.139  -2.254  52.607  1.00  0.00     0.015 C 
ENDBRANCH  19  20
ENDBRANCH  12  14
ENDBRANCH   8  12
BRANCH   6  23
HETATM   23  N3  UNL     1      27.898   5.233  48.456  1.00  0.00    -0.231 N 
HETATM   24  H8  UNL     1      28.208   4.359  47.997  1.00  0.00     0.174 HD
HETATM   25  H9  UNL     1      28.366   6.143  48.277  1.00  0.00     0.174 HD
ENDBRANCH   6  23
BRANCH   1  26
HETATM   26  C4  UNL     1      23.619   2.301  52.510  1.00  0.00     0.038 C 
BRANCH  26  27
HETATM   27  C3  UNL     1      22.674   1.217  52.534  1.00  0.00    -0.046 C 
BRANCH  27  28
HETATM   28  C2  UNL     1      22.349   0.644  51.372  1.00  0.00    -0.023 C 
HETATM   29  C1  UNL     1      21.178   0.956  50.575  1.00  0.00     0.036 C 
ENDBRANCH  27  28
BRANCH  27  30
HETATM   30  C19 UNL     1      21.948   0.597  53.667  1.00  0.00     0.152 C 
HETATM   31 CL1  UNL     1      21.859  -1.178  53.536  1.00  0.00    -0.126 Cl
ENDBRANCH  27  30
ENDBRANCH  26  27
ENDBRANCH   1  26
TORSDOF 8
ENDMDL
MODEL 3
REMARK VINA RESULT:      -7.6      1.850      2.945
REMARK  8 active torsions:
REMARK  status: ('A' for Active; 'I' for Inactive)
REMARK    1  A    between atoms: C2_2  and  C3_3 
REMARK    2  A    between atoms: C3_3  and  C4_4 
REMARK    3  A    between atoms: C3_3  and  C19_25 
REMARK    4  A    between atoms: C4_4  and  C5_5 
REMARK    5  A    between atoms: C7_10  and  N3_11 
REMARK    6  A    between atoms: C8_13  and  N5_14 
REMARK    7  A    between atoms: N5_14  and  C9_15 
REMARK    8  A    between atoms: C14_20  and  C15_21 
ROOT
HETATM    1  C5  UNL     1      26.586   2.152  52.067  1.00  0.00     0.048 A 
HETATM    2  N1  UNL     1      27.885   2.679  52.240  1.00  0.00    -0.361 N 
HETATM    3  P1  UNL     1      28.494   1.938  53.791  1.00  0.00     0.026 P 
HETATM    4  C6  UNL     1      26.940   0.937  54.010  1.00  0.00     0.113 A 
HETATM    5  N2  UNL     1      26.723   0.082  55.013  1.00  0.00    -0.060 NA
HETATM    6  C7  UNL     1      25.561  -0.585  55.094  1.00  0.00     0.722 A 
HETATM    7  N4  UNL     1      24.740  -0.298  54.125  1.00  0.00    -0.044 NA
HETATM    8  C8  UNL     1      24.845   0.524  53.087  1.00  0.00     0.162 A 
HETATM    9  C18 UNL     1      26.042   1.205  53.010  1.00  0.00     0.069 A 
HETATM   10  H6  UNL     1      28.680   3.230  52.006  1.00  0.00     0.164 HD
HETATM   11  H7  UNL     1      28.486   3.021  54.789  1.00  0.00     0.086 HD
ENDROOT
BRANCH   8  12
HETATM   12  N5  UNL     1      23.803   0.734  52.093  1.00  0.00    -0.339 N 
HETATM   13  H10 UNL     1      23.589   0.334  51.131  1.00  0.00     0.167 HD
BRANCH  12  14
HETATM   14  C9  UNL     1      22.665   1.580  52.171  1.00  0.00     0.040 A 
HETATM   15  C10 UNL     1      22.595   2.870  51.693  1.00  0.00     0.030 A 
HETATM   16  C11 UNL     1      21.508   3.715  51.737  1.00  0.00     0.002 A 
HETATM   17  C12 UNL     1      20.345   3.256  52.317  1.00  0.00     0.001 A 
HETATM   18  C13 UNL     1      20.343   1.951  52.824  1.00  0.00     0.010 A 
HETATM   19  C14 UNL     1      21.487   1.172  52.730  1.00  0.00    -0.028 A 
BRANCH  19  20
HETATM   20  C15 UNL     1      21.181  -0.185  53.226  1.00  0.00     0.013 C 
HETATM   21  C16 UNL     1      19.641  -0.322  53.001  1.00  0.00     0.015 C 
HETATM   22  C17 UNL     1      21.392  -0.346  54.704  1.00  0.00     0.015 C 
ENDBRANCH  19  20
ENDBRANCH  12  14
ENDBRANCH   8  12
BRANCH   6  23
HETATM   23  N3  UNL     1      25.057  -1.534  56.021  1.00  0.00    -0.231 N 
HETATM   24  H8  UNL     1      24.041  -1.617  55.843  1.00  0.00     0.174 HD
HETATM   25  H9  UNL     1      25.530  -2.084  56.763  1.00  0.00     0.174 HD
ENDBRANCH   6  23
BRANCH   1  26
HETATM   26  C4  UNL     1      26.013   2.595  50.982  1.00  0.00     0.038 C 
BRANCH  26  27
HETATM   27  C3  UNL     1      26.031   3.788  50.179  1.00  0.00    -0.046 C 
BRANCH  27  28
HETATM   28  C2  UNL     1      26.940   3.872  49.203  1.00  0.00    -0.023 C 
HETATM   29  C1  UNL     1      27.485   5.103  48.661  1.00  0.00     0.036 C 
ENDBRANCH  27  28
BRANCH  27  30
HETATM   30  C19 UNL     1      25.193   5.008  50.247  1.00  0.00     0.152 C 
HETATM   31 CL1  UNL     1      23.911   5.029  49.010  1.00  0.00    -0.126 Cl
ENDBRANCH  27  30
ENDBRANCH  26  27
ENDBRANCH   1  26
TORSDOF 8
ENDMDL
MODEL 4
REMARK VINA RESULT:      -7.4      1.887      2.264
REMARK  8 active torsions:
REMARK  status: ('A' for Active; 'I' for Inactive)
REMARK    1  A    between atoms: C2_2  and  C3_3 
REMARK    2  A    between atoms: C3_3  and  C4_4 
REMARK    3  A    between atoms: C3_3  and  C19_25 
REMARK    4  A    between atoms: C4_4  and  C5_5 
REMARK    5  A    between atoms: C7_10  and  N3_11 
REMARK    6  A    between atoms: C8_13  and  N5_14 
REMARK    7  A    between atoms: N5_14  and  C9_15 
REMARK    8  A    between atoms: C14_20  and  C15_21 
ROOT
HETATM    1  C5  UNL     1      26.569   2.139  52.111  1.00  0.00     0.048 A 
HETATM    2  N1  UNL     1      27.847   2.717  52.274  1.00  0.00    -0.361 N 
HETATM    3  P1  UNL     1      28.472   2.048  53.851  1.00  0.00     0.026 P 
HETATM    4  C6  UNL     1      26.953   1.000  54.093  1.00  0.00     0.113 A 
HETATM    5  N2  UNL     1      26.760   0.170  55.122  1.00  0.00    -0.060 NA
HETATM    6  C7  UNL     1      25.622  -0.535  55.219  1.00  0.00     0.722 A 
HETATM    7  N4  UNL     1      24.798  -0.308  54.237  1.00  0.00    -0.044 NA
HETATM    8  C8  UNL     1      24.880   0.484  53.174  1.00  0.00     0.162 A 
HETATM    9  C18 UNL     1      26.053   1.204  53.082  1.00  0.00     0.069 A 
HETATM   10  H6  UNL     1      28.624   3.288  52.027  1.00  0.00     0.164 HD
HETATM   11  H7  UNL     1      28.420   3.160  54.814  1.00  0.00     0.086 HD
ENDROOT
BRANCH   8  12
HETATM   12  N5  UNL     1      23.837   0.625  52.169  1.00  0.00    -0.339 N 
HETATM   13  H10 UNL     1      23.816   0.878  51.136  1.00  0.00     0.167 HD
BRANCH  12  14
HETATM   14  C9  UNL     1      22.441   0.401  52.306  1.00  0.00     0.040 A 
HETATM   15  C10 UNL     1      21.832  -0.209  53.381  1.00  0.00     0.030 A 
HETATM   16  C11 UNL     1      20.484  -0.431  53.556  1.00  0.00     0.002 A 
HETATM   17  C12 UNL     1      19.617  -0.011  52.570  1.00  0.00     0.001 A 
HETATM   18  C13 UNL     1      20.167   0.620  51.448  1.00  0.00     0.010 A 
HETATM   19  C14 UNL     1      21.539   0.802  51.361  1.00  0.00    -0.028 A 
BRANCH  19  20
HETATM   20  C15 UNL     1      21.839   1.591  50.149  1.00  0.00     0.013 C 
HETATM   21  C16 UNL     1      21.041   2.916  50.364  1.00  0.00     0.015 C 
HETATM   22  C17 UNL     1      21.292   0.986  48.888  1.00  0.00     0.015 C 
ENDBRANCH  19  20
ENDBRANCH  12  14
ENDBRANCH   8  12
BRANCH   6  23
HETATM   23  N3  UNL     1      25.146  -1.471  56.173  1.00  0.00    -0.231 N 
HETATM   24  H8  UNL     1      25.814  -2.262  56.177  1.00  0.00     0.174 HD
HETATM   25  H9  UNL     1      24.310  -1.456  56.789  1.00  0.00     0.174 HD
ENDBRANCH   6  23
BRANCH   1  26
HETATM   26  C4  UNL     1      25.987   2.528  51.010  1.00  0.00     0.038 C 
BRANCH  26  27
HETATM   27  C3  UNL     1      25.377   3.722  50.491  1.00  0.00    -0.046 C 
BRANCH  27  28
HETATM   28  C2  UNL     1      25.823   4.198  49.326  1.00  0.00    -0.023 C 
HETATM   29  C1  UNL     1      27.211   4.470  49.000  1.00  0.00     0.036 C 
ENDBRANCH  27  28
BRANCH  27  30
HETATM   30  C19 UNL     1      24.299   4.574  51.048  1.00  0.00     0.152 C 
HETATM   31 CL1  UNL     1      23.736   4.011  52.642  1.00  0.00    -0.126 Cl
ENDBRANCH  27  30
ENDBRANCH  26  27
ENDBRANCH   1  26
TORSDOF 8
ENDMDL
MODEL 5
REMARK VINA RESULT:      -7.2      2.841      5.039
REMARK  8 active torsions:
REMARK  status: ('A' for Active; 'I' for Inactive)
REMARK    1  A    between atoms: C2_2  and  C3_3 
REMARK    2  A    between atoms: C3_3  and  C4_4 
REMARK    3  A    between atoms: C3_3  and  C19_25 
REMARK    4  A    between atoms: C4_4  and  C5_5 
REMARK    5  A    between atoms: C7_10  and  N3_11 
REMARK    6  A    between atoms: C8_13  and  N5_14 
REMARK    7  A    between atoms: N5_14  and  C9_15 
REMARK    8  A    between atoms: C14_20  and  C15_21 
ROOT
HETATM    1  C5  UNL     1      22.550  -0.463  53.287  1.00  0.00     0.048 A 
HETATM    2  N1  UNL     1      21.933  -1.374  54.173  1.00  0.00    -0.361 N 
HETATM    3  P1  UNL     1      23.232  -1.817  55.375  1.00  0.00     0.026 P 
HETATM    4  C6  UNL     1      24.461  -0.666  54.584  1.00  0.00     0.113 A 
HETATM    5  N2  UNL     1      25.707  -0.467  55.024  1.00  0.00    -0.060 NA
HETATM    6  C7  UNL     1      26.527   0.374  54.376  1.00  0.00     0.722 A 
HETATM    7  N4  UNL     1      25.972   0.927  53.336  1.00  0.00    -0.044 NA
HETATM    8  C8  UNL     1      24.759   0.808  52.809  1.00  0.00     0.162 A 
HETATM    9  C18 UNL     1      23.922  -0.058  53.481  1.00  0.00     0.069 A 
HETATM   10  H6  UNL     1      21.190  -1.928  54.534  1.00  0.00     0.164 HD
HETATM   11  H7  UNL     1      23.627  -3.199  55.055  1.00  0.00     0.086 HD
ENDROOT
BRANCH   8  12
HETATM   12  N5  UNL     1      24.307   1.503  51.612  1.00  0.00    -0.339 N 
HETATM   13  H10 UNL     1      24.302   1.284  50.572  1.00  0.00     0.167 HD
BRANCH  12  14
HETATM   14  C9  UNL     1      23.656   2.761  51.514  1.00  0.00     0.040 A 
HETATM   15  C10 UNL     1      23.617   3.720  52.503  1.00  0.00     0.030 A 
HETATM   16  C11 UNL     1      23.009   4.954  52.440  1.00  0.00     0.002 A 
HETATM   17  C12 UNL     1      22.358   5.306  51.277  1.00  0.00     0.001 A 
HETATM   18  C13 UNL     1      22.360   4.380  50.227  1.00  0.00     0.010 A 
HETATM   19  C14 UNL     1      23.002   3.160  50.383  1.00  0.00    -0.028 A 
BRANCH  19  20
HETATM   20  C15 UNL     1      22.956   2.431  49.099  1.00  0.00     0.013 C 
HETATM   21  C16 UNL     1      22.697   3.554  48.045  1.00  0.00     0.015 C 
HETATM   22  C17 UNL     1      21.793   1.489  48.985  1.00  0.00     0.015 C 
ENDBRANCH  19  20
ENDBRANCH  12  14
ENDBRANCH   8  12
BRANCH   6  23
HETATM   23  N3  UNL     1      27.869   0.777  54.601  1.00  0.00    -0.231 N 
HETATM   24  H8  UNL     1      28.046   0.679  55.616  1.00  0.00     0.174 HD
HETATM   25  H9  UNL     1      28.601   1.116  53.946  1.00  0.00     0.174 HD
ENDBRANCH   6  23
BRANCH   1  26
HETATM   26  C4  UNL     1      21.734  -0.048  52.358  1.00  0.00     0.038 C 
BRANCH  26  27
HETATM   27  C3  UNL     1      20.442   0.578  52.275  1.00  0.00    -0.046 C 
BRANCH  27  28
HETATM   28  C2  UNL     1      20.340   1.856  52.650  1.00  0.00    -0.023 C 
HETATM   29  C1  UNL     1      19.550   2.872  51.980  1.00  0.00     0.036 C 
ENDBRANCH  27  28
BRANCH  27  30
HETATM   30  C19 UNL     1      19.134   0.033  51.842  1.00  0.00     0.152 C 
HETATM   31 CL1  UNL     1      18.397  -1.034  53.065  1.00  0.00    -0.126 Cl
ENDBRANCH  27  30
ENDBRANCH  26  27
ENDBRANCH   1  26
TORSDOF 8
ENDMDL
MODEL 6
REMARK VINA RESULT:      -7.1      2.335      5.186
REMARK  8 active torsions:
REMARK  status: ('A' for Active; 'I' for Inactive)
REMARK    1  A    between atoms: C2_2  and  C3_3 
REMARK    2  A    between atoms: C3_3  and  C4_4 
REMARK    3  A    between atoms: C3_3  and  C19_25 
REMARK    4  A    between atoms: C4_4  and  C5_5 
REMARK    5  A    between atoms: C7_10  and  N3_11 
REMARK    6  A    between atoms: C8_13  and  N5_14 
REMARK    7  A    between atoms: N5_14  and  C9_15 
REMARK    8  A    between atoms: C14_20  and  C15_21 
ROOT
HETATM    1  C5  UNL     1      24.078   0.206  53.010  1.00  0.00     0.048 A 
HETATM    2  N1  UNL     1      23.645  -0.690  54.012  1.00  0.00    -0.361 N 
HETATM    3  P1  UNL     1      25.026  -0.777  55.199  1.00  0.00     0.026 P 
HETATM    4  C6  UNL     1      26.025   0.467  54.241  1.00  0.00     0.113 A 
HETATM    5  N2  UNL     1      27.230   0.916  54.605  1.00  0.00    -0.060 NA
HETATM    6  C7  UNL     1      27.881   1.804  53.839  1.00  0.00     0.722 A 
HETATM    7  N4  UNL     1      27.218   2.138  52.769  1.00  0.00    -0.044 NA
HETATM    8  C8  UNL     1      26.030   1.763  52.309  1.00  0.00     0.162 A 
HETATM    9  C18 UNL     1      25.366   0.851  53.103  1.00  0.00     0.069 A 
HETATM   10  H6  UNL     1      23.014  -1.316  54.459  1.00  0.00     0.164 HD
HETATM   11  H7  UNL     1      25.641  -2.101  55.012  1.00  0.00     0.086 HD
ENDROOT
BRANCH   8  12
HETATM   12  N5  UNL     1      25.441   2.236  51.065  1.00  0.00    -0.339 N 
HETATM   13  H10 UNL     1      24.719   1.857  50.382  1.00  0.00     0.167 HD
BRANCH  12  14
HETATM   14  C9  UNL     1      25.668   3.465  50.392  1.00  0.00     0.040 A 
HETATM   15  C10 UNL     1      26.730   3.735  49.557  1.00  0.00     0.030 A 
HETATM   16  C11 UNL     1      26.976   4.908  48.878  1.00  0.00     0.002 A 
HETATM   17  C12 UNL     1      26.085   5.949  49.022  1.00  0.00     0.001 A 
HETATM   18  C13 UNL     1      24.978   5.745  49.855  1.00  0.00     0.010 A 
HETATM   19  C14 UNL     1      24.812   4.526  50.497  1.00  0.00    -0.028 A 
BRANCH  19  20
HETATM   20  C15 UNL     1      23.518   4.535  51.208  1.00  0.00     0.013 C 
HETATM   21  C16 UNL     1      22.810   5.820  50.672  1.00  0.00     0.015 C 
HETATM   22  C17 UNL     1      23.648   4.730  52.691  1.00  0.00     0.015 C 
ENDBRANCH  19  20
ENDBRANCH  12  14
ENDBRANCH   8  12
BRANCH   6  23
HETATM   23  N3  UNL     1      29.141   2.445  53.964  1.00  0.00    -0.231 N 
HETATM   24  H8  UNL     1      28.953   3.433  54.208  1.00  0.00     0.174 HD
HETATM   25  H9  UNL     1      30.108   2.083  53.853  1.00  0.00     0.174 HD
ENDBRANCH   6  23
BRANCH   1  26
HETATM   26  C4  UNL     1      23.183   0.374  52.075  1.00  0.00     0.038 C 
BRANCH  26  27
HETATM   27  C3  UNL     1      22.032   1.203  51.839  1.00  0.00    -0.046 C 
BRANCH  27  28
HETATM   28  C2  UNL     1      21.827   1.651  50.598  1.00  0.00    -0.023 C 
HETATM   29  C1  UNL     1      21.333   0.861  49.486  1.00  0.00     0.036 C 
ENDBRANCH  27  28
BRANCH  27  30
HETATM   30  C19 UNL     1      20.987   1.687  52.771  1.00  0.00     0.152 C 
HETATM   31 CL1  UNL     1      20.279   3.241  52.261  1.00  0.00    -0.126 Cl
ENDBRANCH  27  30
ENDBRANCH  26  27
ENDBRANCH   1  26
TORSDOF 8
ENDMDL
MODEL 7
REMARK VINA RESULT:      -7.0      2.368      3.439
REMARK  8 active torsions:
REMARK  status: ('A' for Active; 'I' for Inactive)
REMARK    1  A    between atoms: C2_2  and  C3_3 
REMARK    2  A    between atoms: C3_3  and  C4_4 
REMARK    3  A    between atoms: C3_3  and  C19_25 
REMARK    4  A    between atoms: C4_4  and  C5_5 
REMARK    5  A    between atoms: C7_10  and  N3_11 
REMARK    6  A    between atoms: C8_13  and  N5_14 
REMARK    7  A    between atoms: N5_14  and  C9_15 
REMARK    8  A    between atoms: C14_20  and  C15_21 
ROOT
HETATM    1  C5  UNL     1      26.525   2.346  51.825  1.00  0.00     0.048 A 
HETATM    2  N1  UNL     1      27.822   2.837  52.091  1.00  0.00    -0.361 N 
HETATM    3  P1  UNL     1      28.327   2.021  53.643  1.00  0.00     0.026 P 
HETATM    4  C6  UNL     1      26.744   1.047  53.733  1.00  0.00     0.113 A 
HETATM    5  N2  UNL     1      26.454   0.158  54.686  1.00  0.00    -0.060 NA
HETATM    6  C7  UNL     1      25.276  -0.486  54.675  1.00  0.00     0.722 A 
HETATM    7  N4  UNL     1      24.517  -0.143  53.674  1.00  0.00    -0.044 NA
HETATM    8  C8  UNL     1      24.697   0.717  52.678  1.00  0.00     0.162 A 
HETATM    9  C18 UNL     1      25.910   1.374  52.697  1.00  0.00     0.069 A 
HETATM   10  H6  UNL     1      28.640   3.379  51.925  1.00  0.00     0.164 HD
HETATM   11  H7  UNL     1      28.284   3.063  54.682  1.00  0.00     0.086 HD
ENDROOT
BRANCH   8  12
HETATM   12  N5  UNL     1      23.717   0.990  51.637  1.00  0.00    -0.339 N 
HETATM   13  H10 UNL     1      23.439   0.522  50.724  1.00  0.00     0.167 HD
BRANCH  12  14
HETATM   14  C9  UNL     1      22.752   2.030  51.583  1.00  0.00     0.040 A 
HETATM   15  C10 UNL     1      22.269   2.730  52.667  1.00  0.00     0.030 A 
HETATM   16  C11 UNL     1      21.347   3.753  52.652  1.00  0.00     0.002 A 
HETATM   17  C12 UNL     1      20.825   4.148  51.440  1.00  0.00     0.001 A 
HETATM   18  C13 UNL     1      21.273   3.481  50.292  1.00  0.00     0.010 A 
HETATM   19  C14 UNL     1      22.209   2.464  50.406  1.00  0.00    -0.028 A 
BRANCH  19  20
HETATM   20  C15 UNL     1      22.593   2.017  49.052  1.00  0.00     0.013 C 
HETATM   21  C16 UNL     1      22.597   3.336  48.215  1.00  0.00     0.015 C 
HETATM   22  C17 UNL     1      21.575   1.124  48.402  1.00  0.00     0.015 C 
ENDBRANCH  19  20
ENDBRANCH  12  14
ENDBRANCH   8  12
BRANCH   6  23
HETATM   23  N3  UNL     1      24.701  -1.460  55.533  1.00  0.00    -0.231 N 
HETATM   24  H8  UNL     1      24.230  -0.946  56.297  1.00  0.00     0.174 HD
HETATM   25  H9  UNL     1      24.701  -2.497  55.487  1.00  0.00     0.174 HD
ENDBRANCH   6  23
BRANCH   1  26
HETATM   26  C4  UNL     1      26.023   2.845  50.729  1.00  0.00     0.038 C 
BRANCH  26  27
HETATM   27  C3  UNL     1      25.635   4.135  50.225  1.00  0.00    -0.046 C 
BRANCH  27  28
HETATM   28  C2  UNL     1      24.742   4.838  50.927  1.00  0.00    -0.023 C 
HETATM   29  C1  UNL     1      24.125   6.081  50.503  1.00  0.00     0.036 C 
ENDBRANCH  27  28
BRANCH  27  30
HETATM   30  C19 UNL     1      26.056   4.857  49.002  1.00  0.00     0.152 C 
HETATM   31 CL1  UNL     1      27.801   4.697  48.677  1.00  0.00    -0.126 Cl
ENDBRANCH  27  30
ENDBRANCH  26  27
ENDBRANCH   1  26
TORSDOF 8
ENDMDL
MODEL 8
REMARK VINA RESULT:      -6.8      3.338      5.707
REMARK  8 active torsions:
REMARK  status: ('A' for Active; 'I' for Inactive)
REMARK    1  A    between atoms: C2_2  and  C3_3 
REMARK    2  A    between atoms: C3_3  and  C4_4 
REMARK    3  A    between atoms: C3_3  and  C19_25 
REMARK    4  A    between atoms: C4_4  and  C5_5 
REMARK    5  A    between atoms: C7_10  and  N3_11 
REMARK    6  A    between atoms: C8_13  and  N5_14 
REMARK    7  A    between atoms: N5_14  and  C9_15 
REMARK    8  A    between atoms: C14_20  and  C15_21 
ROOT
HETATM    1  C5  UNL     1      25.304   2.798  50.881  1.00  0.00     0.048 A 
HETATM    2  N1  UNL     1      26.469   2.983  50.103  1.00  0.00    -0.361 N 
HETATM    3  P1  UNL     1      26.326   4.673  49.432  1.00  0.00     0.026 P 
HETATM    4  C6  UNL     1      24.727   4.976  50.335  1.00  0.00     0.113 A 
HETATM    5  N2  UNL     1      24.043   6.124  50.302  1.00  0.00    -0.060 NA
HETATM    6  C7  UNL     1      22.889   6.242  50.976  1.00  0.00     0.722 A 
HETATM    7  N4  UNL     1      22.559   5.158  51.616  1.00  0.00    -0.044 NA
HETATM    8  C8  UNL     1      23.151   3.974  51.721  1.00  0.00     0.162 A 
HETATM    9  C18 UNL     1      24.338   3.860  51.027  1.00  0.00     0.069 A 
HETATM   10  H6  UNL     1      27.339   2.725  49.696  1.00  0.00     0.164 HD
HETATM   11  H7  UNL     1      26.022   4.518  48.000  1.00  0.00     0.086 HD
ENDROOT
BRANCH   8  12
HETATM   12  N5  UNL     1      22.623   2.851  52.482  1.00  0.00    -0.339 N 
HETATM   13  H10 UNL     1      22.845   2.409  53.424  1.00  0.00     0.167 HD
BRANCH  12  14
HETATM   14  C9  UNL     1      21.539   1.994  52.155  1.00  0.00     0.040 A 
HETATM   15  C10 UNL     1      20.617   2.218  51.156  1.00  0.00     0.030 A 
HETATM   16  C11 UNL     1      19.563   1.405  50.801  1.00  0.00     0.002 A 
HETATM   17  C12 UNL     1      19.378   0.230  51.496  1.00  0.00     0.001 A 
HETATM   18  C13 UNL     1      20.281  -0.065  52.525  1.00  0.00     0.010 A 
HETATM   19  C14 UNL     1      21.315   0.815  52.809  1.00  0.00    -0.028 A 
BRANCH  19  20
HETATM   20  C15 UNL     1      22.180   0.215  53.845  1.00  0.00     0.013 C 
HETATM   21  C16 UNL     1      22.915  -0.938  53.088  1.00  0.00     0.015 C 
HETATM   22  C17 UNL     1      21.417  -0.449  54.955  1.00  0.00     0.015 C 
ENDBRANCH  19  20
ENDBRANCH  12  14
ENDBRANCH   8  12
BRANCH   6  23
HETATM   23  N3  UNL     1      21.965   7.309  51.125  1.00  0.00    -0.231 N 
HETATM   24  H8  UNL     1      21.018   6.894  51.081  1.00  0.00     0.174 HD
HETATM   25  H9  UNL     1      22.112   8.328  51.256  1.00  0.00     0.174 HD
ENDBRANCH   6  23
BRANCH   1  26
HETATM   26  C4  UNL     1      25.262   1.618  51.435  1.00  0.00     0.038 C 
BRANCH  26  27
HETATM   27  C3  UNL     1      26.011   0.869  52.407  1.00  0.00    -0.046 C 
BRANCH  27  28
HETATM   28  C2  UNL     1      26.721  -0.179  51.980  1.00  0.00    -0.023 C 
HETATM   29  C1  UNL     1      26.578  -1.543  52.452  1.00  0.00     0.036 C 
ENDBRANCH  27  28
BRANCH  27  30
HETATM   30  C19 UNL     1      26.136   1.049  53.873  1.00  0.00     0.152 C 
HETATM   31 CL1  UNL     1      27.825   0.949  54.434  1.00  0.00    -0.126 Cl
ENDBRANCH  27  30
ENDBRANCH  26  27
ENDBRANCH   1  26
TORSDOF 8
ENDMDL
MODEL 9
REMARK VINA RESULT:      -6.7      2.843      6.053
REMARK  8 active torsions:
REMARK  status: ('A' for Active; 'I' for Inactive)
REMARK    1  A    between atoms: C2_2  and  C3_3 
REMARK    2  A    between atoms: C3_3  and  C4_4 
REMARK    3  A    between atoms: C3_3  and  C19_25 
REMARK    4  A    between atoms: C4_4  and  C5_5 
REMARK    5  A    between atoms: C7_10  and  N3_11 
REMARK    6  A    between atoms: C8_13  and  N5_14 
REMARK    7  A    between atoms: N5_14  and  C9_15 
REMARK    8  A    between atoms: C14_20  and  C15_21 
ROOT
HETATM    1  C5  UNL     1      23.093   1.072  51.511  1.00  0.00     0.048 A 
HETATM    2  N1  UNL     1      22.340   0.186  52.313  1.00  0.00    -0.361 N 
HETATM    3  P1  UNL     1      23.408  -0.179  53.746  1.00  0.00     0.026 P 
HETATM    4  C6  UNL     1      24.743   0.965  53.136  1.00  0.00     0.113 A 
HETATM    5  N2  UNL     1      25.888   1.208  53.781  1.00  0.00    -0.060 NA
HETATM    6  C7  UNL     1      26.799   2.039  53.252  1.00  0.00     0.722 A 
HETATM    7  N4  UNL     1      26.432   2.535  52.106  1.00  0.00    -0.044 NA
HETATM    8  C8  UNL     1      25.334   2.368  51.377  1.00  0.00     0.162 A 
HETATM    9  C18 UNL     1      24.402   1.513  51.928  1.00  0.00     0.069 A 
HETATM   10  H6  UNL     1      21.551  -0.369  52.560  1.00  0.00     0.164 HD
HETATM   11  H7  UNL     1      23.872  -1.564  53.565  1.00  0.00     0.086 HD
ENDROOT
BRANCH   8  12
HETATM   12  N5  UNL     1      25.096   3.002  50.089  1.00  0.00    -0.339 N 
HETATM   13  H10 UNL     1      24.405   2.854  49.294  1.00  0.00     0.167 HD
BRANCH  12  14
HETATM   14  C9  UNL     1      25.761   4.118  49.517  1.00  0.00     0.040 A 
HETATM   15  C10 UNL     1      27.094   4.164  49.173  1.00  0.00     0.030 A 
HETATM   16  C11 UNL     1      27.770   5.221  48.605  1.00  0.00     0.002 A 
HETATM   17  C12 UNL     1      27.071   6.378  48.336  1.00  0.00     0.001 A 
HETATM   18  C13 UNL     1      25.708   6.402  48.657  1.00  0.00     0.010 A 
HETATM   19  C14 UNL     1      25.113   5.286  49.225  1.00  0.00    -0.028 A 
BRANCH  19  20
HETATM   20  C15 UNL     1      23.662   5.532  49.351  1.00  0.00     0.013 C 
HETATM   21  C16 UNL     1      23.329   6.421  48.110  1.00  0.00     0.015 C 
HETATM   22  C17 UNL     1      23.295   6.356  50.552  1.00  0.00     0.015 C 
ENDBRANCH  19  20
ENDBRANCH  12  14
ENDBRANCH   8  12
BRANCH   6  23
HETATM   23  N3  UNL     1      28.074   2.479  53.694  1.00  0.00    -0.231 N 
HETATM   24  H8  UNL     1      28.668   2.572  52.852  1.00  0.00     0.174 HD
HETATM   25  H9  UNL     1      28.433   2.691  54.645  1.00  0.00     0.174 HD
ENDBRANCH   6  23
BRANCH   1  26
HETATM   26  C4  UNL     1      22.451   1.429  50.433  1.00  0.00     0.038 C 
BRANCH  26  27
HETATM   27  C3  UNL     1      21.594   2.503  50.010  1.00  0.00    -0.046 C 
BRANCH  27  28
HETATM   28  C2  UNL     1      21.135   3.343  50.942  1.00  0.00    -0.023 C 
HETATM   29  C1  UNL     1      19.818   3.294  51.547  1.00  0.00     0.036 C 
ENDBRANCH  27  28
BRANCH  27  30
HETATM   30  C19 UNL     1      21.089   2.858  48.662  1.00  0.00     0.152 C 
HETATM   31 CL1  UNL     1      22.344   2.732  47.404  1.00  0.00    -0.126 Cl
ENDBRANCH  27  30
ENDBRANCH  26  27
ENDBRANCH   1  26
TORSDOF 8
ENDMDL
