MODEL 1
REMARK VINA RESULT:      -7.4      0.000      0.000
REMARK  8 active torsions:
REMARK  status: ('A' for Active; 'I' for Inactive)
REMARK    1  A    between atoms: C2_2  and  C3_3 
REMARK    2  A    between atoms: C3_3  and  C4_4 
REMARK    3  A    between atoms: C5_5  and  C6_6 
REMARK    4  A    between atoms: C6_6  and  O1_7 
REMARK    5  A    between atoms: C9_10  and  C10_11 
REMARK    6  A    between atoms: C13_14  and  N1_15 
REMARK       I    between atoms: N1_15  and  C14_16 
REMARK    7  A    between atoms: C14_16  and  O3_18 
REMARK    8  A    between atoms: O3_18  and  C15_19 
ROOT
HETATM    1  C4  UNL     1      24.136   0.554  52.789  1.00  0.00     0.044 C 
HETATM    2  C5  UNL     1      25.448   0.570  52.929  1.00  0.00    -0.010 C 
HETATM    3  C7  UNL     1      26.459   1.151  52.013  1.00  0.00     0.013 C 
HETATM    4  C8  UNL     1      26.507   2.087  51.044  1.00  0.00     0.033 C 
HETATM    5  C9  UNL     1      25.518   2.977  50.457  1.00  0.00     0.068 C 
HETATM    6  N2  UNL     1      24.220   2.882  50.411  1.00  0.00    -0.241 NA
HETATM    7  C19 UNL     1      23.236   1.946  50.870  1.00  0.00     0.234 C 
HETATM    8  N3  UNL     1      23.213   1.030  51.810  1.00  0.00    -0.246 NA
ENDROOT
BRANCH   5   9
HETATM    9  C10 UNL     1      25.960   4.190  49.798  1.00  0.00    -0.007 A 
HETATM   10  C11 UNL     1      27.179   4.183  49.189  1.00  0.00     0.016 A 
HETATM   11  C12 UNL     1      27.687   5.283  48.530  1.00  0.00     0.030 A 
HETATM   12  C13 UNL     1      26.986   6.464  48.451  1.00  0.00     0.036 A 
HETATM   13  C17 UNL     1      25.758   6.498  49.055  1.00  0.00     0.030 A 
HETATM   14  C18 UNL     1      25.281   5.380  49.702  1.00  0.00     0.016 A 
BRANCH  12  15
HETATM   15  N1  UNL     1      27.526   7.586  47.770  1.00  0.00    -0.303 N 
HETATM   16  C14 UNL     1      28.019   8.766  48.407  1.00  0.00     0.365 C 
HETATM   17  O2  UNL     1      27.978   8.832  49.675  1.00  0.00    -0.238 OA
HETATM   18  H13 UNL     1      27.559   7.530  46.730  1.00  0.00     0.171 HD
BRANCH  16  19
HETATM   19  O3  UNL     1      28.524   9.800  47.648  1.00  0.00    -0.304 OA
BRANCH  19  20
HETATM   20  C15 UNL     1      29.021  10.962  48.262  1.00  0.00     0.176 C 
HETATM   21  C16 UNL     1      30.526  10.915  48.427  1.00  0.00     0.034 C 
ENDBRANCH  19  20
ENDBRANCH  16  19
ENDBRANCH  12  15
ENDBRANCH   5   9
BRANCH   2  22
HETATM   22  C6  UNL     1      26.210   0.004  54.036  1.00  0.00     0.205 C 
BRANCH  22  23
HETATM   23  O1  UNL     1      26.639   1.125  54.805  1.00  0.00    -0.396 OA
HETATM   24  H8  UNL     1      26.236   0.939  55.712  1.00  0.00     0.209 HD
ENDBRANCH  22  23
ENDBRANCH   2  22
BRANCH   1  25
HETATM   25  C3  UNL     1      23.342  -0.092  53.844  1.00  0.00     0.065 C 
BRANCH  25  26
HETATM   26  C2  UNL     1      22.286  -0.993  53.270  1.00  0.00    -0.004 C 
HETATM   27  C1  UNL     1      21.479  -1.562  54.193  1.00  0.00     0.006 C 
ENDBRANCH  25  26
ENDBRANCH   1  25
TORSDOF 8
ENDMDL
MODEL 2
REMARK VINA RESULT:      -7.3      6.785      8.888
REMARK  8 active torsions:
REMARK  status: ('A' for Active; 'I' for Inactive)
REMARK    1  A    between atoms: C2_2  and  C3_3 
REMARK    2  A    between atoms: C3_3  and  C4_4 
REMARK    3  A    between atoms: C5_5  and  C6_6 
REMARK    4  A    between atoms: C6_6  and  O1_7 
REMARK    5  A    between atoms: C9_10  and  C10_11 
REMARK    6  A    between atoms: C13_14  and  N1_15 
REMARK       I    between atoms: N1_15  and  C14_16 
REMARK    7  A    between atoms: C14_16  and  O3_18 
REMARK    8  A    between atoms: O3_18  and  C15_19 
ROOT
HETATM    1  C4  UNL     1      17.122  -0.304  51.547  1.00  0.00     0.044 C 
HETATM    2  C5  UNL     1      17.744   0.695  50.950  1.00  0.00    -0.010 C 
HETATM    3  C7  UNL     1      18.980   1.394  51.382  1.00  0.00     0.013 C 
HETATM    4  C8  UNL     1      20.046   1.140  52.166  1.00  0.00     0.033 C 
HETATM    5  C9  UNL     1      20.455  -0.002  52.967  1.00  0.00     0.068 C 
HETATM    6  N2  UNL     1      19.749  -0.969  53.481  1.00  0.00    -0.241 NA
HETATM    7  C19 UNL     1      18.364  -1.337  53.503  1.00  0.00     0.234 C 
HETATM    8  N3  UNL     1      17.335  -1.068  52.733  1.00  0.00    -0.246 NA
ENDROOT
BRANCH   5   9
HETATM    9  C10 UNL     1      21.857  -0.171  53.295  1.00  0.00    -0.007 A 
HETATM   10  C11 UNL     1      22.175  -0.804  54.460  1.00  0.00     0.016 A 
HETATM   11  C12 UNL     1      23.477  -1.019  54.858  1.00  0.00     0.030 A 
HETATM   12  C13 UNL     1      24.543  -0.601  54.095  1.00  0.00     0.036 A 
HETATM   13  C17 UNL     1      24.252   0.037  52.919  1.00  0.00     0.030 A 
HETATM   14  C18 UNL     1      22.940   0.233  52.552  1.00  0.00     0.016 A 
BRANCH  12  15
HETATM   15  N1  UNL     1      25.877  -0.831  54.522  1.00  0.00    -0.303 N 
HETATM   16  C14 UNL     1      26.817   0.196  54.844  1.00  0.00     0.365 C 
HETATM   17  O2  UNL     1      26.449   1.407  54.745  1.00  0.00    -0.238 OA
HETATM   18  H13 UNL     1      26.178  -1.825  54.603  1.00  0.00     0.171 HD
BRANCH  16  19
HETATM   19  O3  UNL     1      28.092  -0.139  55.250  1.00  0.00    -0.304 OA
BRANCH  19  20
HETATM   20  C15 UNL     1      29.170  -0.075  54.351  1.00  0.00     0.176 C 
HETATM   21  C16 UNL     1      29.196  -1.266  53.416  1.00  0.00     0.034 C 
ENDBRANCH  19  20
ENDBRANCH  16  19
ENDBRANCH  12  15
ENDBRANCH   5   9
BRANCH   2  22
HETATM   22  C6  UNL     1      17.342   1.352  49.712  1.00  0.00     0.205 C 
BRANCH  22  23
HETATM   23  O1  UNL     1      18.552   1.543  48.982  1.00  0.00    -0.396 OA
HETATM   24  H8  UNL     1      18.786   0.605  48.691  1.00  0.00     0.209 HD
ENDBRANCH  22  23
ENDBRANCH   2  22
BRANCH   1  25
HETATM   25  C3  UNL     1      15.901  -0.826  50.917  1.00  0.00     0.065 C 
BRANCH  25  26
HETATM   26  C2  UNL     1      15.237  -1.865  51.772  1.00  0.00    -0.004 C 
HETATM   27  C1  UNL     1      14.635  -2.856  51.077  1.00  0.00     0.006 C 
ENDBRANCH  25  26
ENDBRANCH   1  25
TORSDOF 8
ENDMDL
MODEL 3
REMARK VINA RESULT:      -7.0      5.357      8.457
REMARK  8 active torsions:
REMARK  status: ('A' for Active; 'I' for Inactive)
REMARK    1  A    between atoms: C2_2  and  C3_3 
REMARK    2  A    between atoms: C3_3  and  C4_4 
REMARK    3  A    between atoms: C5_5  and  C6_6 
REMARK    4  A    between atoms: C6_6  and  O1_7 
REMARK    5  A    between atoms: C9_10  and  C10_11 
REMARK    6  A    between atoms: C13_14  and  N1_15 
REMARK       I    between atoms: N1_15  and  C14_16 
REMARK    7  A    between atoms: C14_16  and  O3_18 
REMARK    8  A    between atoms: O3_18  and  C15_19 
ROOT
HETATM    1  C4  UNL     1      27.326   0.066  53.695  1.00  0.00     0.044 C 
HETATM    2  C5  UNL     1      27.267   1.176  52.985  1.00  0.00    -0.010 C 
HETATM    3  C7  UNL     1      26.205   1.603  52.041  1.00  0.00     0.013 C 
HETATM    4  C8  UNL     1      24.901   1.340  51.820  1.00  0.00     0.033 C 
HETATM    5  C9  UNL     1      23.930   0.467  52.461  1.00  0.00     0.068 C 
HETATM    6  N2  UNL     1      24.104  -0.600  53.187  1.00  0.00    -0.241 NA
HETATM    7  C19 UNL     1      25.227  -1.357  53.657  1.00  0.00     0.234 C 
HETATM    8  N3  UNL     1      26.496  -1.084  53.854  1.00  0.00    -0.246 NA
ENDROOT
BRANCH   5   9
HETATM    9  C10 UNL     1      22.517   0.759  52.323  1.00  0.00    -0.007 A 
HETATM   10  C11 UNL     1      22.025   0.980  51.071  1.00  0.00     0.016 A 
HETATM   11  C12 UNL     1      20.696   1.259  50.833  1.00  0.00     0.030 A 
HETATM   12  C13 UNL     1      19.780   1.334  51.857  1.00  0.00     0.036 A 
HETATM   13  C17 UNL     1      20.248   1.117  53.125  1.00  0.00     0.030 A 
HETATM   14  C18 UNL     1      21.581   0.839  53.325  1.00  0.00     0.016 A 
BRANCH  12  15
HETATM   15  N1  UNL     1      18.416   1.624  51.593  1.00  0.00    -0.303 N 
HETATM   16  C14 UNL     1      17.845   2.933  51.604  1.00  0.00     0.365 C 
HETATM   17  O2  UNL     1      18.598   3.921  51.869  1.00  0.00    -0.238 OA
HETATM   18  H13 UNL     1      17.799   0.813  51.375  1.00  0.00     0.171 HD
BRANCH  16  19
HETATM   19  O3  UNL     1      16.504   3.103  51.332  1.00  0.00    -0.304 OA
BRANCH  19  20
HETATM   20  C15 UNL     1      15.531   2.772  52.291  1.00  0.00     0.176 C 
HETATM   21  C16 UNL     1      15.026   3.994  53.029  1.00  0.00     0.034 C 
ENDBRANCH  19  20
ENDBRANCH  16  19
ENDBRANCH  12  15
ENDBRANCH   5   9
BRANCH   2  22
HETATM   22  C6  UNL     1      28.254   2.249  52.966  1.00  0.00     0.205 C 
BRANCH  22  23
HETATM   23  O1  UNL     1      28.032   2.981  54.168  1.00  0.00    -0.396 OA
HETATM   24  H8  UNL     1      28.564   3.826  54.016  1.00  0.00     0.209 HD
ENDBRANCH  22  23
ENDBRANCH   2  22
BRANCH   1  25
HETATM   25  C3  UNL     1      28.496  -0.131  54.563  1.00  0.00     0.065 C 
BRANCH  25  26
HETATM   26  C2  UNL     1      29.686  -0.617  53.789  1.00  0.00    -0.004 C 
HETATM   27  C1  UNL     1      29.602  -1.906  53.391  1.00  0.00     0.006 C 
ENDBRANCH  25  26
ENDBRANCH   1  25
TORSDOF 8
ENDMDL
MODEL 4
REMARK VINA RESULT:      -7.0      5.481     10.827
REMARK  8 active torsions:
REMARK  status: ('A' for Active; 'I' for Inactive)
REMARK    1  A    between atoms: C2_2  and  C3_3 
REMARK    2  A    between atoms: C3_3  and  C4_4 
REMARK    3  A    between atoms: C5_5  and  C6_6 
REMARK    4  A    between atoms: C6_6  and  O1_7 
REMARK    5  A    between atoms: C9_10  and  C10_11 
REMARK    6  A    between atoms: C13_14  and  N1_15 
REMARK       I    between atoms: N1_15  and  C14_16 
REMARK    7  A    between atoms: C14_16  and  O3_18 
REMARK    8  A    between atoms: O3_18  and  C15_19 
ROOT
HETATM    1  C4  UNL     1      25.119   0.803  52.364  1.00  0.00     0.044 C 
HETATM    2  C5  UNL     1      24.942  -0.113  53.297  1.00  0.00    -0.010 C 
HETATM    3  C7  UNL     1      23.695  -0.445  54.029  1.00  0.00     0.013 C 
HETATM    4  C8  UNL     1      22.366  -0.308  53.849  1.00  0.00     0.033 C 
HETATM    5  C9  UNL     1      21.550   0.262  52.789  1.00  0.00     0.068 C 
HETATM    6  N2  UNL     1      21.843   1.148  51.881  1.00  0.00    -0.241 NA
HETATM    7  C19 UNL     1      23.000   1.915  51.523  1.00  0.00     0.234 C 
HETATM    8  N3  UNL     1      24.290   1.769  51.720  1.00  0.00    -0.246 NA
ENDROOT
BRANCH   5   9
HETATM    9  C10 UNL     1      20.173  -0.170  52.647  1.00  0.00    -0.007 A 
HETATM   10  C11 UNL     1      19.475   0.253  51.556  1.00  0.00     0.016 A 
HETATM   11  C12 UNL     1      18.164  -0.107  51.326  1.00  0.00     0.030 A 
HETATM   12  C13 UNL     1      17.476  -0.922  52.196  1.00  0.00     0.036 A 
HETATM   13  C17 UNL     1      18.155  -1.361  53.301  1.00  0.00     0.030 A 
HETATM   14  C18 UNL     1      19.464  -0.983  53.498  1.00  0.00     0.016 A 
BRANCH  12  15
HETATM   15  N1  UNL     1      16.126  -1.281  51.944  1.00  0.00    -0.303 N 
HETATM   16  C14 UNL     1      14.990  -0.580  52.449  1.00  0.00     0.365 C 
HETATM   17  O2  UNL     1      15.182   0.441  53.180  1.00  0.00    -0.238 OA
HETATM   18  H13 UNL     1      15.970  -2.118  51.344  1.00  0.00     0.171 HD
BRANCH  16  19
HETATM   19  O3  UNL     1      13.718  -1.015  52.141  1.00  0.00    -0.304 OA
BRANCH  19  20
HETATM   20  C15 UNL     1      13.158  -2.119  52.807  1.00  0.00     0.176 C 
HETATM   21  C16 UNL     1      11.978  -1.719  53.669  1.00  0.00     0.034 C 
ENDBRANCH  19  20
ENDBRANCH  16  19
ENDBRANCH  12  15
ENDBRANCH   5   9
BRANCH   2  22
HETATM   22  C6  UNL     1      25.955  -1.017  53.830  1.00  0.00     0.205 C 
BRANCH  22  23
HETATM   23  O1  UNL     1      26.327  -0.459  55.088  1.00  0.00    -0.396 OA
HETATM   24  H8  UNL     1      26.547  -1.276  55.638  1.00  0.00     0.209 HD
ENDBRANCH  22  23
ENDBRANCH   2  22
BRANCH   1  25
HETATM   25  C3  UNL     1      26.464   0.944  51.788  1.00  0.00     0.065 C 
BRANCH  25  26
HETATM   26  C2  UNL     1      27.122   2.222  52.221  1.00  0.00    -0.004 C 
HETATM   27  C1  UNL     1      28.060   2.067  53.182  1.00  0.00     0.006 C 
ENDBRANCH  25  26
ENDBRANCH   1  25
TORSDOF 8
ENDMDL
MODEL 5
REMARK VINA RESULT:      -7.0      2.301      9.283
REMARK  8 active torsions:
REMARK  status: ('A' for Active; 'I' for Inactive)
REMARK    1  A    between atoms: C2_2  and  C3_3 
REMARK    2  A    between atoms: C3_3  and  C4_4 
REMARK    3  A    between atoms: C5_5  and  C6_6 
REMARK    4  A    between atoms: C6_6  and  O1_7 
REMARK    5  A    between atoms: C9_10  and  C10_11 
REMARK    6  A    between atoms: C13_14  and  N1_15 
REMARK       I    between atoms: N1_15  and  C14_16 
REMARK    7  A    between atoms: C14_16  and  O3_18 
REMARK    8  A    between atoms: O3_18  and  C15_19 
ROOT
HETATM    1  C4  UNL     1      29.042   7.813  48.740  1.00  0.00     0.044 C 
HETATM    2  C5  UNL     1      27.945   8.423  49.146  1.00  0.00    -0.010 C 
HETATM    3  C7  UNL     1      26.557   7.897  49.163  1.00  0.00     0.013 C 
HETATM    4  C8  UNL     1      25.946   6.696  49.173  1.00  0.00     0.033 C 
HETATM    5  C9  UNL     1      26.428   5.324  49.171  1.00  0.00     0.068 C 
HETATM    6  N2  UNL     1      27.566   4.830  48.776  1.00  0.00    -0.241 NA
HETATM    7  C19 UNL     1      28.775   5.348  48.207  1.00  0.00     0.234 C 
HETATM    8  N3  UNL     1      29.348   6.529  48.199  1.00  0.00    -0.246 NA
ENDROOT
BRANCH   5   9
HETATM    9  C10 UNL     1      25.567   4.272  49.675  1.00  0.00    -0.007 A 
HETATM   10  C11 UNL     1      26.083   3.399  50.586  1.00  0.00     0.016 A 
HETATM   11  C12 UNL     1      25.345   2.368  51.129  1.00  0.00     0.030 A 
HETATM   12  C13 UNL     1      24.031   2.158  50.777  1.00  0.00     0.036 A 
HETATM   13  C17 UNL     1      23.488   3.021  49.864  1.00  0.00     0.030 A 
HETATM   14  C18 UNL     1      24.254   4.040  49.343  1.00  0.00     0.016 A 
BRANCH  12  15
HETATM   15  N1  UNL     1      23.288   1.091  51.346  1.00  0.00    -0.303 N 
HETATM   16  C14 UNL     1      22.176   1.253  52.227  1.00  0.00     0.365 C 
HETATM   17  O2  UNL     1      21.812   2.431  52.536  1.00  0.00    -0.238 OA
HETATM   18  H13 UNL     1      23.587   0.126  51.092  1.00  0.00     0.171 HD
BRANCH  16  19
HETATM   19  O3  UNL     1      21.522   0.145  52.724  1.00  0.00    -0.304 OA
BRANCH  19  20
HETATM   20  C15 UNL     1      22.238  -0.881  53.365  1.00  0.00     0.176 C 
HETATM   21  C16 UNL     1      22.007  -0.879  54.862  1.00  0.00     0.034 C 
ENDBRANCH  19  20
ENDBRANCH  16  19
ENDBRANCH  12  15
ENDBRANCH   5   9
BRANCH   2  22
HETATM   22  C6  UNL     1      27.849   9.779  49.675  1.00  0.00     0.205 C 
BRANCH  22  23
HETATM   23  O1  UNL     1      27.530   9.620  51.054  1.00  0.00    -0.396 OA
HETATM   24  H8  UNL     1      28.364   9.953  51.516  1.00  0.00     0.209 HD
ENDBRANCH  22  23
ENDBRANCH   2  22
BRANCH   1  25
HETATM   25  C3  UNL     1      30.308   8.556  48.820  1.00  0.00     0.065 C 
BRANCH  25  26
HETATM   26  C2  UNL     1      31.408   7.714  49.398  1.00  0.00    -0.004 C 
HETATM   27  C1  UNL     1      32.582   7.800  48.734  1.00  0.00     0.006 C 
ENDBRANCH  25  26
ENDBRANCH   1  25
TORSDOF 8
ENDMDL
MODEL 6
REMARK VINA RESULT:      -6.8      2.365      3.117
REMARK  8 active torsions:
REMARK  status: ('A' for Active; 'I' for Inactive)
REMARK    1  A    between atoms: C2_2  and  C3_3 
REMARK    2  A    between atoms: C3_3  and  C4_4 
REMARK    3  A    between atoms: C5_5  and  C6_6 
REMARK    4  A    between atoms: C6_6  and  O1_7 
REMARK    5  A    between atoms: C9_10  and  C10_11 
REMARK    6  A    between atoms: C13_14  and  N1_15 
REMARK       I    between atoms: N1_15  and  C14_16 
REMARK    7  A    between atoms: C14_16  and  O3_18 
REMARK    8  A    between atoms: O3_18  and  C15_19 
ROOT
HETATM    1  C4  UNL     1      22.471   1.491  51.467  1.00  0.00     0.044 C 
HETATM    2  C5  UNL     1      22.177   1.568  50.183  1.00  0.00    -0.010 C 
HETATM    3  C7  UNL     1      22.549   2.635  49.221  1.00  0.00     0.013 C 
HETATM    4  C8  UNL     1      23.492   3.592  49.109  1.00  0.00     0.033 C 
HETATM    5  C9  UNL     1      24.612   4.001  49.942  1.00  0.00     0.068 C 
HETATM    6  N2  UNL     1      24.822   3.834  51.216  1.00  0.00    -0.241 NA
HETATM    7  C19 UNL     1      24.118   3.226  52.307  1.00  0.00     0.234 C 
HETATM    8  N3  UNL     1      23.191   2.301  52.394  1.00  0.00    -0.246 NA
ENDROOT
BRANCH   5   9
HETATM    9  C10 UNL     1      25.719   4.716  49.336  1.00  0.00    -0.007 A 
HETATM   10  C11 UNL     1      25.499   5.986  48.892  1.00  0.00     0.016 A 
HETATM   11  C12 UNL     1      26.487   6.751  48.308  1.00  0.00     0.030 A 
HETATM   12  C13 UNL     1      27.764   6.271  48.137  1.00  0.00     0.036 A 
HETATM   13  C17 UNL     1      28.012   4.997  48.574  1.00  0.00     0.030 A 
HETATM   14  C18 UNL     1      27.002   4.263  49.154  1.00  0.00     0.016 A 
BRANCH  12  15
HETATM   15  N1  UNL     1      28.768   7.072  47.532  1.00  0.00    -0.303 N 
HETATM   16  C14 UNL     1      29.299   8.272  48.095  1.00  0.00     0.365 C 
HETATM   17  O2  UNL     1      28.853   8.666  49.217  1.00  0.00    -0.238 OA
HETATM   18  H13 UNL     1      29.133   6.748  46.612  1.00  0.00     0.171 HD
BRANCH  16  19
HETATM   19  O3  UNL     1      30.275   8.977  47.421  1.00  0.00    -0.304 OA
BRANCH  19  20
HETATM   20  C15 UNL     1      31.352   9.551  48.117  1.00  0.00     0.176 C 
HETATM   21  C16 UNL     1      31.230  11.058  48.203  1.00  0.00     0.034 C 
ENDBRANCH  19  20
ENDBRANCH  16  19
ENDBRANCH  12  15
ENDBRANCH   5   9
BRANCH   2  22
HETATM   22  C6  UNL     1      21.401   0.606  49.409  1.00  0.00     0.205 C 
BRANCH  22  23
HETATM   23  O1  UNL     1      20.281   1.339  48.919  1.00  0.00    -0.396 OA
HETATM   24  H8  UNL     1      20.658   2.268  48.800  1.00  0.00     0.209 HD
ENDBRANCH  22  23
ENDBRANCH   2  22
BRANCH   1  25
HETATM   25  C3  UNL     1      21.978   0.324  52.213  1.00  0.00     0.065 C 
BRANCH  25  26
HETATM   26  C2  UNL     1      23.036  -0.246  53.113  1.00  0.00    -0.004 C 
HETATM   27  C1  UNL     1      22.558  -0.824  54.237  1.00  0.00     0.006 C 
ENDBRANCH  25  26
ENDBRANCH   1  25
TORSDOF 8
ENDMDL
MODEL 7
REMARK VINA RESULT:      -6.8      5.472     11.482
REMARK  8 active torsions:
REMARK  status: ('A' for Active; 'I' for Inactive)
REMARK    1  A    between atoms: C2_2  and  C3_3 
REMARK    2  A    between atoms: C3_3  and  C4_4 
REMARK    3  A    between atoms: C5_5  and  C6_6 
REMARK    4  A    between atoms: C6_6  and  O1_7 
REMARK    5  A    between atoms: C9_10  and  C10_11 
REMARK    6  A    between atoms: C13_14  and  N1_15 
REMARK       I    between atoms: N1_15  and  C14_16 
REMARK    7  A    between atoms: C14_16  and  O3_18 
REMARK    8  A    between atoms: O3_18  and  C15_19 
ROOT
HETATM    1  C4  UNL     1      25.061   0.682  52.412  1.00  0.00     0.044 C 
HETATM    2  C5  UNL     1      24.985  -0.193  53.398  1.00  0.00    -0.010 C 
HETATM    3  C7  UNL     1      23.796  -0.560  54.206  1.00  0.00     0.013 C 
HETATM    4  C8  UNL     1      22.454  -0.512  54.085  1.00  0.00     0.033 C 
HETATM    5  C9  UNL     1      21.556  -0.049  53.040  1.00  0.00     0.068 C 
HETATM    6  N2  UNL     1      21.751   0.803  52.075  1.00  0.00    -0.241 NA
HETATM    7  C19 UNL     1      22.840   1.618  51.623  1.00  0.00     0.234 C 
HETATM    8  N3  UNL     1      24.145   1.561  51.762  1.00  0.00    -0.246 NA
ENDROOT
BRANCH   5   9
HETATM    9  C10 UNL     1      20.204  -0.570  52.988  1.00  0.00    -0.007 A 
HETATM   10  C11 UNL     1      19.869  -1.580  53.840  1.00  0.00     0.016 A 
HETATM   11  C12 UNL     1      18.610  -2.139  53.873  1.00  0.00     0.030 A 
HETATM   12  C13 UNL     1      17.606  -1.706  53.037  1.00  0.00     0.036 A 
HETATM   13  C17 UNL     1      17.915  -0.692  52.171  1.00  0.00     0.030 A 
HETATM   14  C18 UNL     1      19.183  -0.157  52.166  1.00  0.00     0.016 A 
BRANCH  12  15
HETATM   15  N1  UNL     1      16.315  -2.296  53.084  1.00  0.00    -0.303 N 
HETATM   16  C14 UNL     1      16.062  -3.701  53.091  1.00  0.00     0.365 C 
HETATM   17  O2  UNL     1      17.051  -4.496  53.052  1.00  0.00    -0.238 OA
HETATM   18  H13 UNL     1      15.505  -1.642  53.117  1.00  0.00     0.171 HD
BRANCH  16  19
HETATM   19  O3  UNL     1      14.765  -4.167  53.140  1.00  0.00    -0.304 OA
BRANCH  19  20
HETATM   20  C15 UNL     1      14.471  -5.404  53.739  1.00  0.00     0.176 C 
HETATM   21  C16 UNL     1      14.181  -5.259  55.219  1.00  0.00     0.034 C 
ENDBRANCH  19  20
ENDBRANCH  16  19
ENDBRANCH  12  15
ENDBRANCH   5   9
BRANCH   2  22
HETATM   22  C6  UNL     1      26.075  -1.005  53.925  1.00  0.00     0.205 C 
BRANCH  22  23
HETATM   23  O1  UNL     1      26.399  -0.421  55.184  1.00  0.00    -0.396 OA
HETATM   24  H8  UNL     1      25.525  -0.476  55.687  1.00  0.00     0.209 HD
ENDBRANCH  22  23
ENDBRANCH   2  22
BRANCH   1  25
HETATM   25  C3  UNL     1      26.367   0.872  51.765  1.00  0.00     0.065 C 
BRANCH  25  26
HETATM   26  C2  UNL     1      26.961   2.209  52.098  1.00  0.00    -0.004 C 
HETATM   27  C1  UNL     1      27.889   2.176  53.080  1.00  0.00     0.006 C 
ENDBRANCH  25  26
ENDBRANCH   1  25
TORSDOF 8
ENDMDL
MODEL 8
REMARK VINA RESULT:      -6.8      2.970      9.482
REMARK  8 active torsions:
REMARK  status: ('A' for Active; 'I' for Inactive)
REMARK    1  A    between atoms: C2_2  and  C3_3 
REMARK    2  A    between atoms: C3_3  and  C4_4 
REMARK    3  A    between atoms: C5_5  and  C6_6 
REMARK    4  A    between atoms: C6_6  and  O1_7 
REMARK    5  A    between atoms: C9_10  and  C10_11 
REMARK    6  A    between atoms: C13_14  and  N1_15 
REMARK       I    between atoms: N1_15  and  C14_16 
REMARK    7  A    between atoms: C14_16  and  O3_18 
REMARK    8  A    between atoms: O3_18  and  C15_19 
ROOT
HETATM    1  C4  UNL     1      31.528   7.655  48.256  1.00  0.00     0.044 C 
HETATM    2  C5  UNL     1      30.576   8.551  48.436  1.00  0.00    -0.010 C 
HETATM    3  C7  UNL     1      29.114   8.384  48.248  1.00  0.00     0.013 C 
HETATM    4  C8  UNL     1      28.221   7.375  48.222  1.00  0.00     0.033 C 
HETATM    5  C9  UNL     1      28.329   5.933  48.379  1.00  0.00     0.068 C 
HETATM    6  N2  UNL     1      29.347   5.140  48.211  1.00  0.00    -0.241 NA
HETATM    7  C19 UNL     1      30.720   5.290  47.826  1.00  0.00     0.234 C 
HETATM    8  N3  UNL     1      31.572   6.288  47.848  1.00  0.00    -0.246 NA
ENDROOT
BRANCH   5   9
HETATM    9  C10 UNL     1      27.161   5.177  48.788  1.00  0.00    -0.007 A 
HETATM   10  C11 UNL     1      25.952   5.806  48.782  1.00  0.00     0.016 A 
HETATM   11  C12 UNL     1      24.783   5.174  49.147  1.00  0.00     0.030 A 
HETATM   12  C13 UNL     1      24.769   3.857  49.545  1.00  0.00     0.036 A 
HETATM   13  C17 UNL     1      25.970   3.201  49.560  1.00  0.00     0.030 A 
HETATM   14  C18 UNL     1      27.118   3.864  49.188  1.00  0.00     0.016 A 
BRANCH  12  15
HETATM   15  N1  UNL     1      23.555   3.223  49.918  1.00  0.00    -0.303 N 
HETATM   16  C14 UNL     1      23.021   3.202  51.243  1.00  0.00     0.365 C 
HETATM   17  O2  UNL     1      23.667   3.789  52.166  1.00  0.00    -0.238 OA
HETATM   18  H13 UNL     1      23.026   2.743  49.160  1.00  0.00     0.171 HD
BRANCH  16  19
HETATM   19  O3  UNL     1      21.830   2.556  51.497  1.00  0.00    -0.304 OA
BRANCH  19  20
HETATM   20  C15 UNL     1      21.765   1.152  51.505  1.00  0.00     0.176 C 
HETATM   21  C16 UNL     1      20.485   0.642  50.877  1.00  0.00     0.034 C 
ENDBRANCH  19  20
ENDBRANCH  16  19
ENDBRANCH  12  15
ENDBRANCH   5   9
BRANCH   2  22
HETATM   22  C6  UNL     1      30.755   9.934  48.864  1.00  0.00     0.205 C 
BRANCH  22  23
HETATM   23  O1  UNL     1      30.302   9.968  50.215  1.00  0.00    -0.396 OA
HETATM   24  H8  UNL     1      29.348  10.283  50.122  1.00  0.00     0.209 HD
ENDBRANCH  22  23
ENDBRANCH   2  22
BRANCH   1  25
HETATM   25  C3  UNL     1      32.916   8.069  48.508  1.00  0.00     0.065 C 
BRANCH  25  26
HETATM   26  C2  UNL     1      33.895   7.208  47.765  1.00  0.00    -0.004 C 
HETATM   27  C1  UNL     1      35.055   6.989  48.424  1.00  0.00     0.006 C 
ENDBRANCH  25  26
ENDBRANCH   1  25
TORSDOF 8
ENDMDL
MODEL 9
REMARK VINA RESULT:      -6.7      5.454     10.842
REMARK  8 active torsions:
REMARK  status: ('A' for Active; 'I' for Inactive)
REMARK    1  A    between atoms: C2_2  and  C3_3 
REMARK    2  A    between atoms: C3_3  and  C4_4 
REMARK    3  A    between atoms: C5_5  and  C6_6 
REMARK    4  A    between atoms: C6_6  and  O1_7 
REMARK    5  A    between atoms: C9_10  and  C10_11 
REMARK    6  A    between atoms: C13_14  and  N1_15 
REMARK       I    between atoms: N1_15  and  C14_16 
REMARK    7  A    between atoms: C14_16  and  O3_18 
REMARK    8  A    between atoms: O3_18  and  C15_19 
ROOT
HETATM    1  C4  UNL     1      24.711   1.089  53.125  1.00  0.00     0.044 C 
HETATM    2  C5  UNL     1      24.237   1.841  52.150  1.00  0.00    -0.010 C 
HETATM    3  C7  UNL     1      23.051   1.591  51.294  1.00  0.00     0.013 C 
HETATM    4  C8  UNL     1      21.912   0.872  51.353  1.00  0.00     0.033 C 
HETATM    5  C9  UNL     1      21.335  -0.015  52.350  1.00  0.00     0.068 C 
HETATM    6  N2  UNL     1      21.902  -0.688  53.310  1.00  0.00    -0.241 NA
HETATM    7  C19 UNL     1      23.238  -0.862  53.800  1.00  0.00     0.234 C 
HETATM    8  N3  UNL     1      24.340  -0.153  53.721  1.00  0.00    -0.246 NA
ENDROOT
BRANCH   5   9
HETATM    9  C10 UNL     1      19.904  -0.245  52.348  1.00  0.00    -0.007 A 
HETATM   10  C11 UNL     1      19.362  -0.942  53.387  1.00  0.00     0.016 A 
HETATM   11  C12 UNL     1      18.013  -1.207  53.481  1.00  0.00     0.030 A 
HETATM   12  C13 UNL     1      17.125  -0.781  52.521  1.00  0.00     0.036 A 
HETATM   13  C17 UNL     1      17.643  -0.079  51.466  1.00  0.00     0.030 A 
HETATM   14  C18 UNL     1      18.995   0.169  51.405  1.00  0.00     0.016 A 
BRANCH  12  15
HETATM   15  N1  UNL     1      15.739  -1.065  52.634  1.00  0.00    -0.303 N 
HETATM   16  C14 UNL     1      14.730  -0.097  52.925  1.00  0.00     0.365 C 
HETATM   17  O2  UNL     1      15.082   1.111  53.099  1.00  0.00    -0.238 OA
HETATM   18  H13 UNL     1      15.452  -2.057  52.491  1.00  0.00     0.171 HD
BRANCH  16  19
HETATM   19  O3  UNL     1      13.409  -0.482  53.012  1.00  0.00    -0.304 OA
BRANCH  19  20
HETATM   20  C15 UNL     1      12.438   0.401  53.516  1.00  0.00     0.176 C 
HETATM   21  C16 UNL     1      12.146   0.143  54.980  1.00  0.00     0.034 C 
ENDBRANCH  19  20
ENDBRANCH  16  19
ENDBRANCH  12  15
ENDBRANCH   5   9
BRANCH   2  22
HETATM   22  C6  UNL     1      24.788   3.108  51.684  1.00  0.00     0.205 C 
BRANCH  22  23
HETATM   23  O1  UNL     1      24.101   4.110  52.430  1.00  0.00    -0.396 OA
HETATM   24  H8  UNL     1      23.135   3.945  52.187  1.00  0.00     0.209 HD
ENDBRANCH  22  23
ENDBRANCH   2  22
BRANCH   1  25
HETATM   25  C3  UNL     1      25.914   1.557  53.829  1.00  0.00     0.065 C 
BRANCH  25  26
HETATM   26  C2  UNL     1      26.760   0.411  54.303  1.00  0.00    -0.004 C 
HETATM   27  C1  UNL     1      27.965   0.322  53.699  1.00  0.00     0.006 C 
ENDBRANCH  25  26
ENDBRANCH   1  25
TORSDOF 8
ENDMDL
