MODEL 1
REMARK VINA RESULT:      -7.9      0.000      0.000
REMARK  4 active torsions:
REMARK  status: ('A' for Active; 'I' for Inactive)
REMARK    1  A    between atoms: N1_2  and  C3_4 
REMARK    2  A    between atoms: C4_5  and  C5_6 
REMARK       I    between atoms: C5_6  and  N2_8 
REMARK    3  A    between atoms: N2_8  and  C6_9 
REMARK    4  A    between atoms: C9_12  and  N3_13 
ROOT
HETATM    1  C5  UNL     1      25.303   4.356  49.830  1.00  0.00     0.254 C 
HETATM    2  O1  UNL     1      24.598   3.436  49.319  1.00  0.00    -0.268 OA
HETATM    3  N2  UNL     1      25.139   4.338  51.258  1.00  0.00    -0.323 N 
HETATM    4  H7  UNL     1      25.681   5.068  51.814  1.00  0.00     0.169 HD
ENDROOT
BRANCH   3   5
HETATM    5  C6  UNL     1      24.254   3.329  51.779  1.00  0.00     0.035 A 
HETATM    6  C7  UNL     1      22.913   3.646  51.830  1.00  0.00     0.032 A 
HETATM    7  C8  UNL     1      21.928   2.809  52.297  1.00  0.00     0.031 A 
HETATM    8  C9  UNL     1      22.307   1.544  52.754  1.00  0.00     0.030 A 
HETATM    9  C14 UNL     1      23.662   1.229  52.700  1.00  0.00     0.031 A 
HETATM   10  C15 UNL     1      24.620   2.094  52.227  1.00  0.00     0.032 A 
BRANCH   8  11
HETATM   11  N3  UNL     1      21.368   0.601  53.257  1.00  0.00    -0.378 N 
HETATM   12  C10 UNL     1      21.354  -0.035  54.561  1.00  0.00     0.153 C 
HETATM   13  C11 UNL     1      21.033  -1.506  54.304  1.00  0.00     0.289 C 
HETATM   14  N4  UNL     1      19.644  -1.574  53.958  1.00  0.00     0.086 N 
HETATM   15  C12 UNL     1      19.188  -0.535  53.085  1.00  0.00     0.289 C 
HETATM   16  H14 UNL     1      19.092  -1.568  54.840  1.00  0.00     0.316 HD
HETATM   17  C13 UNL     1      20.280   0.210  52.368  1.00  0.00     0.153 C 
ENDBRANCH   8  11
ENDBRANCH   3   5
BRANCH   1  18
HETATM   18  C4  UNL     1      26.163   5.308  49.098  1.00  0.00     0.045 C 
HETATM   19  C3  UNL     1      25.484   6.378  48.726  1.00  0.00     0.043 C 
HETATM   20  C19 UNL     1      26.062   7.492  47.987  1.00  0.00     0.047 C 
HETATM   21  C18 UNL     1      27.264   7.670  47.464  1.00  0.00     0.093 C 
HETATM   22  N5  UNL     1      28.398   6.806  47.458  1.00  0.00    -0.337 N 
HETATM   23  C17 UNL     1      28.439   5.610  48.224  1.00  0.00     0.226 C 
HETATM   24  H23 UNL     1      29.212   7.070  46.873  1.00  0.00     0.168 HD
HETATM   25  C16 UNL     1      27.535   4.768  49.004  1.00  0.00     0.149 C 
HETATM   26  O2  UNL     1      29.592   5.073  48.274  1.00  0.00    -0.273 OA
BRANCH  19  27
HETATM   27  N1  UNL     1      24.105   6.561  49.006  1.00  0.00    -0.389 N 
HETATM   28  C1  UNL     1      23.039   6.099  48.142  1.00  0.00     0.149 C 
HETATM   29  C2  UNL     1      23.665   7.256  50.226  1.00  0.00     0.149 C 
ENDBRANCH  19  27
ENDBRANCH   1  18
TORSDOF 4
ENDMDL
MODEL 2
REMARK VINA RESULT:      -7.7      2.316      9.018
REMARK  4 active torsions:
REMARK  status: ('A' for Active; 'I' for Inactive)
REMARK    1  A    between atoms: N1_2  and  C3_4 
REMARK    2  A    between atoms: C4_5  and  C5_6 
REMARK       I    between atoms: C5_6  and  N2_8 
REMARK    3  A    between atoms: N2_8  and  C6_9 
REMARK    4  A    between atoms: C9_12  and  N3_13 
ROOT
HETATM    1  C5  UNL     1      24.052   2.156  52.187  1.00  0.00     0.254 C 
HETATM    2  O1  UNL     1      24.541   3.249  52.603  1.00  0.00    -0.268 OA
HETATM    3  N2  UNL     1      24.196   2.088  50.758  1.00  0.00    -0.323 N 
HETATM    4  H7  UNL     1      23.822   1.214  50.277  1.00  0.00     0.169 HD
ENDROOT
BRANCH   3   5
HETATM    5  C6  UNL     1      24.833   3.218  50.134  1.00  0.00     0.035 A 
HETATM    6  C7  UNL     1      26.189   3.115  49.900  1.00  0.00     0.032 A 
HETATM    7  C8  UNL     1      26.959   4.093  49.316  1.00  0.00     0.031 A 
HETATM    8  C9  UNL     1      26.327   5.278  48.929  1.00  0.00     0.030 A 
HETATM    9  C14 UNL     1      24.960   5.376  49.167  1.00  0.00     0.031 A 
HETATM   10  C15 UNL     1      24.221   4.376  49.755  1.00  0.00     0.032 A 
BRANCH   8  11
HETATM   11  N3  UNL     1      27.030   6.353  48.316  1.00  0.00    -0.378 N 
HETATM   12  C10 UNL     1      28.464   6.508  48.163  1.00  0.00     0.153 C 
HETATM   13  C11 UNL     1      28.766   7.963  48.514  1.00  0.00     0.289 C 
HETATM   14  N4  UNL     1      28.292   8.762  47.423  1.00  0.00     0.086 N 
HETATM   15  C12 UNL     1      27.028   8.359  46.885  1.00  0.00     0.289 C 
HETATM   16  H14 UNL     1      29.019   8.752  46.678  1.00  0.00     0.316 HD
HETATM   17  C13 UNL     1      26.230   7.443  47.770  1.00  0.00     0.153 C 
ENDBRANCH   8  11
ENDBRANCH   3   5
BRANCH   1  18
HETATM   18  C4  UNL     1      23.428   1.106  53.016  1.00  0.00     0.045 C 
HETATM   19  C3  UNL     1      24.339   0.312  53.548  1.00  0.00     0.043 C 
HETATM   20  C19 UNL     1      24.031  -0.817  54.415  1.00  0.00     0.047 C 
HETATM   21  C18 UNL     1      22.877  -1.351  54.784  1.00  0.00     0.093 C 
HETATM   22  N5  UNL     1      21.544  -0.981  54.440  1.00  0.00    -0.337 N 
HETATM   23  C17 UNL     1      21.252   0.214  53.730  1.00  0.00     0.226 C 
HETATM   24  H23 UNL     1      20.772  -1.612  54.723  1.00  0.00     0.168 HD
HETATM   25  C16 UNL     1      21.959   1.263  52.998  1.00  0.00     0.149 C 
HETATM   26  O2  UNL     1      20.013   0.500  53.694  1.00  0.00    -0.273 OA
BRANCH  19  27
HETATM   27  N1  UNL     1      25.733   0.472  53.332  1.00  0.00    -0.389 N 
HETATM   28  C1  UNL     1      26.442  -0.092  52.203  1.00  0.00     0.149 C 
HETATM   29  C2  UNL     1      26.563   1.240  54.273  1.00  0.00     0.149 C 
ENDBRANCH  19  27
ENDBRANCH   1  18
TORSDOF 4
ENDMDL
MODEL 3
REMARK VINA RESULT:      -7.6      2.248      8.694
REMARK  4 active torsions:
REMARK  status: ('A' for Active; 'I' for Inactive)
REMARK    1  A    between atoms: N1_2  and  C3_4 
REMARK    2  A    between atoms: C4_5  and  C5_6 
REMARK       I    between atoms: C5_6  and  N2_8 
REMARK    3  A    between atoms: N2_8  and  C6_9 
REMARK    4  A    between atoms: C9_12  and  N3_13 
ROOT
HETATM    1  C5  UNL     1      23.991   1.970  52.273  1.00  0.00     0.254 C 
HETATM    2  O1  UNL     1      24.285   3.140  52.658  1.00  0.00    -0.268 OA
HETATM    3  N2  UNL     1      24.274   1.850  50.868  1.00  0.00    -0.323 N 
HETATM    4  H7  UNL     1      24.070   0.908  50.414  1.00  0.00     0.169 HD
ENDROOT
BRANCH   3   5
HETATM    5  C6  UNL     1      24.803   3.026  50.229  1.00  0.00     0.035 A 
HETATM    6  C7  UNL     1      26.171   3.079  50.059  1.00  0.00     0.032 A 
HETATM    7  C8  UNL     1      26.847   4.121  49.471  1.00  0.00     0.031 A 
HETATM    8  C9  UNL     1      26.100   5.209  49.012  1.00  0.00     0.030 A 
HETATM    9  C14 UNL     1      24.720   5.151  49.187  1.00  0.00     0.031 A 
HETATM   10  C15 UNL     1      24.078   4.090  49.780  1.00  0.00     0.032 A 
BRANCH   8  11
HETATM   11  N3  UNL     1      26.700   6.339  48.389  1.00  0.00    -0.378 N 
HETATM   12  C10 UNL     1      28.112   6.593  48.173  1.00  0.00     0.153 C 
HETATM   13  C11 UNL     1      28.332   8.059  48.540  1.00  0.00     0.289 C 
HETATM   14  N4  UNL     1      27.755   8.843  47.488  1.00  0.00     0.086 N 
HETATM   15  C12 UNL     1      26.497   8.365  47.001  1.00  0.00     0.289 C 
HETATM   16  H14 UNL     1      28.445   8.894  46.710  1.00  0.00     0.316 HD
HETATM   17  C13 UNL     1      25.804   7.382  47.902  1.00  0.00     0.153 C 
ENDBRANCH   8  11
ENDBRANCH   3   5
BRANCH   1  18
HETATM   18  C4  UNL     1      23.446   0.884  53.112  1.00  0.00     0.045 C 
HETATM   19  C3  UNL     1      22.136   0.787  52.979  1.00  0.00     0.043 C 
HETATM   20  C19 UNL     1      21.316  -0.191  53.680  1.00  0.00     0.047 C 
HETATM   21  C18 UNL     1      21.616  -1.084  54.609  1.00  0.00     0.093 C 
HETATM   22  N5  UNL     1      22.865  -1.376  55.232  1.00  0.00    -0.337 N 
HETATM   23  C17 UNL     1      24.085  -0.810  54.774  1.00  0.00     0.226 C 
HETATM   24  H23 UNL     1      22.870  -2.022  56.041  1.00  0.00     0.168 HD
HETATM   25  C16 UNL     1      24.544   0.228  53.854  1.00  0.00     0.149 C 
HETATM   26  O2  UNL     1      25.121  -1.335  55.295  1.00  0.00    -0.273 OA
BRANCH  19  27
HETATM   27  N1  UNL     1      21.376   1.634  52.131  1.00  0.00    -0.389 N 
HETATM   28  C1  UNL     1      20.919   2.954  52.511  1.00  0.00     0.149 C 
HETATM   29  C2  UNL     1      20.993   1.205  50.776  1.00  0.00     0.149 C 
ENDBRANCH  19  27
ENDBRANCH   1  18
TORSDOF 4
ENDMDL
MODEL 4
REMARK VINA RESULT:      -7.6      2.088      9.107
REMARK  4 active torsions:
REMARK  status: ('A' for Active; 'I' for Inactive)
REMARK    1  A    between atoms: N1_2  and  C3_4 
REMARK    2  A    between atoms: C4_5  and  C5_6 
REMARK       I    between atoms: C5_6  and  N2_8 
REMARK    3  A    between atoms: N2_8  and  C6_9 
REMARK    4  A    between atoms: C9_12  and  N3_13 
ROOT
HETATM    1  C5  UNL     1      24.023   2.514  51.693  1.00  0.00     0.254 C 
HETATM    2  O1  UNL     1      24.433   3.619  52.158  1.00  0.00    -0.268 OA
HETATM    3  N2  UNL     1      24.362   2.434  50.298  1.00  0.00    -0.323 N 
HETATM    4  H7  UNL     1      24.072   1.549  49.781  1.00  0.00     0.169 HD
ENDROOT
BRANCH   3   5
HETATM    5  C6  UNL     1      25.059   3.570  49.752  1.00  0.00     0.035 A 
HETATM    6  C7  UNL     1      26.417   3.428  49.554  1.00  0.00     0.032 A 
HETATM    7  C8  UNL     1      27.240   4.404  49.045  1.00  0.00     0.031 A 
HETATM    8  C9  UNL     1      26.665   5.631  48.701  1.00  0.00     0.030 A 
HETATM    9  C14 UNL     1      25.294   5.768  48.903  1.00  0.00     0.031 A 
HETATM   10  C15 UNL     1      24.502   4.768  49.416  1.00  0.00     0.032 A 
BRANCH   8  11
HETATM   11  N3  UNL     1      27.425   6.708  48.167  1.00  0.00    -0.378 N 
HETATM   12  C10 UNL     1      26.953   8.019  47.765  1.00  0.00     0.153 C 
HETATM   13  C11 UNL     1      27.643   8.322  46.436  1.00  0.00     0.289 C 
HETATM   14  N4  UNL     1      29.014   8.611  46.736  1.00  0.00     0.086 N 
HETATM   15  C12 UNL     1      29.608   7.760  47.722  1.00  0.00     0.289 C 
HETATM   16  H14 UNL     1      29.074   9.605  47.037  1.00  0.00     0.316 HD
HETATM   17  C13 UNL     1      28.856   6.487  47.992  1.00  0.00     0.153 C 
ENDBRANCH   8  11
ENDBRANCH   3   5
BRANCH   1  18
HETATM   18  C4  UNL     1      23.311   1.460  52.442  1.00  0.00     0.045 C 
HETATM   19  C3  UNL     1      24.155   0.673  53.083  1.00  0.00     0.043 C 
HETATM   20  C19 UNL     1      23.751  -0.457  53.908  1.00  0.00     0.047 C 
HETATM   21  C18 UNL     1      22.565  -0.998  54.134  1.00  0.00     0.093 C 
HETATM   22  N5  UNL     1      21.281  -0.638  53.630  1.00  0.00    -0.337 N 
HETATM   23  C17 UNL     1      21.070   0.555  52.888  1.00  0.00     0.226 C 
HETATM   24  H23 UNL     1      20.484  -1.274  53.818  1.00  0.00     0.168 HD
HETATM   25  C16 UNL     1      21.853   1.607  52.245  1.00  0.00     0.149 C 
HETATM   26  O2  UNL     1      19.842   0.832  52.700  1.00  0.00    -0.273 OA
BRANCH  19  27
HETATM   27  N1  UNL     1      25.564   0.842  53.037  1.00  0.00    -0.389 N 
HETATM   28  C1  UNL     1      26.306   1.671  53.964  1.00  0.00     0.149 C 
HETATM   29  C2  UNL     1      26.376   0.169  52.012  1.00  0.00     0.149 C 
ENDBRANCH  19  27
ENDBRANCH   1  18
TORSDOF 4
ENDMDL
MODEL 5
REMARK VINA RESULT:      -7.6      5.116      8.368
REMARK  4 active torsions:
REMARK  status: ('A' for Active; 'I' for Inactive)
REMARK    1  A    between atoms: N1_2  and  C3_4 
REMARK    2  A    between atoms: C4_5  and  C5_6 
REMARK       I    between atoms: C5_6  and  N2_8 
REMARK    3  A    between atoms: N2_8  and  C6_9 
REMARK    4  A    between atoms: C9_12  and  N3_13 
ROOT
HETATM    1  C5  UNL     1      20.649   0.481  52.157  1.00  0.00     0.254 C 
HETATM    2  O1  UNL     1      21.511  -0.039  51.388  1.00  0.00    -0.268 OA
HETATM    3  N2  UNL     1      21.301   0.944  53.352  1.00  0.00    -0.323 N 
HETATM    4  H7  UNL     1      20.685   1.404  54.090  1.00  0.00     0.169 HD
ENDROOT
BRANCH   3   5
HETATM    5  C6  UNL     1      22.723   0.729  53.419  1.00  0.00     0.035 A 
HETATM    6  C7  UNL     1      23.149  -0.427  54.038  1.00  0.00     0.032 A 
HETATM    7  C8  UNL     1      24.464  -0.794  54.193  1.00  0.00     0.031 A 
HETATM    8  C9  UNL     1      25.446   0.063  53.688  1.00  0.00     0.030 A 
HETATM    9  C14 UNL     1      25.011   1.229  53.064  1.00  0.00     0.031 A 
HETATM   10  C15 UNL     1      23.684   1.563  52.928  1.00  0.00     0.032 A 
BRANCH   8  11
HETATM   11  N3  UNL     1      26.836  -0.220  53.794  1.00  0.00    -0.378 N 
HETATM   12  C10 UNL     1      27.780   0.300  54.765  1.00  0.00     0.153 C 
HETATM   13  C11 UNL     1      29.037   0.658  53.973  1.00  0.00     0.289 C 
HETATM   14  N4  UNL     1      29.670  -0.577  53.618  1.00  0.00     0.086 N 
HETATM   15  C12 UNL     1      28.778  -1.613  53.195  1.00  0.00     0.289 C 
HETATM   16  H14 UNL     1      30.230  -0.897  54.435  1.00  0.00     0.316 HD
HETATM   17  C13 UNL     1      27.401  -1.144  52.817  1.00  0.00     0.153 C 
ENDBRANCH   8  11
ENDBRANCH   3   5
BRANCH   1  18
HETATM   18  C4  UNL     1      19.202   0.604  51.893  1.00  0.00     0.045 C 
HETATM   19  C3  UNL     1      18.925   1.727  51.257  1.00  0.00     0.043 C 
HETATM   20  C19 UNL     1      17.583   2.129  50.858  1.00  0.00     0.047 C 
HETATM   21  C18 UNL     1      16.399   1.583  51.086  1.00  0.00     0.093 C 
HETATM   22  N5  UNL     1      16.057   0.403  51.810  1.00  0.00    -0.337 N 
HETATM   23  C17 UNL     1      17.044  -0.506  52.279  1.00  0.00     0.226 C 
HETATM   24  H23 UNL     1      15.055   0.214  51.994  1.00  0.00     0.168 HD
HETATM   25  C16 UNL     1      18.495  -0.580  52.425  1.00  0.00     0.149 C 
HETATM   26  O2  UNL     1      16.565  -1.603  52.712  1.00  0.00    -0.273 OA
BRANCH  19  27
HETATM   27  N1  UNL     1      19.914   2.677  50.889  1.00  0.00    -0.389 N 
HETATM   28  C1  UNL     1      20.636   2.642  49.635  1.00  0.00     0.149 C 
HETATM   29  C2  UNL     1      20.275   3.783  51.789  1.00  0.00     0.149 C 
ENDBRANCH  19  27
ENDBRANCH   1  18
TORSDOF 4
ENDMDL
MODEL 6
REMARK VINA RESULT:      -7.2      4.089      7.310
REMARK  4 active torsions:
REMARK  status: ('A' for Active; 'I' for Inactive)
REMARK    1  A    between atoms: N1_2  and  C3_4 
REMARK    2  A    between atoms: C4_5  and  C5_6 
REMARK       I    between atoms: C5_6  and  N2_8 
REMARK    3  A    between atoms: N2_8  and  C6_9 
REMARK    4  A    between atoms: C9_12  and  N3_13 
ROOT
HETATM    1  C5  UNL     1      21.529   1.669  51.117  1.00  0.00     0.254 C 
HETATM    2  O1  UNL     1      22.529   1.335  50.415  1.00  0.00    -0.268 OA
HETATM    3  N2  UNL     1      21.906   1.675  52.505  1.00  0.00    -0.323 N 
HETATM    4  H7  UNL     1      21.150   1.939  53.208  1.00  0.00     0.169 HD
ENDROOT
BRANCH   3   5
HETATM    5  C6  UNL     1      23.271   1.317  52.789  1.00  0.00     0.035 A 
HETATM    6  C7  UNL     1      23.516  -0.005  53.097  1.00  0.00     0.032 A 
HETATM    7  C8  UNL     1      24.753  -0.523  53.395  1.00  0.00     0.031 A 
HETATM    8  C9  UNL     1      25.846   0.348  53.387  1.00  0.00     0.030 A 
HETATM    9  C14 UNL     1      25.594   1.681  53.075  1.00  0.00     0.031 A 
HETATM   10  C15 UNL     1      24.340   2.164  52.782  1.00  0.00     0.032 A 
BRANCH   8  11
HETATM   11  N3  UNL     1      27.169  -0.084  53.680  1.00  0.00    -0.378 N 
HETATM   12  C10 UNL     1      28.037   0.366  54.753  1.00  0.00     0.153 C 
HETATM   13  C11 UNL     1      29.416   0.550  54.123  1.00  0.00     0.289 C 
HETATM   14  N4  UNL     1      29.943  -0.761  53.884  1.00  0.00     0.086 N 
HETATM   15  C12 UNL     1      28.998  -1.707  53.374  1.00  0.00     0.289 C 
HETATM   16  H14 UNL     1      30.355  -1.109  54.775  1.00  0.00     0.316 HD
HETATM   17  C13 UNL     1      27.744  -1.102  52.808  1.00  0.00     0.153 C 
ENDBRANCH   8  11
ENDBRANCH   3   5
BRANCH   1  18
HETATM   18  C4  UNL     1      20.181   2.004  50.615  1.00  0.00     0.045 C 
HETATM   19  C3  UNL     1      20.101   3.276  50.271  1.00  0.00     0.043 C 
HETATM   20  C19 UNL     1      18.897   3.903  49.740  1.00  0.00     0.047 C 
HETATM   21  C18 UNL     1      17.669   3.440  49.570  1.00  0.00     0.093 C 
HETATM   22  N5  UNL     1      17.125   2.155  49.859  1.00  0.00    -0.337 N 
HETATM   23  C17 UNL     1      17.943   1.059  50.245  1.00  0.00     0.226 C 
HETATM   24  H23 UNL     1      16.099   2.028  49.781  1.00  0.00     0.168 HD
HETATM   25  C16 UNL     1      19.323   0.801  50.651  1.00  0.00     0.149 C 
HETATM   26  O2  UNL     1      17.333  -0.058  50.256  1.00  0.00    -0.273 OA
BRANCH  19  27
HETATM   27  N1  UNL     1      21.187   4.183  50.382  1.00  0.00    -0.389 N 
HETATM   28  C1  UNL     1      22.117   4.461  49.308  1.00  0.00     0.149 C 
HETATM   29  C2  UNL     1      21.442   4.911  51.635  1.00  0.00     0.149 C 
ENDBRANCH  19  27
ENDBRANCH   1  18
TORSDOF 4
ENDMDL
MODEL 7
REMARK VINA RESULT:      -6.9      2.628      4.137
REMARK  4 active torsions:
REMARK  status: ('A' for Active; 'I' for Inactive)
REMARK    1  A    between atoms: N1_2  and  C3_4 
REMARK    2  A    between atoms: C4_5  and  C5_6 
REMARK       I    between atoms: C5_6  and  N2_8 
REMARK    3  A    between atoms: N2_8  and  C6_9 
REMARK    4  A    between atoms: C9_12  and  N3_13 
ROOT
HETATM    1  C5  UNL     1      22.747   2.586  50.737  1.00  0.00     0.254 C 
HETATM    2  O1  UNL     1      21.897   3.029  51.565  1.00  0.00    -0.268 OA
HETATM    3  N2  UNL     1      22.244   1.374  50.147  1.00  0.00    -0.323 N 
HETATM    4  H7  UNL     1      22.867   0.894  49.428  1.00  0.00     0.169 HD
ENDROOT
BRANCH   3   5
HETATM    5  C6  UNL     1      20.947   0.944  50.600  1.00  0.00     0.035 A 
HETATM    6  C7  UNL     1      20.900   0.277  51.806  1.00  0.00     0.032 A 
HETATM    7  C8  UNL     1      19.753  -0.206  52.390  1.00  0.00     0.031 A 
HETATM    8  C9  UNL     1      18.544  -0.009  51.717  1.00  0.00     0.030 A 
HETATM    9  C14 UNL     1      18.597   0.664  50.499  1.00  0.00     0.031 A 
HETATM   10  C15 UNL     1      19.766   1.133  49.946  1.00  0.00     0.032 A 
BRANCH   8  11
HETATM   11  N3  UNL     1      17.300  -0.468  52.232  1.00  0.00    -0.378 N 
HETATM   12  C10 UNL     1      17.024  -1.716  52.917  1.00  0.00     0.153 C 
HETATM   13  C11 UNL     1      15.717  -2.238  52.324  1.00  0.00     0.289 C 
HETATM   14  N4  UNL     1      14.667  -1.410  52.841  1.00  0.00     0.086 N 
HETATM   15  C12 UNL     1      14.971  -0.013  52.894  1.00  0.00     0.289 C 
HETATM   16  H14 UNL     1      14.420  -1.760  53.790  1.00  0.00     0.316 HD
HETATM   17  C13 UNL     1      16.147   0.409  52.059  1.00  0.00     0.153 C 
ENDBRANCH   8  11
ENDBRANCH   3   5
BRANCH   1  18
HETATM   18  C4  UNL     1      24.052   3.196  50.412  1.00  0.00     0.045 C 
HETATM   19  C3  UNL     1      23.917   4.177  49.539  1.00  0.00     0.043 C 
HETATM   20  C19 UNL     1      25.026   4.969  49.026  1.00  0.00     0.047 C 
HETATM   21  C18 UNL     1      26.334   4.867  49.202  1.00  0.00     0.093 C 
HETATM   22  N5  UNL     1      27.085   3.927  49.967  1.00  0.00    -0.337 N 
HETATM   23  C17 UNL     1      26.462   3.002  50.848  1.00  0.00     0.226 C 
HETATM   24  H23 UNL     1      28.116   3.928  49.869  1.00  0.00     0.168 HD
HETATM   25  C16 UNL     1      25.123   2.515  51.169  1.00  0.00     0.149 C 
HETATM   26  O2  UNL     1      27.278   2.388  51.607  1.00  0.00    -0.273 OA
BRANCH  19  27
HETATM   27  N1  UNL     1      22.665   4.572  48.999  1.00  0.00    -0.389 N 
HETATM   28  C1  UNL     1      21.841   5.622  49.561  1.00  0.00     0.149 C 
HETATM   29  C2  UNL     1      22.114   3.915  47.804  1.00  0.00     0.149 C 
ENDBRANCH  19  27
ENDBRANCH   1  18
TORSDOF 4
ENDMDL
MODEL 8
REMARK VINA RESULT:      -6.9      4.006      5.980
REMARK  4 active torsions:
REMARK  status: ('A' for Active; 'I' for Inactive)
REMARK    1  A    between atoms: N1_2  and  C3_4 
REMARK    2  A    between atoms: C4_5  and  C5_6 
REMARK       I    between atoms: C5_6  and  N2_8 
REMARK    3  A    between atoms: N2_8  and  C6_9 
REMARK    4  A    between atoms: C9_12  and  N3_13 
ROOT
HETATM    1  C5  UNL     1      22.590   0.803  52.652  1.00  0.00     0.254 C 
HETATM    2  O1  UNL     1      21.759   1.398  53.402  1.00  0.00    -0.268 OA
HETATM    3  N2  UNL     1      21.883  -0.115  51.800  1.00  0.00    -0.323 N 
HETATM    4  H7  UNL     1      22.468  -0.685  51.115  1.00  0.00     0.169 HD
ENDROOT
BRANCH   3   5
HETATM    5  C6  UNL     1      20.454  -0.161  51.970  1.00  0.00     0.035 A 
HETATM    6  C7  UNL     1      19.694   0.482  51.015  1.00  0.00     0.032 A 
HETATM    7  C8  UNL     1      18.321   0.541  51.017  1.00  0.00     0.031 A 
HETATM    8  C9  UNL     1      17.641  -0.093  52.060  1.00  0.00     0.030 A 
HETATM    9  C14 UNL     1      18.413  -0.740  53.021  1.00  0.00     0.031 A 
HETATM   10  C15 UNL     1      19.787  -0.778  52.986  1.00  0.00     0.032 A 
BRANCH   8  11
HETATM   11  N3  UNL     1      16.221  -0.093  52.158  1.00  0.00    -0.378 N 
HETATM   12  C10 UNL     1      15.321   1.041  52.063  1.00  0.00     0.153 C 
HETATM   13  C11 UNL     1      14.299   0.857  53.183  1.00  0.00     0.289 C 
HETATM   14  N4  UNL     1      13.430  -0.209  52.782  1.00  0.00     0.086 N 
HETATM   15  C12 UNL     1      14.086  -1.321  52.164  1.00  0.00     0.289 C 
HETATM   16  H14 UNL     1      12.712   0.186  52.140  1.00  0.00     0.316 HD
HETATM   17  C13 UNL     1      15.571  -1.379  52.383  1.00  0.00     0.153 C 
ENDBRANCH   8  11
ENDBRANCH   3   5
BRANCH   1  18
HETATM   18  C4  UNL     1      24.053   1.002  52.637  1.00  0.00     0.045 C 
HETATM   19  C3  UNL     1      24.390   2.015  51.860  1.00  0.00     0.043 C 
HETATM   20  C19 UNL     1      25.762   2.454  51.643  1.00  0.00     0.047 C 
HETATM   21  C18 UNL     1      26.918   1.952  52.045  1.00  0.00     0.093 C 
HETATM   22  N5  UNL     1      27.192   0.796  52.834  1.00  0.00    -0.337 N 
HETATM   23  C17 UNL     1      26.161   0.067  53.486  1.00  0.00     0.226 C 
HETATM   24  H23 UNL     1      28.176   0.488  52.928  1.00  0.00     0.168 HD
HETATM   25  C16 UNL     1      24.701  -0.004  53.504  1.00  0.00     0.149 C 
HETATM   26  O2  UNL     1      26.590  -0.798  54.315  1.00  0.00    -0.273 OA
BRANCH  19  27
HETATM   27  N1  UNL     1      23.445   2.794  51.143  1.00  0.00    -0.389 N 
HETATM   28  C1  UNL     1      22.945   2.445  49.830  1.00  0.00     0.149 C 
HETATM   29  C2  UNL     1      22.905   4.041  51.708  1.00  0.00     0.149 C 
ENDBRANCH  19  27
ENDBRANCH   1  18
TORSDOF 4
ENDMDL
MODEL 9
REMARK VINA RESULT:      -6.8      2.020      8.735
REMARK  4 active torsions:
REMARK  status: ('A' for Active; 'I' for Inactive)
REMARK    1  A    between atoms: N1_2  and  C3_4 
REMARK    2  A    between atoms: C4_5  and  C5_6 
REMARK       I    between atoms: C5_6  and  N2_8 
REMARK    3  A    between atoms: N2_8  and  C6_9 
REMARK    4  A    between atoms: C9_12  and  N3_13 
ROOT
HETATM    1  C5  UNL     1      23.939   3.323  50.523  1.00  0.00     0.254 C 
HETATM    2  O1  UNL     1      24.061   3.333  49.262  1.00  0.00    -0.268 OA
HETATM    3  N2  UNL     1      24.911   4.214  51.098  1.00  0.00    -0.323 N 
HETATM    4  H7  UNL     1      24.917   4.299  52.160  1.00  0.00     0.169 HD
ENDROOT
BRANCH   3   5
HETATM    5  C6  UNL     1      25.774   4.892  50.167  1.00  0.00     0.035 A 
HETATM    6  C7  UNL     1      25.559   6.243  49.992  1.00  0.00     0.032 A 
HETATM    7  C8  UNL     1      26.284   7.048  49.146  1.00  0.00     0.031 A 
HETATM    8  C9  UNL     1      27.314   6.460  48.407  1.00  0.00     0.030 A 
HETATM    9  C14 UNL     1      27.526   5.096  48.587  1.00  0.00     0.031 A 
HETATM   10  C15 UNL     1      26.779   4.322  49.443  1.00  0.00     0.032 A 
BRANCH   8  11
HETATM   11  N3  UNL     1      28.124   7.201  47.503  1.00  0.00    -0.378 N 
HETATM   12  C10 UNL     1      27.751   8.362  46.716  1.00  0.00     0.153 C 
HETATM   13  C11 UNL     1      28.338   8.129  45.325  1.00  0.00     0.289 C 
HETATM   14  N4  UNL     1      29.754   8.323  45.434  1.00  0.00     0.086 N 
HETATM   15  C12 UNL     1      30.350   7.768  46.610  1.00  0.00     0.289 C 
HETATM   16  H14 UNL     1      29.943   9.345  45.383  1.00  0.00     0.316 HD
HETATM   17  C13 UNL     1      29.503   6.757  47.330  1.00  0.00     0.153 C 
ENDBRANCH   8  11
ENDBRANCH   3   5
BRANCH   1  18
HETATM   18  C4  UNL     1      22.963   2.535  51.302  1.00  0.00     0.045 C 
HETATM   19  C3  UNL     1      21.781   3.124  51.325  1.00  0.00     0.043 C 
HETATM   20  C19 UNL     1      20.616   2.586  52.013  1.00  0.00     0.047 C 
HETATM   21  C18 UNL     1      20.469   1.529  52.795  1.00  0.00     0.093 C 
HETATM   22  N5  UNL     1      21.427   0.562  53.220  1.00  0.00    -0.337 N 
HETATM   23  C17 UNL     1      22.739   0.511  52.676  1.00  0.00     0.226 C 
HETATM   24  H23 UNL     1      21.146  -0.120  53.948  1.00  0.00     0.168 HD
HETATM   25  C16 UNL     1      23.612   1.314  51.824  1.00  0.00     0.149 C 
HETATM   26  O2  UNL     1      23.389  -0.533  53.003  1.00  0.00    -0.273 OA
BRANCH  19  27
HETATM   27  N1  UNL     1      21.514   4.358  50.676  1.00  0.00    -0.389 N 
HETATM   28  C1  UNL     1      21.004   4.463  49.325  1.00  0.00     0.149 C 
HETATM   29  C2  UNL     1      21.750   5.640  51.358  1.00  0.00     0.149 C 
ENDBRANCH  19  27
ENDBRANCH   1  18
TORSDOF 4
ENDMDL
