MODEL 1
REMARK VINA RESULT:      -9.0      0.000      0.000
REMARK  2 active torsions:
REMARK  status: ('A' for Active; 'I' for Inactive)
REMARK    1  A    between atoms: N1_7  and  C7_8 
REMARK    2  A    between atoms: C7_8  and  C10_12 
ROOT
HETATM    1  C1  UNL     1      29.175  -2.466  53.132  1.00  0.00     0.017 C 
HETATM    2  C2  UNL     1      28.650  -1.355  53.157  1.00  0.00    -0.080 C 
HETATM    3  C3  UNL     1      28.049  -0.025  53.193  1.00  0.00     0.017 A 
HETATM    4  C4  UNL     1      28.801   0.904  53.745  1.00  0.00     0.020 A 
HETATM    5  C5  UNL     1      28.157   2.211  53.757  1.00  0.00     0.018 A 
HETATM    6  C6  UNL     1      26.931   2.375  53.246  1.00  0.00     0.088 A 
HETATM    7  N1  UNL     1      26.168   1.324  52.662  1.00  0.00    -0.356 N 
HETATM    8  C20 UNL     1      26.708  -0.013  52.586  1.00  0.00     0.123 A 
HETATM    9  C21 UNL     1      25.860  -1.044  53.306  1.00  0.00     0.038 C 
ENDROOT
BRANCH   7  10
HETATM   10  C7  UNL     1      24.899   1.898  52.261  1.00  0.00     0.146 C 
HETATM   11  C8  UNL     1      24.693   2.971  53.370  1.00  0.00     0.061 C 
HETATM   12  C9  UNL     1      23.748   1.043  52.472  1.00  0.00     0.096 C 
HETATM   13  N2  UNL     1      22.839   0.347  52.628  1.00  0.00    -0.194 NA
BRANCH  10  14
HETATM   14  C10 UNL     1      24.913   2.674  51.025  1.00  0.00    -0.010 C 
HETATM   15  C11 UNL     1      26.103   2.920  50.373  1.00  0.00    -0.009 C 
HETATM   16  C12 UNL     1      26.394   4.139  49.492  1.00  0.00     0.086 C 
HETATM   17  C13 UNL     1      25.106   4.944  49.501  1.00  0.00     0.034 C 
HETATM   18  C14 UNL     1      25.157   5.909  50.392  1.00  0.00     0.159 C 
HETATM   19  N3  UNL     1      24.070   4.452  48.600  1.00  0.00    -0.367 N 
HETATM   20  O1  UNL     1      24.069   6.709  50.527  1.00  0.00    -0.359 OA
HETATM   21  C15 UNL     1      22.738   6.349  50.280  1.00  0.00     0.200 C 
HETATM   22  C16 UNL     1      21.991   5.744  51.423  1.00  0.00     0.194 C 
HETATM   23  O2  UNL     1      22.390   4.648  51.969  1.00  0.00    -0.385 OA
HETATM   24  C17 UNL     1      22.534   3.375  51.590  1.00  0.00     0.208 C 
HETATM   25  C18 UNL     1      23.563   3.153  50.584  1.00  0.00    -0.010 C 
HETATM   26  C19 UNL     1      23.312   3.382  49.268  1.00  0.00     0.098 C 
HETATM   27  H19 UNL     1      23.813   4.723  47.637  1.00  0.00     0.165 HD
ENDBRANCH  10  14
ENDBRANCH   7  10
TORSDOF 2
ENDMDL
MODEL 2
REMARK VINA RESULT:      -8.6      3.786      5.887
REMARK  2 active torsions:
REMARK  status: ('A' for Active; 'I' for Inactive)
REMARK    1  A    between atoms: N1_7  and  C7_8 
REMARK    2  A    between atoms: C7_8  and  C10_12 
ROOT
HETATM    1  C1  UNL     1      28.456   7.944  47.204  1.00  0.00     0.017 C 
HETATM    2  C2  UNL     1      27.842   7.079  47.824  1.00  0.00    -0.080 C 
HETATM    3  C3  UNL     1      27.133   6.037  48.560  1.00  0.00     0.017 A 
HETATM    4  C4  UNL     1      27.747   4.872  48.594  1.00  0.00     0.020 A 
HETATM    5  C5  UNL     1      27.001   3.868  49.339  1.00  0.00     0.018 A 
HETATM    6  C6  UNL     1      25.823   4.166  49.901  1.00  0.00     0.088 A 
HETATM    7  N1  UNL     1      25.212   5.450  49.826  1.00  0.00    -0.356 N 
HETATM    8  C20 UNL     1      25.864   6.528  49.121  1.00  0.00     0.123 A 
HETATM    9  C21 UNL     1      25.035   7.086  47.980  1.00  0.00     0.038 C 
ENDROOT
BRANCH   7  10
HETATM   10  C7  UNL     1      23.946   5.355  50.527  1.00  0.00     0.146 C 
HETATM   11  C8  UNL     1      23.996   6.637  51.408  1.00  0.00     0.061 C 
HETATM   12  C9  UNL     1      23.884   4.316  51.537  1.00  0.00     0.096 C 
HETATM   13  N2  UNL     1      23.841   3.475  52.327  1.00  0.00    -0.194 NA
BRANCH  10  14
HETATM   14  C10 UNL     1      22.750   5.538  49.712  1.00  0.00    -0.010 C 
HETATM   15  C11 UNL     1      21.879   6.572  49.981  1.00  0.00    -0.009 C 
HETATM   16  C12 UNL     1      20.375   6.563  49.684  1.00  0.00     0.086 C 
HETATM   17  C13 UNL     1      20.113   5.214  49.036  1.00  0.00     0.034 C 
HETATM   18  C14 UNL     1      19.674   4.343  49.916  1.00  0.00     0.159 C 
HETATM   19  N3  UNL     1      20.464   5.137  47.622  1.00  0.00    -0.367 N 
HETATM   20  O1  UNL     1      19.408   3.084  49.487  1.00  0.00    -0.359 OA
HETATM   21  C15 UNL     1      20.028   2.422  48.419  1.00  0.00     0.200 C 
HETATM   22  C16 UNL     1      21.275   1.665  48.740  1.00  0.00     0.194 C 
HETATM   23  O2  UNL     1      22.308   2.263  49.223  1.00  0.00    -0.385 OA
HETATM   24  C17 UNL     1      23.166   3.198  48.806  1.00  0.00     0.208 C 
HETATM   25  C18 UNL     1      22.586   4.520  48.624  1.00  0.00    -0.010 C 
HETATM   26  C19 UNL     1      21.899   4.830  47.492  1.00  0.00     0.098 C 
HETATM   27  H19 UNL     1      19.898   5.258  46.767  1.00  0.00     0.165 HD
ENDBRANCH  10  14
ENDBRANCH   7  10
TORSDOF 2
ENDMDL
MODEL 3
REMARK VINA RESULT:      -8.6      2.849      4.413
REMARK  2 active torsions:
REMARK  status: ('A' for Active; 'I' for Inactive)
REMARK    1  A    between atoms: N1_7  and  C7_8 
REMARK    2  A    between atoms: C7_8  and  C10_12 
ROOT
HETATM    1  C1  UNL     1      21.539  -1.929  54.357  1.00  0.00     0.017 C 
HETATM    2  C2  UNL     1      22.246  -1.111  53.773  1.00  0.00    -0.080 C 
HETATM    3  C3  UNL     1      23.106  -0.154  53.084  1.00  0.00     0.017 A 
HETATM    4  C4  UNL     1      24.396  -0.327  53.288  1.00  0.00     0.020 A 
HETATM    5  C5  UNL     1      25.210   0.652  52.580  1.00  0.00     0.018 A 
HETATM    6  C6  UNL     1      24.641   1.598  51.823  1.00  0.00     0.088 A 
HETATM    7  N1  UNL     1      23.235   1.730  51.645  1.00  0.00    -0.356 N 
HETATM    8  C20 UNL     1      22.328   0.810  52.291  1.00  0.00     0.123 A 
HETATM    9  C21 UNL     1      21.344   1.493  53.221  1.00  0.00     0.038 C 
ENDROOT
BRANCH   7  10
HETATM   10  C7  UNL     1      23.026   2.882  50.789  1.00  0.00     0.146 C 
HETATM   11  C8  UNL     1      24.455   3.081  50.203  1.00  0.00     0.061 C 
HETATM   12  C9  UNL     1      22.828   4.136  51.490  1.00  0.00     0.096 C 
HETATM   13  N2  UNL     1      22.654   5.126  52.058  1.00  0.00    -0.194 NA
BRANCH  10  14
HETATM   14  C10 UNL     1      22.194   2.659  49.612  1.00  0.00    -0.010 C 
HETATM   15  C11 UNL     1      22.776   2.472  48.376  1.00  0.00    -0.009 C 
HETATM   16  C12 UNL     1      22.133   2.828  47.031  1.00  0.00     0.086 C 
HETATM   17  C13 UNL     1      20.765   3.385  47.387  1.00  0.00     0.034 C 
HETATM   18  C14 UNL     1      20.784   4.698  47.425  1.00  0.00     0.159 C 
HETATM   19  N3  UNL     1      19.754   2.377  47.684  1.00  0.00    -0.367 N 
HETATM   20  O1  UNL     1      19.632   5.342  47.744  1.00  0.00    -0.359 OA
HETATM   21  C15 UNL     1      18.604   4.849  48.558  1.00  0.00     0.200 C 
HETATM   22  C16 UNL     1      18.735   5.106  50.024  1.00  0.00     0.194 C 
HETATM   23  O2  UNL     1      19.742   4.655  50.688  1.00  0.00    -0.385 OA
HETATM   24  C17 UNL     1      20.225   3.453  51.012  1.00  0.00     0.208 C 
HETATM   25  C18 UNL     1      20.721   2.672  49.888  1.00  0.00    -0.010 C 
HETATM   26  C19 UNL     1      19.868   1.972  49.094  1.00  0.00     0.098 C 
HETATM   27  H19 UNL     1      19.028   1.939  47.093  1.00  0.00     0.165 HD
ENDBRANCH  10  14
ENDBRANCH   7  10
TORSDOF 2
ENDMDL
MODEL 4
REMARK VINA RESULT:      -8.5      2.179      3.234
REMARK  2 active torsions:
REMARK  status: ('A' for Active; 'I' for Inactive)
REMARK    1  A    between atoms: N1_7  and  C7_8 
REMARK    2  A    between atoms: C7_8  and  C10_12 
ROOT
HETATM    1  C1  UNL     1      26.695  -1.840  52.506  1.00  0.00     0.017 C 
HETATM    2  C2  UNL     1      26.386  -0.680  52.245  1.00  0.00    -0.080 C 
HETATM    3  C3  UNL     1      26.042   0.701  51.922  1.00  0.00     0.017 A 
HETATM    4  C4  UNL     1      27.047   1.431  51.483  1.00  0.00     0.020 A 
HETATM    5  C5  UNL     1      26.652   2.799  51.176  1.00  0.00     0.018 A 
HETATM    6  C6  UNL     1      25.387   3.202  51.347  1.00  0.00     0.088 A 
HETATM    7  N1  UNL     1      24.345   2.360  51.828  1.00  0.00    -0.356 N 
HETATM    8  C20 UNL     1      24.616   0.980  52.156  1.00  0.00     0.123 A 
HETATM    9  C21 UNL     1      24.304   0.636  53.600  1.00  0.00     0.038 C 
ENDROOT
BRANCH   7  10
HETATM   10  C7  UNL     1      23.147   3.173  51.898  1.00  0.00     0.146 C 
HETATM   11  C8  UNL     1      23.469   4.074  53.127  1.00  0.00     0.061 C 
HETATM   12  C9  UNL     1      21.962   2.475  52.358  1.00  0.00     0.096 C 
HETATM   13  N2  UNL     1      21.020   1.906  52.709  1.00  0.00    -0.194 NA
BRANCH  10  14
HETATM   14  C10 UNL     1      22.957   4.124  50.809  1.00  0.00    -0.010 C 
HETATM   15  C11 UNL     1      22.894   5.477  51.071  1.00  0.00    -0.009 C 
HETATM   16  C12 UNL     1      22.129   6.507  50.233  1.00  0.00     0.086 C 
HETATM   17  C13 UNL     1      21.516   5.708  49.096  1.00  0.00     0.034 C 
HETATM   18  C14 UNL     1      20.268   5.391  49.360  1.00  0.00     0.159 C 
HETATM   19  N3  UNL     1      22.432   5.395  48.005  1.00  0.00    -0.367 N 
HETATM   20  O1  UNL     1      19.589   4.661  48.439  1.00  0.00    -0.359 OA
HETATM   21  C15 UNL     1      20.141   3.743  47.535  1.00  0.00     0.200 C 
HETATM   22  C16 UNL     1      20.283   2.338  48.019  1.00  0.00     0.194 C 
HETATM   23  O2  UNL     1      21.011   2.061  49.045  1.00  0.00    -0.385 OA
HETATM   24  C17 UNL     1      22.307   2.138  49.359  1.00  0.00     0.208 C 
HETATM   25  C18 UNL     1      22.831   3.493  49.455  1.00  0.00    -0.010 C 
HETATM   26  C19 UNL     1      23.193   4.181  48.340  1.00  0.00     0.098 C 
HETATM   27  H19 UNL     1      22.610   5.866  47.103  1.00  0.00     0.165 HD
ENDBRANCH  10  14
ENDBRANCH   7  10
TORSDOF 2
ENDMDL
MODEL 5
REMARK VINA RESULT:      -8.5      6.731      9.054
REMARK  2 active torsions:
REMARK  status: ('A' for Active; 'I' for Inactive)
REMARK    1  A    between atoms: N1_7  and  C7_8 
REMARK    2  A    between atoms: C7_8  and  C10_12 
ROOT
HETATM    1  C1  UNL     1      34.245   4.816  42.777  1.00  0.00     0.017 C 
HETATM    2  C2  UNL     1      33.726   4.757  43.888  1.00  0.00    -0.080 C 
HETATM    3  C3  UNL     1      33.111   4.661  45.209  1.00  0.00     0.017 A 
HETATM    4  C4  UNL     1      32.737   3.447  45.555  1.00  0.00     0.020 A 
HETATM    5  C5  UNL     1      32.130   3.404  46.879  1.00  0.00     0.018 A 
HETATM    6  C6  UNL     1      31.998   4.519  47.608  1.00  0.00     0.088 A 
HETATM    7  N1  UNL     1      32.423   5.806  47.172  1.00  0.00    -0.356 N 
HETATM    8  C20 UNL     1      33.048   5.969  45.881  1.00  0.00     0.123 A 
HETATM    9  C21 UNL     1      32.302   6.925  44.971  1.00  0.00     0.038 C 
ENDROOT
BRANCH   7  10
HETATM   10  C7  UNL     1      32.077   6.741  48.225  1.00  0.00     0.146 C 
HETATM   11  C8  UNL     1      33.454   7.420  48.486  1.00  0.00     0.061 C 
HETATM   12  C9  UNL     1      31.807   6.137  49.514  1.00  0.00     0.096 C 
HETATM   13  N2  UNL     1      31.577   5.644  50.533  1.00  0.00    -0.194 NA
BRANCH  10  14
HETATM   14  C10 UNL     1      31.211   7.849  47.834  1.00  0.00    -0.010 C 
HETATM   15  C11 UNL     1      31.635   9.151  47.997  1.00  0.00    -0.009 C 
HETATM   16  C12 UNL     1      30.718  10.357  48.228  1.00  0.00     0.086 C 
HETATM   17  C13 UNL     1      29.310   9.788  48.209  1.00  0.00     0.034 C 
HETATM   18  C14 UNL     1      28.875   9.560  49.428  1.00  0.00     0.159 C 
HETATM   19  N3  UNL     1      28.768   9.542  46.878  1.00  0.00    -0.367 N 
HETATM   20  O1  UNL     1      27.632   9.035  49.573  1.00  0.00    -0.359 OA
HETATM   21  C15 UNL     1      26.971   8.203  48.660  1.00  0.00     0.200 C 
HETATM   22  C16 UNL     1      27.217   6.736  48.798  1.00  0.00     0.194 C 
HETATM   23  O2  UNL     1      28.404   6.250  48.680  1.00  0.00    -0.385 OA
HETATM   24  C17 UNL     1      29.318   6.156  47.710  1.00  0.00     0.208 C 
HETATM   25  C18 UNL     1      29.884   7.427  47.281  1.00  0.00    -0.010 C 
HETATM   26  C19 UNL     1      29.221   8.224  46.402  1.00  0.00     0.098 C 
HETATM   27  H19 UNL     1      28.161  10.114  46.268  1.00  0.00     0.165 HD
ENDBRANCH  10  14
ENDBRANCH   7  10
TORSDOF 2
ENDMDL
MODEL 6
REMARK VINA RESULT:      -8.5      2.397      3.707
REMARK  2 active torsions:
REMARK  status: ('A' for Active; 'I' for Inactive)
REMARK    1  A    between atoms: N1_7  and  C7_8 
REMARK    2  A    between atoms: C7_8  and  C10_12 
ROOT
HETATM    1  C1  UNL     1      27.590  -0.056  53.225  1.00  0.00     0.017 C 
HETATM    2  C2  UNL     1      26.400   0.228  53.111  1.00  0.00    -0.080 C 
HETATM    3  C3  UNL     1      24.980   0.545  52.990  1.00  0.00     0.017 A 
HETATM    4  C4  UNL     1      24.167  -0.413  53.384  1.00  0.00     0.020 A 
HETATM    5  C5  UNL     1      22.763  -0.048  53.243  1.00  0.00     0.018 A 
HETATM    6  C6  UNL     1      22.412   1.148  52.756  1.00  0.00     0.088 A 
HETATM    7  N1  UNL     1      23.345   2.142  52.346  1.00  0.00    -0.356 N 
HETATM    8  C20 UNL     1      24.764   1.896  52.448  1.00  0.00     0.123 A 
HETATM    9  C21 UNL     1      25.485   1.986  51.117  1.00  0.00     0.038 C 
ENDROOT
BRANCH   7  10
HETATM   10  C7  UNL     1      22.572   3.267  51.856  1.00  0.00     0.146 C 
HETATM   11  C8  UNL     1      23.243   4.445  52.622  1.00  0.00     0.061 C 
HETATM   12  C9  UNL     1      21.213   3.338  52.355  1.00  0.00     0.096 C 
HETATM   13  N2  UNL     1      20.127   3.376  52.747  1.00  0.00    -0.194 NA
BRANCH  10  14
HETATM   14  C10 UNL     1      22.765   3.610  50.451  1.00  0.00    -0.010 C 
HETATM   15  C11 UNL     1      23.447   4.757  50.104  1.00  0.00    -0.009 C 
HETATM   16  C12 UNL     1      23.226   5.563  48.819  1.00  0.00     0.086 C 
HETATM   17  C13 UNL     1      22.148   4.806  48.063  1.00  0.00     0.034 C 
HETATM   18  C14 UNL     1      20.962   5.330  48.279  1.00  0.00     0.159 C 
HETATM   19  N3  UNL     1      22.620   3.636  47.331  1.00  0.00    -0.367 N 
HETATM   20  O1  UNL     1      19.891   4.751  47.679  1.00  0.00    -0.359 OA
HETATM   21  C15 UNL     1      19.767   3.400  47.327  1.00  0.00     0.200 C 
HETATM   22  C16 UNL     1      19.221   2.489  48.377  1.00  0.00     0.194 C 
HETATM   23  O2  UNL     1      19.825   2.340  49.504  1.00  0.00    -0.385 OA
HETATM   24  C17 UNL     1      21.000   1.858  49.915  1.00  0.00     0.208 C 
HETATM   25  C18 UNL     1      22.158   2.632  49.491  1.00  0.00    -0.010 C 
HETATM   26  C19 UNL     1      22.678   2.482  48.244  1.00  0.00     0.098 C 
HETATM   27  H19 UNL     1      22.899   3.510  46.345  1.00  0.00     0.165 HD
ENDBRANCH  10  14
ENDBRANCH   7  10
TORSDOF 2
ENDMDL
MODEL 7
REMARK VINA RESULT:      -8.5      2.252      6.566
REMARK  2 active torsions:
REMARK  status: ('A' for Active; 'I' for Inactive)
REMARK    1  A    between atoms: N1_7  and  C7_8 
REMARK    2  A    between atoms: C7_8  and  C10_12 
ROOT
HETATM    1  C1  UNL     1      20.425   8.575  49.491  1.00  0.00     0.017 C 
HETATM    2  C2  UNL     1      21.476   7.986  49.732  1.00  0.00    -0.080 C 
HETATM    3  C3  UNL     1      22.733   7.306  50.031  1.00  0.00     0.017 A 
HETATM    4  C4  UNL     1      23.679   8.085  50.512  1.00  0.00     0.020 A 
HETATM    5  C5  UNL     1      24.911   7.361  50.793  1.00  0.00     0.018 A 
HETATM    6  C6  UNL     1      25.001   6.046  50.562  1.00  0.00     0.088 A 
HETATM    7  N1  UNL     1      23.936   5.259  50.037  1.00  0.00    -0.356 N 
HETATM    8  C20 UNL     1      22.664   5.868  49.729  1.00  0.00     0.123 A 
HETATM    9  C21 UNL     1      22.263   5.715  48.274  1.00  0.00     0.038 C 
ENDROOT
BRANCH   7  10
HETATM   10  C7  UNL     1      24.439   3.905  49.906  1.00  0.00     0.146 C 
HETATM   11  C8  UNL     1      25.635   4.124  48.934  1.00  0.00     0.061 C 
HETATM   12  C9  UNL     1      23.599   3.014  49.131  1.00  0.00     0.096 C 
HETATM   13  N2  UNL     1      22.913   2.308  48.526  1.00  0.00    -0.194 NA
BRANCH  10  14
HETATM   14  C10 UNL     1      25.058   3.338  51.099  1.00  0.00    -0.010 C 
HETATM   15  C11 UNL     1      26.388   2.972  51.083  1.00  0.00    -0.009 C 
HETATM   16  C12 UNL     1      27.013   1.867  51.942  1.00  0.00     0.086 C 
HETATM   17  C13 UNL     1      25.867   1.328  52.780  1.00  0.00     0.034 C 
HETATM   18  C14 UNL     1      25.351   0.248  52.238  1.00  0.00     0.159 C 
HETATM   19  N3  UNL     1      25.526   2.138  53.944  1.00  0.00    -0.367 N 
HETATM   20  O1  UNL     1      24.304  -0.343  52.868  1.00  0.00    -0.359 OA
HETATM   21  C15 UNL     1      23.352   0.296  53.673  1.00  0.00     0.200 C 
HETATM   22  C16 UNL     1      22.156   0.851  52.973  1.00  0.00     0.194 C 
HETATM   23  O2  UNL     1      22.280   1.756  52.065  1.00  0.00    -0.385 OA
HETATM   24  C17 UNL     1      22.706   3.021  52.013  1.00  0.00     0.208 C 
HETATM   25  C18 UNL     1      24.129   3.195  52.266  1.00  0.00    -0.010 C 
HETATM   26  C19 UNL     1      24.614   3.219  53.536  1.00  0.00     0.098 C 
HETATM   27  H19 UNL     1      25.812   2.070  54.935  1.00  0.00     0.165 HD
ENDBRANCH  10  14
ENDBRANCH   7  10
TORSDOF 2
ENDMDL
MODEL 8
REMARK VINA RESULT:      -8.4      2.602      4.002
REMARK  2 active torsions:
REMARK  status: ('A' for Active; 'I' for Inactive)
REMARK    1  A    between atoms: N1_7  and  C7_8 
REMARK    2  A    between atoms: C7_8  and  C10_12 
ROOT
HETATM    1  C1  UNL     1      25.579  -0.426  53.611  1.00  0.00     0.017 C 
HETATM    2  C2  UNL     1      25.602   0.508  52.813  1.00  0.00    -0.080 C 
HETATM    3  C3  UNL     1      25.651   1.607  51.854  1.00  0.00     0.017 A 
HETATM    4  C4  UNL     1      26.792   1.724  51.208  1.00  0.00     0.020 A 
HETATM    5  C5  UNL     1      26.791   2.834  50.265  1.00  0.00     0.018 A 
HETATM    6  C6  UNL     1      25.711   3.611  50.124  1.00  0.00     0.088 A 
HETATM    7  N1  UNL     1      24.504   3.432  50.857  1.00  0.00    -0.356 N 
HETATM    8  C20 UNL     1      24.386   2.357  51.814  1.00  0.00     0.123 A 
HETATM    9  C21 UNL     1      24.083   2.838  53.220  1.00  0.00     0.038 C 
ENDROOT
BRANCH   7  10
HETATM   10  C7  UNL     1      23.599   4.486  50.442  1.00  0.00     0.146 C 
HETATM   11  C8  UNL     1      24.537   5.727  50.503  1.00  0.00     0.061 C 
HETATM   12  C9  UNL     1      22.588   4.842  51.417  1.00  0.00     0.096 C 
HETATM   13  N2  UNL     1      21.776   5.107  52.195  1.00  0.00    -0.194 NA
BRANCH  10  14
HETATM   14  C10 UNL     1      23.168   4.443  49.048  1.00  0.00    -0.010 C 
HETATM   15  C11 UNL     1      23.461   5.490  48.199  1.00  0.00    -0.009 C 
HETATM   16  C12 UNL     1      22.626   5.901  46.981  1.00  0.00     0.086 C 
HETATM   17  C13 UNL     1      21.479   4.907  46.939  1.00  0.00     0.034 C 
HETATM   18  C14 UNL     1      20.403   5.401  47.509  1.00  0.00     0.159 C 
HETATM   19  N3  UNL     1      21.814   3.611  46.360  1.00  0.00    -0.367 N 
HETATM   20  O1  UNL     1      19.295   4.620  47.561  1.00  0.00    -0.359 OA
HETATM   21  C15 UNL     1      19.267   3.220  47.607  1.00  0.00     0.200 C 
HETATM   22  C16 UNL     1      19.332   2.599  48.964  1.00  0.00     0.194 C 
HETATM   23  O2  UNL     1      20.344   2.797  49.735  1.00  0.00    -0.385 OA
HETATM   24  C17 UNL     1      21.649   2.514  49.711  1.00  0.00     0.208 C 
HETATM   25  C18 UNL     1      22.404   3.208  48.678  1.00  0.00    -0.010 C 
HETATM   26  C19 UNL     1      22.413   2.754  47.396  1.00  0.00     0.098 C 
HETATM   27  H19 UNL     1      21.702   3.238  45.403  1.00  0.00     0.165 HD
ENDBRANCH  10  14
ENDBRANCH   7  10
TORSDOF 2
ENDMDL
MODEL 9
REMARK VINA RESULT:      -8.3      7.837     10.706
REMARK  2 active torsions:
REMARK  status: ('A' for Active; 'I' for Inactive)
REMARK    1  A    between atoms: N1_7  and  C7_8 
REMARK    2  A    between atoms: C7_8  and  C10_12 
ROOT
HETATM    1  C1  UNL     1      26.877   4.388  49.052  1.00  0.00     0.017 C 
HETATM    2  C2  UNL     1      27.302   5.461  48.630  1.00  0.00    -0.080 C 
HETATM    3  C3  UNL     1      27.784   6.742  48.121  1.00  0.00     0.017 A 
HETATM    4  C4  UNL     1      26.912   7.408  47.394  1.00  0.00     0.020 A 
HETATM    5  C5  UNL     1      27.440   8.677  46.911  1.00  0.00     0.018 A 
HETATM    6  C6  UNL     1      28.686   9.059  47.212  1.00  0.00     0.088 A 
HETATM    7  N1  UNL     1      29.582   8.288  48.005  1.00  0.00    -0.356 N 
HETATM    8  C20 UNL     1      29.165   7.016  48.547  1.00  0.00     0.123 A 
HETATM    9  C21 UNL     1      30.033   5.858  48.093  1.00  0.00     0.038 C 
ENDROOT
BRANCH   7  10
HETATM   10  C7  UNL     1      30.828   9.027  48.071  1.00  0.00     0.146 C 
HETATM   11  C8  UNL     1      30.934   9.298  49.600  1.00  0.00     0.061 C 
HETATM   12  C9  UNL     1      30.767  10.376  47.545  1.00  0.00     0.096 C 
HETATM   13  N2  UNL     1      30.711  11.444  47.107  1.00  0.00    -0.194 NA
BRANCH  10  14
HETATM   14  C10 UNL     1      32.036   8.267  47.767  1.00  0.00    -0.010 C 
HETATM   15  C11 UNL     1      32.925   7.947  48.771  1.00  0.00    -0.009 C 
HETATM   16  C12 UNL     1      34.432   7.732  48.585  1.00  0.00     0.086 C 
HETATM   17  C13 UNL     1      34.673   7.928  47.098  1.00  0.00     0.034 C 
HETATM   18  C14 UNL     1      35.085   9.149  46.842  1.00  0.00     0.159 C 
HETATM   19  N3  UNL     1      34.335   6.778  46.267  1.00  0.00    -0.367 N 
HETATM   20  O1  UNL     1      35.331   9.481  45.549  1.00  0.00    -0.359 OA
HETATM   21  C15 UNL     1      34.709   8.933  44.419  1.00  0.00     0.200 C 
HETATM   22  C16 UNL     1      33.444   9.591  43.974  1.00  0.00     0.194 C 
HETATM   23  O2  UNL     1      32.418   9.649  44.750  1.00  0.00    -0.385 OA
HETATM   24  C17 UNL     1      31.583   8.774  45.316  1.00  0.00     0.208 C 
HETATM   25  C18 UNL     1      32.192   7.912  46.319  1.00  0.00    -0.010 C 
HETATM   26  C19 UNL     1      32.897   6.808  45.955  1.00  0.00     0.098 C 
HETATM   27  H19 UNL     1      34.913   6.006  45.896  1.00  0.00     0.165 HD
ENDBRANCH  10  14
ENDBRANCH   7  10
TORSDOF 2
ENDMDL
