MODEL 1
REMARK VINA RESULT:      -8.0      0.000      0.000
REMARK  5 active torsions:
REMARK  status: ('A' for Active; 'I' for Inactive)
REMARK    1  A    between atoms: C2_2  and  O1_3 
REMARK    2  A    between atoms: O1_3  and  C3_4 
REMARK    3  A    between atoms: C6_7  and  O2_8 
REMARK    4  A    between atoms: C9_11  and  C10_12 
REMARK    5  A    between atoms: N1_14  and  C12_15 
ROOT
HETATM    1  C10 UNL     1      22.457   2.229  51.712  1.00  0.00     0.114 C 
HETATM    2  C11 UNL     1      23.249   3.489  51.704  1.00  0.00     0.150 C 
HETATM    3  N1  UNL     1      23.479   4.085  50.399  1.00  0.00    -0.361 N 
HETATM    4  C17 UNL     1      22.193   4.503  49.761  1.00  0.00     0.275 C 
HETATM    5  N2  UNL     1      21.410   3.303  49.555  1.00  0.00    -0.256 NA
HETATM    6  C18 UNL     1      21.733   2.451  48.608  1.00  0.00     0.120 C 
HETATM    7  C19 UNL     1      22.669   2.162  47.519  1.00  0.00     0.093 C 
HETATM    8  N3  UNL     1      20.848   1.307  48.819  1.00  0.00    -0.230 NA
HETATM    9  C20 UNL     1      21.283   0.715  49.955  1.00  0.00     0.205 C 
HETATM   10  N4  UNL     1      22.434   1.456  50.493  1.00  0.00    -0.377 N 
HETATM   11  H25 UNL     1      23.356   1.471  50.012  1.00  0.00     0.160 HD
ENDROOT
BRANCH   1  12
HETATM   12  C9  UNL     1      22.371   1.471  52.995  1.00  0.00     0.091 A 
HETATM   13  C3  UNL     1      23.426   0.454  53.023  1.00  0.00     0.053 A 
HETATM   14  C4  UNL     1      23.168  -0.790  53.385  1.00  0.00     0.013 A 
HETATM   15  C5  UNL     1      21.862  -1.324  53.793  1.00  0.00     0.093 A 
HETATM   16  C6  UNL     1      20.770  -0.323  53.653  1.00  0.00     0.046 A 
HETATM   17  C8  UNL     1      21.031   0.930  53.292  1.00  0.00     0.019 A 
BRANCH  13  18
HETATM   18  O1  UNL     1      24.711   0.837  52.657  1.00  0.00    -0.347 OA
BRANCH  18  19
HETATM   19  C2  UNL     1      25.798   0.022  52.906  1.00  0.00     0.158 C 
HETATM   20  C1  UNL     1      26.629   0.337  51.937  1.00  0.00     0.038 C 
ENDBRANCH  18  19
ENDBRANCH  13  18
BRANCH  16  21
HETATM   21  O2  UNL     1      19.467  -0.726  53.910  1.00  0.00    -0.360 OA
HETATM   22  C7  UNL     1      18.450  -0.768  52.948  1.00  0.00     0.209 C 
ENDBRANCH  16  21
ENDBRANCH   1  12
BRANCH   3  23
HETATM   23  C12 UNL     1      24.819   4.194  49.916  1.00  0.00     0.046 A 
HETATM   24  C13 UNL     1      25.878   3.441  49.847  1.00  0.00     0.028 A 
HETATM   25  C14 UNL     1      26.974   4.166  49.215  1.00  0.00     0.001 A 
HETATM   26  C15 UNL     1      26.574   5.389  48.889  1.00  0.00     0.016 A 
HETATM   27  C16 UNL     1      25.166   5.515  49.307  1.00  0.00     0.242 A 
HETATM   28  F1  UNL     1      24.341   5.848  48.255  1.00  0.00    -0.239 F 
ENDBRANCH   3  23
TORSDOF 5
ENDMDL
MODEL 2
REMARK VINA RESULT:      -7.9      2.681      5.889
REMARK  5 active torsions:
REMARK  status: ('A' for Active; 'I' for Inactive)
REMARK    1  A    between atoms: C2_2  and  O1_3 
REMARK    2  A    between atoms: O1_3  and  C3_4 
REMARK    3  A    between atoms: C6_7  and  O2_8 
REMARK    4  A    between atoms: C9_11  and  C10_12 
REMARK    5  A    between atoms: N1_14  and  C12_15 
ROOT
HETATM    1  C10 UNL     1      23.288   2.725  51.748  1.00  0.00     0.114 C 
HETATM    2  C11 UNL     1      23.025   1.264  51.636  1.00  0.00     0.150 C 
HETATM    3  N1  UNL     1      21.651   0.887  51.348  1.00  0.00    -0.361 N 
HETATM    4  C17 UNL     1      21.219   1.402  50.013  1.00  0.00     0.275 C 
HETATM    5  N2  UNL     1      21.265   2.848  50.078  1.00  0.00    -0.256 NA
HETATM    6  C18 UNL     1      20.356   3.514  50.754  1.00  0.00     0.120 C 
HETATM    7  C19 UNL     1      19.148   3.404  51.575  1.00  0.00     0.093 C 
HETATM    8  N3  UNL     1      20.824   4.899  50.743  1.00  0.00    -0.230 NA
HETATM    9  C20 UNL     1      21.914   4.921  51.545  1.00  0.00     0.205 C 
HETATM   10  N4  UNL     1      22.168   3.574  52.077  1.00  0.00    -0.377 N 
HETATM   11  H25 UNL     1      21.531   3.121  52.762  1.00  0.00     0.160 HD
ENDROOT
BRANCH   1  12
HETATM   12  C9  UNL     1      24.629   3.153  52.245  1.00  0.00     0.091 A 
HETATM   13  C3  UNL     1      25.586   3.121  51.135  1.00  0.00     0.053 A 
HETATM   14  C4  UNL     1      26.777   2.568  51.274  1.00  0.00     0.013 A 
HETATM   15  C5  UNL     1      27.305   1.934  52.489  1.00  0.00     0.093 A 
HETATM   16  C6  UNL     1      26.294   1.863  53.578  1.00  0.00     0.046 A 
HETATM   17  C8  UNL     1      25.096   2.423  53.439  1.00  0.00     0.019 A 
BRANCH  13  18
HETATM   18  O1  UNL     1      25.202   3.691  49.927  1.00  0.00    -0.347 OA
BRANCH  18  19
HETATM   19  C2  UNL     1      25.232   5.060  49.742  1.00  0.00     0.158 C 
HETATM   20  C1  UNL     1      26.312   5.233  49.013  1.00  0.00     0.038 C 
ENDBRANCH  18  19
ENDBRANCH  13  18
BRANCH  16  21
HETATM   21  O2  UNL     1      26.630   1.198  54.749  1.00  0.00    -0.360 OA
HETATM   22  C7  UNL     1      27.609   0.199  54.836  1.00  0.00     0.209 C 
ENDBRANCH  16  21
ENDBRANCH   1  12
BRANCH   3  23
HETATM   23  C12 UNL     1      20.929   0.120  52.313  1.00  0.00     0.046 A 
HETATM   24  C13 UNL     1      19.686  -0.126  52.606  1.00  0.00     0.028 A 
HETATM   25  C14 UNL     1      19.605  -1.026  53.751  1.00  0.00     0.001 A 
HETATM   26  C15 UNL     1      20.827  -1.337  54.165  1.00  0.00     0.016 A 
HETATM   27  C16 UNL     1      21.779  -0.634  53.285  1.00  0.00     0.242 A 
HETATM   28  F1  UNL     1      22.651  -1.503  52.666  1.00  0.00    -0.239 F 
ENDBRANCH   3  23
TORSDOF 5
ENDMDL
MODEL 3
REMARK VINA RESULT:      -7.7      1.475      3.560
REMARK  5 active torsions:
REMARK  status: ('A' for Active; 'I' for Inactive)
REMARK    1  A    between atoms: C2_2  and  O1_3 
REMARK    2  A    between atoms: O1_3  and  C3_4 
REMARK    3  A    between atoms: C6_7  and  O2_8 
REMARK    4  A    between atoms: C9_11  and  C10_12 
REMARK    5  A    between atoms: N1_14  and  C12_15 
ROOT
HETATM    1  C10 UNL     1      23.735   1.342  51.947  1.00  0.00     0.114 C 
HETATM    2  C11 UNL     1      24.710   2.446  52.160  1.00  0.00     0.150 C 
HETATM    3  N1  UNL     1      24.476   3.656  51.390  1.00  0.00    -0.361 N 
HETATM    4  C17 UNL     1      23.175   4.291  51.763  1.00  0.00     0.275 C 
HETATM    5  N2  UNL     1      22.128   3.352  51.419  1.00  0.00    -0.256 NA
HETATM    6  C18 UNL     1      21.798   3.151  50.163  1.00  0.00     0.120 C 
HETATM    7  C19 UNL     1      22.069   3.530  48.775  1.00  0.00     0.093 C 
HETATM    8  N3  UNL     1      20.858   2.033  50.198  1.00  0.00    -0.230 NA
HETATM    9  C20 UNL     1      21.598   0.946  50.521  1.00  0.00     0.205 C 
HETATM   10  N4  UNL     1      23.004   1.338  50.702  1.00  0.00    -0.377 N 
HETATM   11  H25 UNL     1      23.598   1.647  49.907  1.00  0.00     0.160 HD
ENDROOT
BRANCH   1  12
HETATM   12  C9  UNL     1      24.047   0.013  52.552  1.00  0.00     0.091 A 
HETATM   13  C3  UNL     1      23.116  -0.242  53.656  1.00  0.00     0.053 A 
HETATM   14  C4  UNL     1      23.546  -0.686  54.824  1.00  0.00     0.013 A 
HETATM   15  C5  UNL     1      24.939  -0.978  55.184  1.00  0.00     0.093 A 
HETATM   16  C6  UNL     1      25.894  -0.609  54.104  1.00  0.00     0.046 A 
HETATM   17  C8  UNL     1      25.461  -0.166  52.928  1.00  0.00     0.019 A 
BRANCH  13  18
HETATM   18  O1  UNL     1      21.765  -0.003  53.438  1.00  0.00    -0.347 OA
BRANCH  18  19
HETATM   19  C2  UNL     1      20.808  -0.933  53.796  1.00  0.00     0.158 C 
HETATM   20  C1  UNL     1      19.690  -0.376  53.386  1.00  0.00     0.038 C 
ENDBRANCH  18  19
ENDBRANCH  13  18
BRANCH  16  21
HETATM   21  O2  UNL     1      27.254  -0.740  54.352  1.00  0.00    -0.360 OA
HETATM   22  C7  UNL     1      28.245  -0.686  53.363  1.00  0.00     0.209 C 
ENDBRANCH  16  21
ENDBRANCH   1  12
BRANCH   3  23
HETATM   23  C12 UNL     1      25.454   4.065  50.433  1.00  0.00     0.046 A 
HETATM   24  C13 UNL     1      26.446   3.528  49.786  1.00  0.00     0.028 A 
HETATM   25  C14 UNL     1      27.080   4.516  48.920  1.00  0.00     0.001 A 
HETATM   26  C15 UNL     1      26.459   5.683  49.041  1.00  0.00     0.016 A 
HETATM   27  C16 UNL     1      25.368   5.499  50.016  1.00  0.00     0.242 A 
HETATM   28  F1  UNL     1      24.139   5.826  49.485  1.00  0.00    -0.239 F 
ENDBRANCH   3  23
TORSDOF 5
ENDMDL
MODEL 4
REMARK VINA RESULT:      -7.6      1.801      3.913
REMARK  5 active torsions:
REMARK  status: ('A' for Active; 'I' for Inactive)
REMARK    1  A    between atoms: C2_2  and  O1_3 
REMARK    2  A    between atoms: O1_3  and  C3_4 
REMARK    3  A    between atoms: C6_7  and  O2_8 
REMARK    4  A    between atoms: C9_11  and  C10_12 
REMARK    5  A    between atoms: N1_14  and  C12_15 
ROOT
HETATM    1  C10 UNL     1      23.813   1.765  51.920  1.00  0.00     0.114 C 
HETATM    2  C11 UNL     1      24.459   3.059  52.275  1.00  0.00     0.150 C 
HETATM    3  N1  UNL     1      23.820   4.252  51.747  1.00  0.00    -0.361 N 
HETATM    4  C17 UNL     1      22.439   4.413  52.297  1.00  0.00     0.275 C 
HETATM    5  N2  UNL     1      21.665   3.276  51.848  1.00  0.00    -0.256 NA
HETATM    6  C18 UNL     1      21.277   3.187  50.595  1.00  0.00     0.120 C 
HETATM    7  C19 UNL     1      21.287   3.840  49.285  1.00  0.00     0.093 C 
HETATM    8  N3  UNL     1      20.694   1.851  50.480  1.00  0.00    -0.230 NA
HETATM    9  C20 UNL     1      21.735   0.991  50.563  1.00  0.00     0.205 C 
HETATM   10  N4  UNL     1      22.988   1.743  50.736  1.00  0.00    -0.377 N 
HETATM   11  H25 UNL     1      23.388   2.332  49.978  1.00  0.00     0.160 HD
ENDROOT
BRANCH   1  12
HETATM   12  C9  UNL     1      24.543   0.508  52.259  1.00  0.00     0.091 A 
HETATM   13  C3  UNL     1      23.947  -0.083  53.462  1.00  0.00     0.053 A 
HETATM   14  C4  UNL     1      24.701  -0.515  54.457  1.00  0.00     0.013 A 
HETATM   15  C5  UNL     1      26.167  -0.474  54.518  1.00  0.00     0.093 A 
HETATM   16  C6  UNL     1      26.765   0.230  53.352  1.00  0.00     0.046 A 
HETATM   17  C8  UNL     1      26.007   0.660  52.348  1.00  0.00     0.019 A 
BRANCH  13  18
HETATM   18  O1  UNL     1      22.562  -0.178  53.524  1.00  0.00    -0.347 OA
BRANCH  18  19
HETATM   19  C2  UNL     1      21.928  -0.639  54.661  1.00  0.00     0.158 C 
HETATM   20  C1  UNL     1      21.207  -1.641  54.208  1.00  0.00     0.038 C 
ENDBRANCH  18  19
ENDBRANCH  13  18
BRANCH  16  21
HETATM   21  O2  UNL     1      28.139   0.427  53.332  1.00  0.00    -0.360 OA
HETATM   22  C7  UNL     1      29.038  -0.196  54.208  1.00  0.00     0.209 C 
ENDBRANCH  16  21
ENDBRANCH   1  12
BRANCH   3  23
HETATM   23  C12 UNL     1      24.542   5.073  50.828  1.00  0.00     0.046 A 
HETATM   24  C13 UNL     1      25.243   4.912  49.745  1.00  0.00     0.028 A 
HETATM   25  C14 UNL     1      25.735   6.199  49.264  1.00  0.00     0.001 A 
HETATM   26  C15 UNL     1      25.321   7.167  50.072  1.00  0.00     0.016 A 
HETATM   27  C16 UNL     1      24.525   6.536  51.140  1.00  0.00     0.242 A 
HETATM   28  F1  UNL     1      23.248   7.050  51.207  1.00  0.00    -0.239 F 
ENDBRANCH   3  23
TORSDOF 5
ENDMDL
MODEL 5
REMARK VINA RESULT:      -7.5      8.238     11.665
REMARK  5 active torsions:
REMARK  status: ('A' for Active; 'I' for Inactive)
REMARK    1  A    between atoms: C2_2  and  O1_3 
REMARK    2  A    between atoms: O1_3  and  C3_4 
REMARK    3  A    between atoms: C6_7  and  O2_8 
REMARK    4  A    between atoms: C9_11  and  C10_12 
REMARK    5  A    between atoms: N1_14  and  C12_15 
ROOT
HETATM    1  C10 UNL     1      31.755   7.161  48.095  1.00  0.00     0.114 C 
HETATM    2  C11 UNL     1      32.395   5.916  48.601  1.00  0.00     0.150 C 
HETATM    3  N1  UNL     1      33.146   5.147  47.623  1.00  0.00    -0.361 N 
HETATM    4  C17 UNL     1      34.311   5.926  47.102  1.00  0.00     0.275 C 
HETATM    5  N2  UNL     1      33.777   7.086  46.420  1.00  0.00    -0.256 NA
HETATM    6  C18 UNL     1      33.193   6.961  45.249  1.00  0.00     0.120 C 
HETATM    7  C19 UNL     1      32.807   6.023  44.193  1.00  0.00     0.093 C 
HETATM    8  N3  UNL     1      32.635   8.282  44.968  1.00  0.00    -0.230 NA
HETATM    9  C20 UNL     1      31.606   8.434  45.834  1.00  0.00     0.205 C 
HETATM   10  N4  UNL     1      31.486   7.236  46.679  1.00  0.00    -0.377 N 
HETATM   11  H25 UNL     1      31.179   6.319  46.297  1.00  0.00     0.160 HD
ENDROOT
BRANCH   1  12
HETATM   12  C9  UNL     1      30.806   7.872  49.002  1.00  0.00     0.091 A 
HETATM   13  C3  UNL     1      29.441   7.710  48.491  1.00  0.00     0.053 A 
HETATM   14  C4  UNL     1      28.619   8.740  48.401  1.00  0.00     0.013 A 
HETATM   15  C5  UNL     1      28.918  10.128  48.773  1.00  0.00     0.093 A 
HETATM   16  C6  UNL     1      30.337  10.313  49.180  1.00  0.00     0.046 A 
HETATM   17  C8  UNL     1      31.164   9.276  49.275  1.00  0.00     0.019 A 
BRANCH  13  18
HETATM   18  O1  UNL     1      29.037   6.438  48.105  1.00  0.00    -0.347 OA
BRANCH  18  19
HETATM   19  C2  UNL     1      27.718   6.042  48.221  1.00  0.00     0.158 C 
HETATM   20  C1  UNL     1      27.822   4.797  48.632  1.00  0.00     0.038 C 
ENDBRANCH  18  19
ENDBRANCH  13  18
BRANCH  16  21
HETATM   21  O2  UNL     1      30.781  11.598  49.463  1.00  0.00    -0.360 OA
HETATM   22  C7  UNL     1      30.142  12.767  49.028  1.00  0.00     0.209 C 
ENDBRANCH  16  21
ENDBRANCH   1  12
BRANCH   3  23
HETATM   23  C12 UNL     1      32.709   3.825  47.300  1.00  0.00     0.046 A 
HETATM   24  C13 UNL     1      31.784   3.272  46.573  1.00  0.00     0.028 A 
HETATM   25  C14 UNL     1      31.866   1.819  46.668  1.00  0.00     0.001 A 
HETATM   26  C15 UNL     1      32.867   1.478  47.470  1.00  0.00     0.016 A 
HETATM   27  C16 UNL     1      33.492   2.727  47.945  1.00  0.00     0.242 A 
HETATM   28  F1  UNL     1      34.835   2.781  47.640  1.00  0.00    -0.239 F 
ENDBRANCH   3  23
TORSDOF 5
ENDMDL
MODEL 6
REMARK VINA RESULT:      -7.1      2.326      4.862
REMARK  5 active torsions:
REMARK  status: ('A' for Active; 'I' for Inactive)
REMARK    1  A    between atoms: C2_2  and  O1_3 
REMARK    2  A    between atoms: O1_3  and  C3_4 
REMARK    3  A    between atoms: C6_7  and  O2_8 
REMARK    4  A    between atoms: C9_11  and  C10_12 
REMARK    5  A    between atoms: N1_14  and  C12_15 
ROOT
HETATM    1  C10 UNL     1      23.597   3.329  51.299  1.00  0.00     0.114 C 
HETATM    2  C11 UNL     1      22.658   2.437  50.566  1.00  0.00     0.150 C 
HETATM    3  N1  UNL     1      21.625   3.104  49.792  1.00  0.00    -0.361 N 
HETATM    4  C17 UNL     1      22.218   3.929  48.695  1.00  0.00     0.275 C 
HETATM    5  N2  UNL     1      23.019   4.959  49.322  1.00  0.00    -0.256 NA
HETATM    6  C18 UNL     1      22.445   5.975  49.927  1.00  0.00     0.120 C 
HETATM    7  C19 UNL     1      21.167   6.597  50.278  1.00  0.00     0.093 C 
HETATM    8  N3  UNL     1      23.541   6.688  50.578  1.00  0.00    -0.230 NA
HETATM    9  C20 UNL     1      23.946   5.888  51.592  1.00  0.00     0.205 C 
HETATM   10  N4  UNL     1      23.136   4.661  51.610  1.00  0.00    -0.377 N 
HETATM   11  H25 UNL     1      22.128   4.668  51.866  1.00  0.00     0.160 HD
ENDROOT
BRANCH   1  12
HETATM   12  C9  UNL     1      24.541   2.698  52.269  1.00  0.00     0.091 A 
HETATM   13  C3  UNL     1      25.821   2.448  51.599  1.00  0.00     0.053 A 
HETATM   14  C4  UNL     1      26.439   1.287  51.717  1.00  0.00     0.013 A 
HETATM   15  C5  UNL     1      25.973   0.128  52.488  1.00  0.00     0.093 A 
HETATM   16  C6  UNL     1      24.621   0.340  53.071  1.00  0.00     0.046 A 
HETATM   17  C8  UNL     1      24.001   1.510  52.956  1.00  0.00     0.019 A 
BRANCH  13  18
HETATM   18  O1  UNL     1      26.368   3.473  50.836  1.00  0.00    -0.347 OA
BRANCH  18  19
HETATM   19  C2  UNL     1      26.576   3.320  49.479  1.00  0.00     0.158 C 
HETATM   20  C1  UNL     1      26.776   4.554  49.072  1.00  0.00     0.038 C 
ENDBRANCH  18  19
ENDBRANCH  13  18
BRANCH  16  21
HETATM   21  O2  UNL     1      24.018  -0.715  53.742  1.00  0.00    -0.360 OA
HETATM   22  C7  UNL     1      22.636  -0.841  53.935  1.00  0.00     0.209 C 
ENDBRANCH  16  21
ENDBRANCH   1  12
BRANCH   3  23
HETATM   23  C12 UNL     1      20.256   2.903  50.149  1.00  0.00     0.046 A 
HETATM   24  C13 UNL     1      19.235   2.238  49.696  1.00  0.00     0.028 A 
HETATM   25  C14 UNL     1      18.070   2.457  50.546  1.00  0.00     0.001 A 
HETATM   26  C15 UNL     1      18.389   3.274  51.542  1.00  0.00     0.016 A 
HETATM   27  C16 UNL     1      19.811   3.631  51.377  1.00  0.00     0.242 A 
HETATM   28  F1  UNL     1      20.558   3.306  52.488  1.00  0.00    -0.239 F 
ENDBRANCH   3  23
TORSDOF 5
ENDMDL
MODEL 7
REMARK VINA RESULT:      -6.9      7.358     10.990
REMARK  5 active torsions:
REMARK  status: ('A' for Active; 'I' for Inactive)
REMARK    1  A    between atoms: C2_2  and  O1_3 
REMARK    2  A    between atoms: O1_3  and  C3_4 
REMARK    3  A    between atoms: C6_7  and  O2_8 
REMARK    4  A    between atoms: C9_11  and  C10_12 
REMARK    5  A    between atoms: N1_14  and  C12_15 
ROOT
HETATM    1  C10 UNL     1      30.431   7.874  47.738  1.00  0.00     0.114 C 
HETATM    2  C11 UNL     1      30.855   6.676  48.513  1.00  0.00     0.150 C 
HETATM    3  N1  UNL     1      32.203   6.200  48.256  1.00  0.00    -0.361 N 
HETATM    4  C17 UNL     1      33.222   7.221  48.649  1.00  0.00     0.275 C 
HETATM    5  N2  UNL     1      33.007   8.381  47.810  1.00  0.00    -0.256 NA
HETATM    6  C18 UNL     1      33.353   8.361  46.542  1.00  0.00     0.120 C 
HETATM    7  C19 UNL     1      33.951   7.558  45.473  1.00  0.00     0.093 C 
HETATM    8  N3  UNL     1      32.828   9.609  45.992  1.00  0.00    -0.230 NA
HETATM    9  C20 UNL     1      31.484   9.460  45.968  1.00  0.00     0.205 C 
HETATM   10  N4  UNL     1      31.121   8.136  46.498  1.00  0.00    -0.377 N 
HETATM   11  H25 UNL     1      31.342   7.258  45.989  1.00  0.00     0.160 HD
ENDROOT
BRANCH   1  12
HETATM   12  C9  UNL     1      28.995   8.276  47.811  1.00  0.00     0.091 A 
HETATM   13  C3  UNL     1      28.814   9.214  48.923  1.00  0.00     0.053 A 
HETATM   14  C4  UNL     1      27.821   9.071  49.783  1.00  0.00     0.013 A 
HETATM   15  C5  UNL     1      26.801   8.015  49.766  1.00  0.00     0.093 A 
HETATM   16  C6  UNL     1      27.052   6.999  48.709  1.00  0.00     0.046 A 
HETATM   17  C8  UNL     1      28.049   7.145  47.841  1.00  0.00     0.019 A 
BRANCH  13  18
HETATM   18  O1  UNL     1      29.719  10.261  49.047  1.00  0.00    -0.347 OA
BRANCH  18  19
HETATM   19  C2  UNL     1      29.481  11.485  48.453  1.00  0.00     0.158 C 
HETATM   20  C1  UNL     1      30.403  12.254  48.988  1.00  0.00     0.038 C 
ENDBRANCH  18  19
ENDBRANCH  13  18
BRANCH  16  21
HETATM   21  O2  UNL     1      26.218   5.891  48.646  1.00  0.00    -0.360 OA
HETATM   22  C7  UNL     1      26.540   4.631  49.165  1.00  0.00     0.209 C 
ENDBRANCH  16  21
ENDBRANCH   1  12
BRANCH   3  23
HETATM   23  C12 UNL     1      32.380   4.897  47.697  1.00  0.00     0.046 A 
HETATM   24  C13 UNL     1      31.672   4.037  47.027  1.00  0.00     0.028 A 
HETATM   25  C14 UNL     1      32.461   2.843  46.743  1.00  0.00     0.001 A 
HETATM   26  C15 UNL     1      33.680   2.980  47.249  1.00  0.00     0.016 A 
HETATM   27  C16 UNL     1      33.736   4.301  47.902  1.00  0.00     0.242 A 
HETATM   28  F1  UNL     1      34.746   5.088  47.392  1.00  0.00    -0.239 F 
ENDBRANCH   3  23
TORSDOF 5
ENDMDL
MODEL 8
REMARK VINA RESULT:      -6.9      2.470      5.268
REMARK  5 active torsions:
REMARK  status: ('A' for Active; 'I' for Inactive)
REMARK    1  A    between atoms: C2_2  and  O1_3 
REMARK    2  A    between atoms: O1_3  and  C3_4 
REMARK    3  A    between atoms: C6_7  and  O2_8 
REMARK    4  A    between atoms: C9_11  and  C10_12 
REMARK    5  A    between atoms: N1_14  and  C12_15 
ROOT
HETATM    1  C10 UNL     1      22.221   0.926  51.762  1.00  0.00     0.114 C 
HETATM    2  C11 UNL     1      21.261   0.905  50.624  1.00  0.00     0.150 C 
HETATM    3  N1  UNL     1      20.987   2.190  50.003  1.00  0.00    -0.361 N 
HETATM    4  C17 UNL     1      22.221   2.762  49.380  1.00  0.00     0.275 C 
HETATM    5  N2  UNL     1      23.169   2.994  50.449  1.00  0.00    -0.256 NA
HETATM    6  C18 UNL     1      22.996   3.989  51.290  1.00  0.00     0.120 C 
HETATM    7  C19 UNL     1      22.142   5.122  51.651  1.00  0.00     0.093 C 
HETATM    8  N3  UNL     1      24.026   3.798  52.310  1.00  0.00    -0.230 NA
HETATM    9  C20 UNL     1      23.645   2.705  53.011  1.00  0.00     0.205 C 
HETATM   10  N4  UNL     1      22.387   2.176  52.463  1.00  0.00    -0.377 N 
HETATM   11  H25 UNL     1      21.486   2.688  52.553  1.00  0.00     0.160 HD
ENDROOT
BRANCH   1  12
HETATM   12  C9  UNL     1      22.375  -0.325  52.563  1.00  0.00     0.091 A 
HETATM   13  C3  UNL     1      21.339  -0.362  53.599  1.00  0.00     0.053 A 
HETATM   14  C4  UNL     1      21.633  -0.668  54.850  1.00  0.00     0.013 A 
HETATM   15  C5  UNL     1      22.964  -1.000  55.374  1.00  0.00     0.093 A 
HETATM   16  C6  UNL     1      24.032  -0.850  54.349  1.00  0.00     0.046 A 
HETATM   17  C8  UNL     1      23.735  -0.545  53.089  1.00  0.00     0.019 A 
BRANCH  13  18
HETATM   18  O1  UNL     1      20.033  -0.065  53.227  1.00  0.00    -0.347 OA
BRANCH  18  19
HETATM   19  C2  UNL     1      19.023  -0.998  53.357  1.00  0.00     0.158 C 
HETATM   20  C1  UNL     1      18.161  -0.628  52.436  1.00  0.00     0.038 C 
ENDBRANCH  18  19
ENDBRANCH  13  18
BRANCH  16  21
HETATM   21  O2  UNL     1      25.351  -1.037  54.737  1.00  0.00    -0.360 OA
HETATM   22  C7  UNL     1      26.340  -0.046  54.676  1.00  0.00     0.209 C 
ENDBRANCH  16  21
ENDBRANCH   1  12
BRANCH   3  23
HETATM   23  C12 UNL     1      19.660   2.715  50.057  1.00  0.00     0.046 A 
HETATM   24  C13 UNL     1      18.598   2.716  49.306  1.00  0.00     0.028 A 
HETATM   25  C14 UNL     1      17.522   3.460  49.953  1.00  0.00     0.001 A 
HETATM   26  C15 UNL     1      17.938   3.922  51.125  1.00  0.00     0.016 A 
HETATM   27  C16 UNL     1      19.337   3.488  51.295  1.00  0.00     0.242 A 
HETATM   28  F1  UNL     1      19.514   2.749  52.445  1.00  0.00    -0.239 F 
ENDBRANCH   3  23
TORSDOF 5
ENDMDL
MODEL 9
REMARK VINA RESULT:      -6.9      3.012      6.965
REMARK  5 active torsions:
REMARK  status: ('A' for Active; 'I' for Inactive)
REMARK    1  A    between atoms: C2_2  and  O1_3 
REMARK    2  A    between atoms: O1_3  and  C3_4 
REMARK    3  A    between atoms: C6_7  and  O2_8 
REMARK    4  A    between atoms: C9_11  and  C10_12 
REMARK    5  A    between atoms: N1_14  and  C12_15 
ROOT
HETATM    1  C10 UNL     1      24.064   3.965  51.432  1.00  0.00     0.114 C 
HETATM    2  C11 UNL     1      23.198   3.355  52.478  1.00  0.00     0.150 C 
HETATM    3  N1  UNL     1      23.693   2.126  53.074  1.00  0.00    -0.361 N 
HETATM    4  C17 UNL     1      24.976   2.358  53.805  1.00  0.00     0.275 C 
HETATM    5  N2  UNL     1      25.953   2.787  52.827  1.00  0.00    -0.256 NA
HETATM    6  C18 UNL     1      26.465   1.928  51.975  1.00  0.00     0.120 C 
HETATM    7  C19 UNL     1      26.476   0.530  51.539  1.00  0.00     0.093 C 
HETATM    8  N3  UNL     1      27.253   2.742  51.052  1.00  0.00    -0.230 NA
HETATM    9  C20 UNL     1      26.353   3.436  50.318  1.00  0.00     0.205 C 
HETATM   10  N4  UNL     1      24.989   3.092  50.750  1.00  0.00    -0.377 N 
HETATM   11  H25 UNL     1      24.576   2.153  50.579  1.00  0.00     0.160 HD
ENDROOT
BRANCH   1  12
HETATM   12  C9  UNL     1      23.507   5.106  50.647  1.00  0.00     0.091 A 
HETATM   13  C3  UNL     1      23.159   4.638  49.302  1.00  0.00     0.053 A 
HETATM   14  C4  UNL     1      23.508   5.323  48.228  1.00  0.00     0.013 A 
HETATM   15  C5  UNL     1      24.256   6.586  48.207  1.00  0.00     0.093 A 
HETATM   16  C6  UNL     1      24.709   7.000  49.563  1.00  0.00     0.046 A 
HETATM   17  C8  UNL     1      24.354   6.312  50.644  1.00  0.00     0.019 A 
BRANCH  13  18
HETATM   18  O1  UNL     1      22.447   3.450  49.189  1.00  0.00    -0.347 OA
BRANCH  18  19
HETATM   19  C2  UNL     1      22.664   2.585  48.134  1.00  0.00     0.158 C 
HETATM   20  C1  UNL     1      21.734   1.672  48.307  1.00  0.00     0.038 C 
ENDBRANCH  18  19
ENDBRANCH  13  18
BRANCH  16  21
HETATM   21  O2  UNL     1      25.514   8.126  49.675  1.00  0.00    -0.360 OA
HETATM   22  C7  UNL     1      26.912   8.108  49.596  1.00  0.00     0.209 C 
ENDBRANCH  16  21
ENDBRANCH   1  12
BRANCH   3  23
HETATM   23  C12 UNL     1      22.942   0.923  52.900  1.00  0.00     0.046 A 
HETATM   24  C13 UNL     1      22.052   0.459  52.073  1.00  0.00     0.028 A 
HETATM   25  C14 UNL     1      21.663  -0.894  52.455  1.00  0.00     0.001 A 
HETATM   26  C15 UNL     1      22.334  -1.265  53.538  1.00  0.00     0.016 A 
HETATM   27  C16 UNL     1      23.208  -0.140  53.918  1.00  0.00     0.242 A 
HETATM   28  F1  UNL     1      24.535  -0.509  53.968  1.00  0.00    -0.239 F 
ENDBRANCH   3  23
TORSDOF 5
ENDMDL
