MODEL 1
REMARK VINA RESULT:      -8.0      0.000      0.000
REMARK  4 active torsions:
REMARK  status: ('A' for Active; 'I' for Inactive)
REMARK    1  A    between atoms: C7_7  and  N1_8 
REMARK    2  A    between atoms: N1_8  and  C8_9 
REMARK    3  A    between atoms: C12_15  and  O1_16 
REMARK    4  A    between atoms: C13_17  and  O2_18 
ROOT
HETATM    1  C1  UNL     1      28.731  -2.831  53.111  1.00  0.00     0.018 C 
HETATM    2  C2  UNL     1      28.511  -1.642  53.108  1.00  0.00    -0.078 C 
HETATM    3  C3  UNL     1      28.238  -0.233  53.102  1.00  0.00     0.019 A 
HETATM    4  C4  UNL     1      28.903   0.670  53.918  1.00  0.00     0.021 A 
HETATM    5  C5  UNL     1      28.577   2.015  53.851  1.00  0.00     0.004 A 
HETATM    6  C6  UNL     1      27.592   2.435  52.968  1.00  0.00     0.029 A 
HETATM    7  C7  UNL     1      26.899   1.593  52.137  1.00  0.00     0.035 A 
HETATM    8  C17 UNL     1      27.262   0.266  52.244  1.00  0.00     0.050 A 
ENDROOT
BRANCH   7   9
HETATM    9  N1  UNL     1      25.904   2.000  51.241  1.00  0.00    -0.340 N 
HETATM   10  H5  UNL     1      26.171   2.326  50.286  1.00  0.00     0.167 HD
BRANCH   9  11
HETATM   11  C8  UNL     1      24.526   1.989  51.574  1.00  0.00     0.144 A 
HETATM   12  N2  UNL     1      23.512   2.709  51.227  1.00  0.00    -0.210 NA
HETATM   13  C9  UNL     1      22.544   2.029  52.004  1.00  0.00     0.161 A 
HETATM   14  N3  UNL     1      21.310   1.978  52.335  1.00  0.00    -0.270 NA
HETATM   15  C16 UNL     1      23.649   1.185  52.429  1.00  0.00     0.060 A 
HETATM   16  C10 UNL     1      20.363   1.255  53.142  1.00  0.00     0.158 C 
HETATM   17  C11 UNL     1      20.511  -0.239  53.069  1.00  0.00     0.089 C 
HETATM   18  C12 UNL     1      21.553  -0.766  54.008  1.00  0.00     0.078 C 
HETATM   19  C13 UNL     1      22.877  -0.611  54.064  1.00  0.00     0.098 C 
HETATM   20  C15 UNL     1      23.846   0.133  53.235  1.00  0.00     0.058 C 
BRANCH  18  21
HETATM   21  O1  UNL     1      21.103  -1.578  55.035  1.00  0.00    -0.362 OA
HETATM   22  H10 UNL     1      21.426  -2.523  55.181  1.00  0.00     0.217 HD
ENDBRANCH  18  21
BRANCH  19  23
HETATM   23  O2  UNL     1      23.514  -1.269  55.099  1.00  0.00    -0.353 OA
HETATM   24  C14 UNL     1      24.867  -1.088  55.461  1.00  0.00     0.210 C 
ENDBRANCH  19  23
ENDBRANCH   9  11
ENDBRANCH   7   9
TORSDOF 4
ENDMDL
MODEL 2
REMARK VINA RESULT:      -7.6      3.499      5.633
REMARK  4 active torsions:
REMARK  status: ('A' for Active; 'I' for Inactive)
REMARK    1  A    between atoms: C7_7  and  N1_8 
REMARK    2  A    between atoms: N1_8  and  C8_9 
REMARK    3  A    between atoms: C12_15  and  O1_16 
REMARK    4  A    between atoms: C13_17  and  O2_18 
ROOT
HETATM    1  C1  UNL     1      28.241   5.465  48.283  1.00  0.00     0.018 C 
HETATM    2  C2  UNL     1      27.093   5.625  48.630  1.00  0.00    -0.078 C 
HETATM    3  C3  UNL     1      25.735   5.818  49.053  1.00  0.00     0.019 A 
HETATM    4  C4  UNL     1      24.762   6.381  48.240  1.00  0.00     0.021 A 
HETATM    5  C5  UNL     1      23.474   6.533  48.727  1.00  0.00     0.004 A 
HETATM    6  C6  UNL     1      23.179   6.118  50.018  1.00  0.00     0.029 A 
HETATM    7  C7  UNL     1      24.096   5.556  50.870  1.00  0.00     0.035 A 
HETATM    8  C17 UNL     1      25.362   5.429  50.336  1.00  0.00     0.050 A 
ENDROOT
BRANCH   7   9
HETATM    9  N1  UNL     1      23.816   5.133  52.174  1.00  0.00    -0.340 N 
HETATM   10  H5  UNL     1      23.748   5.836  52.942  1.00  0.00     0.167 HD
BRANCH   9  11
HETATM   11  C8  UNL     1      23.613   3.769  52.506  1.00  0.00     0.144 A 
HETATM   12  N2  UNL     1      22.585   2.988  52.509  1.00  0.00    -0.210 NA
HETATM   13  C9  UNL     1      23.253   1.826  52.964  1.00  0.00     0.161 A 
HETATM   14  N3  UNL     1      23.121   0.593  53.275  1.00  0.00    -0.270 NA
HETATM   15  C16 UNL     1      24.444   2.659  52.980  1.00  0.00     0.060 A 
HETATM   16  C10 UNL     1      23.844  -0.561  53.740  1.00  0.00     0.158 C 
HETATM   17  C11 UNL     1      25.168  -0.769  53.060  1.00  0.00     0.089 C 
HETATM   18  C12 UNL     1      26.270   0.038  53.676  1.00  0.00     0.078 C 
HETATM   19  C13 UNL     1      26.488   1.351  53.758  1.00  0.00     0.098 C 
HETATM   20  C15 UNL     1      25.743   2.534  53.281  1.00  0.00     0.058 C 
BRANCH  18  21
HETATM   21  O1  UNL     1      27.284  -0.674  54.293  1.00  0.00    -0.362 OA
HETATM   22  H10 UNL     1      27.948  -1.247  53.793  1.00  0.00     0.217 HD
ENDBRANCH  18  21
BRANCH  19  23
HETATM   23  O2  UNL     1      27.642   1.728  54.419  1.00  0.00    -0.353 OA
HETATM   24  C14 UNL     1      28.734   2.397  53.824  1.00  0.00     0.210 C 
ENDBRANCH  19  23
ENDBRANCH   9  11
ENDBRANCH   7   9
TORSDOF 4
ENDMDL
MODEL 3
REMARK VINA RESULT:      -7.4      2.843      6.190
REMARK  4 active torsions:
REMARK  status: ('A' for Active; 'I' for Inactive)
REMARK    1  A    between atoms: C7_7  and  N1_8 
REMARK    2  A    between atoms: N1_8  and  C8_9 
REMARK    3  A    between atoms: C12_15  and  O1_16 
REMARK    4  A    between atoms: C13_17  and  O2_18 
ROOT
HETATM    1  C1  UNL     1      21.745   4.000  45.300  1.00  0.00     0.018 C 
HETATM    2  C2  UNL     1      21.933   3.498  46.384  1.00  0.00    -0.078 C 
HETATM    3  C3  UNL     1      22.158   2.914  47.676  1.00  0.00     0.019 A 
HETATM    4  C4  UNL     1      21.419   1.845  48.163  1.00  0.00     0.021 A 
HETATM    5  C5  UNL     1      21.701   1.342  49.423  1.00  0.00     0.004 A 
HETATM    6  C6  UNL     1      22.717   1.913  50.174  1.00  0.00     0.029 A 
HETATM    7  C7  UNL     1      23.482   2.970  49.750  1.00  0.00     0.035 A 
HETATM    8  C17 UNL     1      23.160   3.433  48.490  1.00  0.00     0.050 A 
ENDROOT
BRANCH   7   9
HETATM    9  N1  UNL     1      24.511   3.557  50.495  1.00  0.00    -0.340 N 
HETATM   10  H5  UNL     1      24.561   4.596  50.577  1.00  0.00     0.167 HD
BRANCH   9  11
HETATM   11  C8  UNL     1      25.505   2.794  51.158  1.00  0.00     0.144 A 
HETATM   12  N2  UNL     1      26.794   2.754  51.098  1.00  0.00    -0.210 NA
HETATM   13  C9  UNL     1      26.979   1.739  52.068  1.00  0.00     0.161 A 
HETATM   14  N3  UNL     1      27.838   1.027  52.692  1.00  0.00    -0.270 NA
HETATM   15  C16 UNL     1      25.529   1.742  52.177  1.00  0.00     0.060 A 
HETATM   16  C10 UNL     1      27.974  -0.007  53.684  1.00  0.00     0.158 C 
HETATM   17  C11 UNL     1      27.104   0.186  54.894  1.00  0.00     0.089 C 
HETATM   18  C12 UNL     1      25.713  -0.333  54.698  1.00  0.00     0.078 C 
HETATM   19  C13 UNL     1      24.718   0.039  53.890  1.00  0.00     0.098 C 
HETATM   20  C15 UNL     1      24.581   1.099  52.871  1.00  0.00     0.058 C 
BRANCH  18  21
HETATM   21  O1  UNL     1      25.338  -1.408  55.486  1.00  0.00    -0.362 OA
HETATM   22  H10 UNL     1      25.953  -2.177  55.707  1.00  0.00     0.217 HD
ENDBRANCH  18  21
BRANCH  19  23
HETATM   23  O2  UNL     1      23.553  -0.697  53.996  1.00  0.00    -0.353 OA
HETATM   24  C14 UNL     1      22.263  -0.221  53.674  1.00  0.00     0.210 C 
ENDBRANCH  19  23
ENDBRANCH   9  11
ENDBRANCH   7   9
TORSDOF 4
ENDMDL
MODEL 4
REMARK VINA RESULT:      -7.4      3.607      5.211
REMARK  4 active torsions:
REMARK  status: ('A' for Active; 'I' for Inactive)
REMARK    1  A    between atoms: C7_7  and  N1_8 
REMARK    2  A    between atoms: N1_8  and  C8_9 
REMARK    3  A    between atoms: C12_15  and  O1_16 
REMARK    4  A    between atoms: C13_17  and  O2_18 
ROOT
HETATM    1  C1  UNL     1      29.727   6.913  47.195  1.00  0.00     0.018 C 
HETATM    2  C2  UNL     1      28.726   6.536  47.760  1.00  0.00    -0.078 C 
HETATM    3  C3  UNL     1      27.545   6.083  48.439  1.00  0.00     0.019 A 
HETATM    4  C4  UNL     1      26.443   6.894  48.666  1.00  0.00     0.021 A 
HETATM    5  C5  UNL     1      25.344   6.377  49.330  1.00  0.00     0.004 A 
HETATM    6  C6  UNL     1      25.363   5.056  49.757  1.00  0.00     0.029 A 
HETATM    7  C7  UNL     1      26.420   4.204  49.564  1.00  0.00     0.035 A 
HETATM    8  C17 UNL     1      27.489   4.770  48.898  1.00  0.00     0.050 A 
ENDROOT
BRANCH   7   9
HETATM    9  N1  UNL     1      26.455   2.872  49.986  1.00  0.00    -0.340 N 
HETATM   10  H5  UNL     1      27.260   2.265  49.716  1.00  0.00     0.167 HD
BRANCH   9  11
HETATM   11  C8  UNL     1      25.432   2.295  50.781  1.00  0.00     0.144 A 
HETATM   12  N2  UNL     1      24.145   2.238  50.685  1.00  0.00    -0.210 NA
HETATM   13  C9  UNL     1      23.918   1.495  51.868  1.00  0.00     0.161 A 
HETATM   14  N3  UNL     1      23.031   0.958  52.617  1.00  0.00    -0.270 NA
HETATM   15  C16 UNL     1      25.362   1.526  52.026  1.00  0.00     0.060 A 
HETATM   16  C10 UNL     1      22.851   0.201  53.828  1.00  0.00     0.158 C 
HETATM   17  C11 UNL     1      23.823  -0.934  53.991  1.00  0.00     0.089 C 
HETATM   18  C12 UNL     1      25.129  -0.499  54.582  1.00  0.00     0.078 C 
HETATM   19  C13 UNL     1      26.099   0.301  54.136  1.00  0.00     0.098 C 
HETATM   20  C15 UNL     1      26.280   1.078  52.893  1.00  0.00     0.058 C 
BRANCH  18  21
HETATM   21  O1  UNL     1      25.436  -1.000  55.836  1.00  0.00    -0.362 OA
HETATM   22  H10 UNL     1      24.751  -1.135  56.565  1.00  0.00     0.217 HD
ENDBRANCH  18  21
BRANCH  19  23
HETATM   23  O2  UNL     1      27.178   0.466  54.983  1.00  0.00    -0.353 OA
HETATM   24  C14 UNL     1      28.526   0.543  54.571  1.00  0.00     0.210 C 
ENDBRANCH  19  23
ENDBRANCH   9  11
ENDBRANCH   7   9
TORSDOF 4
ENDMDL
MODEL 5
REMARK VINA RESULT:      -7.3      3.195      5.119
REMARK  4 active torsions:
REMARK  status: ('A' for Active; 'I' for Inactive)
REMARK    1  A    between atoms: C7_7  and  N1_8 
REMARK    2  A    between atoms: N1_8  and  C8_9 
REMARK    3  A    between atoms: C12_15  and  O1_16 
REMARK    4  A    between atoms: C13_17  and  O2_18 
ROOT
HETATM    1  C1  UNL     1      23.362   7.841  50.444  1.00  0.00     0.018 C 
HETATM    2  C2  UNL     1      24.274   7.131  50.089  1.00  0.00    -0.078 C 
HETATM    3  C3  UNL     1      25.349   6.279  49.666  1.00  0.00     0.019 A 
HETATM    4  C4  UNL     1      26.358   6.699  48.812  1.00  0.00     0.021 A 
HETATM    5  C5  UNL     1      27.358   5.811  48.452  1.00  0.00     0.004 A 
HETATM    6  C6  UNL     1      27.335   4.517  48.954  1.00  0.00     0.029 A 
HETATM    7  C7  UNL     1      26.366   4.041  49.800  1.00  0.00     0.035 A 
HETATM    8  C17 UNL     1      25.395   4.966  50.126  1.00  0.00     0.050 A 
ENDROOT
BRANCH   7   9
HETATM    9  N1  UNL     1      26.329   2.741  50.315  1.00  0.00    -0.340 N 
HETATM   10  H5  UNL     1      27.124   2.090  50.133  1.00  0.00     0.167 HD
BRANCH   9  11
HETATM   11  C8  UNL     1      25.243   2.257  51.088  1.00  0.00     0.144 A 
HETATM   12  N2  UNL     1      23.964   2.429  51.046  1.00  0.00    -0.210 NA
HETATM   13  C9  UNL     1      23.644   1.602  52.150  1.00  0.00     0.161 A 
HETATM   14  N3  UNL     1      22.698   1.139  52.876  1.00  0.00    -0.270 NA
HETATM   15  C16 UNL     1      25.076   1.373  52.244  1.00  0.00     0.060 A 
HETATM   16  C10 UNL     1      22.423   0.289  54.004  1.00  0.00     0.158 C 
HETATM   17  C11 UNL     1      23.189  -1.004  53.997  1.00  0.00     0.089 C 
HETATM   18  C12 UNL     1      24.566  -0.866  54.572  1.00  0.00     0.078 C 
HETATM   19  C13 UNL     1      25.646  -0.194  54.171  1.00  0.00     0.098 C 
HETATM   20  C15 UNL     1      25.925   0.680  53.014  1.00  0.00     0.058 C 
BRANCH  18  21
HETATM   21  O1  UNL     1      24.815  -1.553  55.748  1.00  0.00    -0.362 OA
HETATM   22  H10 UNL     1      24.316  -1.383  56.608  1.00  0.00     0.217 HD
ENDBRANCH  18  21
BRANCH  19  23
HETATM   23  O2  UNL     1      26.760  -0.312  54.981  1.00  0.00    -0.353 OA
HETATM   24  C14 UNL     1      28.002   0.317  54.745  1.00  0.00     0.210 C 
ENDBRANCH  19  23
ENDBRANCH   9  11
ENDBRANCH   7   9
TORSDOF 4
ENDMDL
MODEL 6
REMARK VINA RESULT:      -7.3      2.916      7.210
REMARK  4 active torsions:
REMARK  status: ('A' for Active; 'I' for Inactive)
REMARK    1  A    between atoms: C7_7  and  N1_8 
REMARK    2  A    between atoms: N1_8  and  C8_9 
REMARK    3  A    between atoms: C12_15  and  O1_16 
REMARK    4  A    between atoms: C13_17  and  O2_18 
ROOT
HETATM    1  C1  UNL     1      16.623  -0.546  49.745  1.00  0.00     0.018 C 
HETATM    2  C2  UNL     1      17.433  -0.073  50.508  1.00  0.00    -0.078 C 
HETATM    3  C3  UNL     1      18.403   0.478  51.412  1.00  0.00     0.019 A 
HETATM    4  C4  UNL     1      18.757   1.819  51.417  1.00  0.00     0.021 A 
HETATM    5  C5  UNL     1      19.703   2.269  52.323  1.00  0.00     0.004 A 
HETATM    6  C6  UNL     1      20.279   1.371  53.211  1.00  0.00     0.029 A 
HETATM    7  C7  UNL     1      19.972   0.035  53.256  1.00  0.00     0.035 A 
HETATM    8  C17 UNL     1      19.025  -0.360  52.333  1.00  0.00     0.050 A 
ENDROOT
BRANCH   7   9
HETATM    9  N1  UNL     1      20.541  -0.883  54.145  1.00  0.00    -0.340 N 
HETATM   10  H5  UNL     1      19.935  -1.586  54.621  1.00  0.00     0.167 HD
BRANCH   9  11
HETATM   11  C8  UNL     1      21.930  -0.906  54.433  1.00  0.00     0.144 A 
HETATM   12  N2  UNL     1      22.643  -1.427  55.374  1.00  0.00    -0.210 NA
HETATM   13  C9  UNL     1      23.901  -0.980  54.904  1.00  0.00     0.161 A 
HETATM   14  N3  UNL     1      25.162  -0.972  55.121  1.00  0.00    -0.270 NA
HETATM   15  C16 UNL     1      23.149  -0.371  53.819  1.00  0.00     0.060 A 
HETATM   16  C10 UNL     1      26.417  -0.494  54.603  1.00  0.00     0.158 C 
HETATM   17  C11 UNL     1      26.570  -0.662  53.117  1.00  0.00     0.089 C 
HETATM   18  C12 UNL     1      25.945   0.455  52.339  1.00  0.00     0.078 C 
HETATM   19  C13 UNL     1      24.679   0.851  52.190  1.00  0.00     0.098 C 
HETATM   20  C15 UNL     1      23.393   0.360  52.724  1.00  0.00     0.058 C 
BRANCH  18  21
HETATM   21  O1  UNL     1      26.807   1.261  51.616  1.00  0.00    -0.362 OA
HETATM   22  H10 UNL     1      27.700   1.575  51.965  1.00  0.00     0.217 HD
ENDBRANCH  18  21
BRANCH  19  23
HETATM   23  O2  UNL     1      24.487   1.949  51.373  1.00  0.00    -0.353 OA
HETATM   24  C14 UNL     1      23.321   2.743  51.344  1.00  0.00     0.210 C 
ENDBRANCH  19  23
ENDBRANCH   9  11
ENDBRANCH   7   9
TORSDOF 4
ENDMDL
MODEL 7
REMARK VINA RESULT:      -7.3      2.992      4.624
REMARK  4 active torsions:
REMARK  status: ('A' for Active; 'I' for Inactive)
REMARK    1  A    between atoms: C7_7  and  N1_8 
REMARK    2  A    between atoms: N1_8  and  C8_9 
REMARK    3  A    between atoms: C12_15  and  O1_16 
REMARK    4  A    between atoms: C13_17  and  O2_18 
ROOT
HETATM    1  C1  UNL     1      25.028   3.754  50.726  1.00  0.00     0.018 C 
HETATM    2  C2  UNL     1      25.239   2.688  51.257  1.00  0.00    -0.078 C 
HETATM    3  C3  UNL     1      25.477   1.421  51.888  1.00  0.00     0.019 A 
HETATM    4  C4  UNL     1      26.572   0.622  51.593  1.00  0.00     0.021 A 
HETATM    5  C5  UNL     1      26.726  -0.589  52.248  1.00  0.00     0.004 A 
HETATM    6  C6  UNL     1      25.784  -0.981  53.188  1.00  0.00     0.029 A 
HETATM    7  C7  UNL     1      24.681  -0.238  53.523  1.00  0.00     0.035 A 
HETATM    8  C17 UNL     1      24.575   0.958  52.842  1.00  0.00     0.050 A 
ENDROOT
BRANCH   7   9
HETATM    9  N1  UNL     1      23.723  -0.618  54.469  1.00  0.00    -0.340 N 
HETATM   10  H5  UNL     1      24.017  -0.824  55.448  1.00  0.00     0.167 HD
BRANCH   9  11
HETATM   11  C8  UNL     1      22.345  -0.737  54.154  1.00  0.00     0.144 A 
HETATM   12  N2  UNL     1      21.322  -1.228  54.771  1.00  0.00    -0.210 NA
HETATM   13  C9  UNL     1      20.363  -0.938  53.770  1.00  0.00     0.161 A 
HETATM   14  N3  UNL     1      19.130  -1.022  53.441  1.00  0.00    -0.270 NA
HETATM   15  C16 UNL     1      21.479  -0.371  53.030  1.00  0.00     0.060 A 
HETATM   16  C10 UNL     1      18.194  -0.707  52.395  1.00  0.00     0.158 C 
HETATM   17  C11 UNL     1      18.359   0.671  51.818  1.00  0.00     0.089 C 
HETATM   18  C12 UNL     1      19.409   0.732  50.751  1.00  0.00     0.078 C 
HETATM   19  C13 UNL     1      20.731   0.554  50.777  1.00  0.00     0.098 C 
HETATM   20  C15 UNL     1      21.691   0.230  51.852  1.00  0.00     0.058 C 
BRANCH  18  21
HETATM   21  O1  UNL     1      18.972   1.026  49.471  1.00  0.00    -0.362 OA
HETATM   22  H10 UNL     1      18.565   0.343  48.851  1.00  0.00     0.217 HD
ENDBRANCH  18  21
BRANCH  19  23
HETATM   23  O2  UNL     1      21.379   0.695  49.564  1.00  0.00    -0.353 OA
HETATM   24  C14 UNL     1      22.176   1.800  49.195  1.00  0.00     0.210 C 
ENDBRANCH  19  23
ENDBRANCH   9  11
ENDBRANCH   7   9
TORSDOF 4
ENDMDL
MODEL 8
REMARK VINA RESULT:      -7.2      3.289      4.886
REMARK  4 active torsions:
REMARK  status: ('A' for Active; 'I' for Inactive)
REMARK    1  A    between atoms: C7_7  and  N1_8 
REMARK    2  A    between atoms: N1_8  and  C8_9 
REMARK    3  A    between atoms: C12_15  and  O1_16 
REMARK    4  A    between atoms: C13_17  and  O2_18 
ROOT
HETATM    1  C1  UNL     1      22.501  -0.965  54.605  1.00  0.00     0.018 C 
HETATM    2  C2  UNL     1      23.469  -0.581  53.990  1.00  0.00    -0.078 C 
HETATM    3  C3  UNL     1      24.618  -0.115  53.266  1.00  0.00     0.019 A 
HETATM    4  C4  UNL     1      25.664  -0.944  52.891  1.00  0.00     0.021 A 
HETATM    5  C5  UNL     1      26.737  -0.412  52.195  1.00  0.00     0.004 A 
HETATM    6  C6  UNL     1      26.747   0.940  51.884  1.00  0.00     0.029 A 
HETATM    7  C7  UNL     1      25.744   1.812  52.227  1.00  0.00     0.035 A 
HETATM    8  C17 UNL     1      24.701   1.230  52.919  1.00  0.00     0.050 A 
ENDROOT
BRANCH   7   9
HETATM    9  N1  UNL     1      25.738   3.176  51.922  1.00  0.00    -0.340 N 
HETATM   10  H5  UNL     1      26.274   3.842  52.520  1.00  0.00     0.167 HD
BRANCH   9  11
HETATM   11  C8  UNL     1      25.026   3.708  50.816  1.00  0.00     0.144 A 
HETATM   12  N2  UNL     1      25.215   4.710  50.025  1.00  0.00    -0.210 NA
HETATM   13  C9  UNL     1      24.060   4.519  49.228  1.00  0.00     0.161 A 
HETATM   14  N3  UNL     1      23.383   4.961  48.237  1.00  0.00    -0.270 NA
HETATM   15  C16 UNL     1      23.798   3.378  50.089  1.00  0.00     0.060 A 
HETATM   16  C10 UNL     1      22.197   4.725  47.456  1.00  0.00     0.158 C 
HETATM   17  C11 UNL     1      21.978   3.283  47.095  1.00  0.00     0.089 C 
HETATM   18  C12 UNL     1      21.289   2.511  48.179  1.00  0.00     0.078 C 
HETATM   19  C13 UNL     1      21.655   2.173  49.416  1.00  0.00     0.098 C 
HETATM   20  C15 UNL     1      22.872   2.418  50.216  1.00  0.00     0.058 C 
BRANCH  18  21
HETATM   21  O1  UNL     1      20.023   2.034  47.887  1.00  0.00    -0.362 OA
HETATM   22  H10 UNL     1      19.715   1.098  48.106  1.00  0.00     0.217 HD
ENDBRANCH  18  21
BRANCH  19  23
HETATM   23  O2  UNL     1      20.731   1.440  50.136  1.00  0.00    -0.353 OA
HETATM   24  C14 UNL     1      20.894   1.022  51.474  1.00  0.00     0.210 C 
ENDBRANCH  19  23
ENDBRANCH   9  11
ENDBRANCH   7   9
TORSDOF 4
ENDMDL
MODEL 9
REMARK VINA RESULT:      -7.1      3.036      6.953
REMARK  4 active torsions:
REMARK  status: ('A' for Active; 'I' for Inactive)
REMARK    1  A    between atoms: C7_7  and  N1_8 
REMARK    2  A    between atoms: N1_8  and  C8_9 
REMARK    3  A    between atoms: C12_15  and  O1_16 
REMARK    4  A    between atoms: C13_17  and  O2_18 
ROOT
HETATM    1  C1  UNL     1      17.662   1.032  49.806  1.00  0.00     0.018 C 
HETATM    2  C2  UNL     1      18.675   1.254  50.427  1.00  0.00    -0.078 C 
HETATM    3  C3  UNL     1      19.885   1.508  51.157  1.00  0.00     0.019 A 
HETATM    4  C4  UNL     1      20.286   2.781  51.538  1.00  0.00     0.021 A 
HETATM    5  C5  UNL     1      21.469   2.938  52.241  1.00  0.00     0.004 A 
HETATM    6  C6  UNL     1      22.232   1.822  52.553  1.00  0.00     0.029 A 
HETATM    7  C7  UNL     1      21.890   0.540  52.205  1.00  0.00     0.035 A 
HETATM    8  C17 UNL     1      20.704   0.439  51.507  1.00  0.00     0.050 A 
ENDROOT
BRANCH   7   9
HETATM    9  N1  UNL     1      22.647  -0.596  52.512  1.00  0.00    -0.340 N 
HETATM   10  H5  UNL     1      22.377  -1.521  52.112  1.00  0.00     0.167 HD
BRANCH   9  11
HETATM   11  C8  UNL     1      23.786  -0.550  53.356  1.00  0.00     0.144 A 
HETATM   12  N2  UNL     1      24.068  -1.050  54.512  1.00  0.00    -0.210 NA
HETATM   13  C9  UNL     1      25.380  -0.526  54.610  1.00  0.00     0.161 A 
HETATM   14  N3  UNL     1      26.431  -0.455  55.335  1.00  0.00    -0.270 NA
HETATM   15  C16 UNL     1      25.117   0.061  53.307  1.00  0.00     0.060 A 
HETATM   16  C10 UNL     1      27.758   0.100  55.389  1.00  0.00     0.158 C 
HETATM   17  C11 UNL     1      28.529  -0.032  54.105  1.00  0.00     0.089 C 
HETATM   18  C12 UNL     1      28.224   1.065  53.130  1.00  0.00     0.078 C 
HETATM   19  C13 UNL     1      27.117   1.396  52.463  1.00  0.00     0.098 C 
HETATM   20  C15 UNL     1      25.756   0.826  52.411  1.00  0.00     0.058 C 
BRANCH  18  21
HETATM   21  O1  UNL     1      29.263   1.930  52.831  1.00  0.00    -0.362 OA
HETATM   22  H10 UNL     1      29.613   2.077  51.896  1.00  0.00     0.217 HD
ENDBRANCH  18  21
BRANCH  19  23
HETATM   23  O2  UNL     1      27.223   2.497  51.634  1.00  0.00    -0.353 OA
HETATM   24  C14 UNL     1      26.146   3.101  50.949  1.00  0.00     0.210 C 
ENDBRANCH  19  23
ENDBRANCH   9  11
ENDBRANCH   7   9
TORSDOF 4
ENDMDL
