MODEL 1
REMARK VINA RESULT:      -8.7      0.000      0.000
REMARK  5 active torsions:
REMARK  status: ('A' for Active; 'I' for Inactive)
REMARK    1  A    between atoms: N1_1  and  C1_2 
REMARK    2  A    between atoms: C6_8  and  C7_9 
REMARK    3  A    between atoms: C7_9  and  O1_10 
REMARK    4  A    between atoms: O1_10  and  C8_11 
REMARK    5  A    between atoms: N2_14  and  C11_15 
ROOT
HETATM    1  C8  UNL     1      23.254   3.626  51.287  1.00  0.00     0.090 A 
HETATM    2  C9  UNL     1      22.882   2.948  52.361  1.00  0.00     0.032 A 
HETATM    3  C10 UNL     1      23.757   2.013  53.071  1.00  0.00     0.158 A 
HETATM    4  N2  UNL     1      25.074   1.910  52.467  1.00  0.00    -0.351 N 
HETATM    5  C19 UNL     1      25.468   2.648  51.304  1.00  0.00     0.118 A 
HETATM    6  C20 UNL     1      24.598   3.467  50.741  1.00  0.00     0.082 A 
HETATM    7 CL1  UNL     1      25.156   4.336  49.318  1.00  0.00    -0.080 Cl
ENDROOT
BRANCH   1   8
HETATM    8  O1  UNL     1      22.454   4.532  50.572  1.00  0.00    -0.345 OA
BRANCH   8   9
HETATM    9  C7  UNL     1      21.991   5.738  51.189  1.00  0.00     0.216 C 
BRANCH   9  10
HETATM   10  C6  UNL     1      22.640   6.862  50.450  1.00  0.00    -0.005 A 
HETATM   11  C1  UNL     1      23.852   7.390  50.815  1.00  0.00     0.034 A 
HETATM   12  C2  UNL     1      24.370   8.439  50.058  1.00  0.00     0.032 A 
HETATM   13  C3  UNL     1      23.705   8.953  48.962  1.00  0.00     0.044 A 
HETATM   14  C4  UNL     1      22.483   8.429  48.585  1.00  0.00     0.117 A 
HETATM   15  F1  UNL     1      21.794   8.909  47.508  1.00  0.00    -0.206 F 
HETATM   16  C5  UNL     1      21.980   7.392  49.341  1.00  0.00     0.053 A 
BRANCH  11  17
HETATM   17  N1  UNL     1      24.543   6.855  51.954  1.00  0.00    -0.399 N 
HETATM   18  H1  UNL     1      25.219   7.649  52.137  1.00  0.00     0.156 HD
HETATM   19  H2  UNL     1      24.410   5.941  52.453  1.00  0.00     0.156 HD
ENDBRANCH  11  17
ENDBRANCH   9  10
ENDBRANCH   8   9
ENDBRANCH   1   8
BRANCH   4  20
HETATM   20  C11 UNL     1      26.045   1.038  53.038  1.00  0.00     0.068 C 
HETATM   21  C12 UNL     1      26.616   0.102  52.256  1.00  0.00     0.056 C 
HETATM   22  C13 UNL     1      26.972  -1.021  53.153  1.00  0.00     0.033 C 
HETATM   23  N3  UNL     1      26.606  -0.705  54.374  1.00  0.00    -0.253 NA
HETATM   24  C18 UNL     1      27.642  -2.280  52.702  1.00  0.00     0.059 C 
HETATM   25  C14 UNL     1      26.727   0.763  54.345  1.00  0.00     0.392 C 
HETATM   26  N4  UNL     1      28.164   1.006  54.250  1.00  0.00     0.114 N 
HETATM   27  C15 UNL     1      28.940  -0.158  54.631  1.00  0.00     0.273 C 
HETATM   28  H13 UNL     1      28.407   1.178  53.232  1.00  0.00     0.319 HD
HETATM   29  C16 UNL     1      29.567  -0.867  53.453  1.00  0.00     0.030 C 
HETATM   30  C17 UNL     1      29.040  -2.289  53.296  1.00  0.00     0.008 C 
ENDBRANCH   4  20
TORSDOF 5
ENDMDL
MODEL 2
REMARK VINA RESULT:      -8.7      1.857      2.064
REMARK  5 active torsions:
REMARK  status: ('A' for Active; 'I' for Inactive)
REMARK    1  A    between atoms: N1_1  and  C1_2 
REMARK    2  A    between atoms: C6_8  and  C7_9 
REMARK    3  A    between atoms: C7_9  and  O1_10 
REMARK    4  A    between atoms: O1_10  and  C8_11 
REMARK    5  A    between atoms: N2_14  and  C11_15 
ROOT
HETATM    1  C8  UNL     1      22.769   3.443  51.663  1.00  0.00     0.090 A 
HETATM    2  C9  UNL     1      23.485   3.915  52.672  1.00  0.00     0.032 A 
HETATM    3  C10 UNL     1      24.573   3.171  53.309  1.00  0.00     0.158 A 
HETATM    4  N2  UNL     1      24.780   1.862  52.715  1.00  0.00    -0.351 N 
HETATM    5  C19 UNL     1      24.000   1.360  51.623  1.00  0.00     0.118 A 
HETATM    6  C20 UNL     1      23.040   2.116  51.121  1.00  0.00     0.082 A 
HETATM    7 CL1  UNL     1      22.128   1.430  49.783  1.00  0.00    -0.080 Cl
ENDROOT
BRANCH   1   8
HETATM    8  O1  UNL     1      21.717   4.116  51.020  1.00  0.00    -0.345 OA
BRANCH   8   9
HETATM    9  C7  UNL     1      21.905   4.684  49.719  1.00  0.00     0.216 C 
BRANCH   9  10
HETATM   10  C6  UNL     1      23.106   5.566  49.817  1.00  0.00    -0.005 A 
HETATM   11  C1  UNL     1      23.113   6.735  50.533  1.00  0.00     0.034 A 
HETATM   12  C2  UNL     1      24.287   7.485  50.560  1.00  0.00     0.032 A 
HETATM   13  C3  UNL     1      25.429   7.088  49.893  1.00  0.00     0.044 A 
HETATM   14  C4  UNL     1      25.433   5.912  49.168  1.00  0.00     0.117 A 
HETATM   15  F1  UNL     1      26.542   5.484  48.494  1.00  0.00    -0.206 F 
HETATM   16  C5  UNL     1      24.267   5.178  49.149  1.00  0.00     0.053 A 
BRANCH  11  17
HETATM   17  N1  UNL     1      21.926   7.148  51.226  1.00  0.00    -0.399 N 
HETATM   18  H1  UNL     1      21.904   6.413  51.989  1.00  0.00     0.156 HD
HETATM   19  H2  UNL     1      21.274   7.946  51.028  1.00  0.00     0.156 HD
ENDBRANCH  11  17
ENDBRANCH   9  10
ENDBRANCH   8   9
ENDBRANCH   1   8
BRANCH   4  20
HETATM   20  C11 UNL     1      25.802   1.011  53.224  1.00  0.00     0.068 C 
HETATM   21  C12 UNL     1      26.440   0.184  52.374  1.00  0.00     0.056 C 
HETATM   22  C13 UNL     1      26.863  -0.985  53.178  1.00  0.00     0.033 C 
HETATM   23  N3  UNL     1      26.468  -0.798  54.416  1.00  0.00    -0.253 NA
HETATM   24  C18 UNL     1      27.619  -2.155  52.632  1.00  0.00     0.059 C 
HETATM   25  C14 UNL     1      26.491   0.673  54.512  1.00  0.00     0.392 C 
HETATM   26  N4  UNL     1      27.910   1.017  54.457  1.00  0.00     0.114 N 
HETATM   27  C15 UNL     1      28.758  -0.122  54.749  1.00  0.00     0.273 C 
HETATM   28  H13 UNL     1      28.148   1.289  53.459  1.00  0.00     0.319 HD
HETATM   29  C16 UNL     1      29.440  -0.687  53.524  1.00  0.00     0.030 C 
HETATM   30  C17 UNL     1      29.010  -2.122  53.242  1.00  0.00     0.008 C 
ENDBRANCH   4  20
TORSDOF 5
ENDMDL
MODEL 3
REMARK VINA RESULT:      -8.7      4.834      6.437
REMARK  5 active torsions:
REMARK  status: ('A' for Active; 'I' for Inactive)
REMARK    1  A    between atoms: N1_1  and  C1_2 
REMARK    2  A    between atoms: C6_8  and  C7_9 
REMARK    3  A    between atoms: C7_9  and  O1_10 
REMARK    4  A    between atoms: O1_10  and  C8_11 
REMARK    5  A    between atoms: N2_14  and  C11_15 
ROOT
HETATM    1  C8  UNL     1      21.760   1.274  52.082  1.00  0.00     0.090 A 
HETATM    2  C9  UNL     1      22.757   1.600  51.274  1.00  0.00     0.032 A 
HETATM    3  C10 UNL     1      24.168   1.397  51.607  1.00  0.00     0.158 A 
HETATM    4  N2  UNL     1      24.354   0.802  52.918  1.00  0.00    -0.351 N 
HETATM    5  C19 UNL     1      23.269   0.451  53.786  1.00  0.00     0.118 A 
HETATM    6  C20 UNL     1      22.031   0.678  53.386  1.00  0.00     0.082 A 
HETATM    7 CL1  UNL     1      20.754   0.221  54.507  1.00  0.00    -0.080 Cl
ENDROOT
BRANCH   1   8
HETATM    8  O1  UNL     1      20.394   1.448  51.809  1.00  0.00    -0.345 OA
BRANCH   8   9
HETATM    9  C7  UNL     1      19.818   0.921  50.609  1.00  0.00     0.216 C 
BRANCH   9  10
HETATM   10  C6  UNL     1      18.570   0.213  51.021  1.00  0.00    -0.005 A 
HETATM   11  C1  UNL     1      17.422   0.232  50.270  1.00  0.00     0.034 A 
HETATM   12  C2  UNL     1      16.311  -0.462  50.744  1.00  0.00     0.032 A 
HETATM   13  C3  UNL     1      16.334  -1.161  51.935  1.00  0.00     0.044 A 
HETATM   14  C4  UNL     1      17.485  -1.188  52.700  1.00  0.00     0.117 A 
HETATM   15  F1  UNL     1      17.548  -1.867  53.883  1.00  0.00    -0.206 F 
HETATM   16  C5  UNL     1      18.577  -0.498  52.221  1.00  0.00     0.053 A 
BRANCH  11  17
HETATM   17  N1  UNL     1      17.398   0.959  49.032  1.00  0.00    -0.399 N 
HETATM   18  H1  UNL     1      16.560   0.500  48.576  1.00  0.00     0.156 HD
HETATM   19  H2  UNL     1      18.032   1.722  48.688  1.00  0.00     0.156 HD
ENDBRANCH  11  17
ENDBRANCH   9  10
ENDBRANCH   8   9
ENDBRANCH   1   8
BRANCH   4  20
HETATM   20  C11 UNL     1      25.671   0.542  53.394  1.00  0.00     0.068 C 
HETATM   21  C12 UNL     1      26.521  -0.144  52.606  1.00  0.00     0.056 C 
HETATM   22  C13 UNL     1      27.446  -0.853  53.519  1.00  0.00     0.033 C 
HETATM   23  N3  UNL     1      27.108  -0.562  54.755  1.00  0.00    -0.253 NA
HETATM   24  C18 UNL     1      28.567  -1.734  53.067  1.00  0.00     0.059 C 
HETATM   25  C14 UNL     1      26.538   0.787  54.593  1.00  0.00     0.392 C 
HETATM   26  N4  UNL     1      27.684   1.626  54.252  1.00  0.00     0.114 N 
HETATM   27  C15 UNL     1      28.943   0.993  54.594  1.00  0.00     0.273 C 
HETATM   28  H13 UNL     1      27.711   1.741  53.197  1.00  0.00     0.319 HD
HETATM   29  C16 UNL     1      29.696   0.476  53.390  1.00  0.00     0.030 C 
HETATM   30  C17 UNL     1      29.867  -1.038  53.430  1.00  0.00     0.008 C 
ENDBRANCH   4  20
TORSDOF 5
ENDMDL
MODEL 4
REMARK VINA RESULT:      -8.7      4.957      9.116
REMARK  5 active torsions:
REMARK  status: ('A' for Active; 'I' for Inactive)
REMARK    1  A    between atoms: N1_1  and  C1_2 
REMARK    2  A    between atoms: C6_8  and  C7_9 
REMARK    3  A    between atoms: C7_9  and  O1_10 
REMARK    4  A    between atoms: O1_10  and  C8_11 
REMARK    5  A    between atoms: N2_14  and  C11_15 
ROOT
HETATM    1  C8  UNL     1      23.838  -0.162  53.319  1.00  0.00     0.090 A 
HETATM    2  C9  UNL     1      22.816  -0.842  53.816  1.00  0.00     0.032 A 
HETATM    3  C10 UNL     1      21.431  -0.654  53.380  1.00  0.00     0.158 A 
HETATM    4  N2  UNL     1      21.301   0.359  52.348  1.00  0.00    -0.351 N 
HETATM    5  C19 UNL     1      22.412   1.089  51.815  1.00  0.00     0.118 A 
HETATM    6  C20 UNL     1      23.623   0.840  52.280  1.00  0.00     0.082 A 
HETATM    7 CL1  UNL     1      24.935   1.778  51.577  1.00  0.00    -0.080 Cl
ENDROOT
BRANCH   1   8
HETATM    8  O1  UNL     1      25.181  -0.304  53.702  1.00  0.00    -0.345 OA
BRANCH   8   9
HETATM    9  C7  UNL     1      26.028  -1.256  53.047  1.00  0.00     0.216 C 
BRANCH   9  10
HETATM   10  C6  UNL     1      27.428  -0.777  53.249  1.00  0.00    -0.005 A 
HETATM   11  C1  UNL     1      28.509  -1.621  53.247  1.00  0.00     0.034 A 
HETATM   12  C2  UNL     1      29.774  -1.073  53.444  1.00  0.00     0.032 A 
HETATM   13  C3  UNL     1      29.967   0.280  53.639  1.00  0.00     0.044 A 
HETATM   14  C4  UNL     1      28.886   1.140  53.643  1.00  0.00     0.117 A 
HETATM   15  F1  UNL     1      29.034   2.485  53.832  1.00  0.00    -0.206 F 
HETATM   16  C5  UNL     1      27.639   0.587  53.447  1.00  0.00     0.053 A 
BRANCH  11  17
HETATM   17  N1  UNL     1      28.308  -3.029  53.044  1.00  0.00    -0.399 N 
HETATM   18  H1  UNL     1      27.912  -3.008  52.062  1.00  0.00     0.156 HD
HETATM   19  H2  UNL     1      28.499  -3.835  53.688  1.00  0.00     0.156 HD
ENDBRANCH  11  17
ENDBRANCH   9  10
ENDBRANCH   8   9
ENDBRANCH   1   8
BRANCH   4  20
HETATM   20  C11 UNL     1      20.014   0.663  51.818  1.00  0.00     0.068 C 
HETATM   21  C12 UNL     1      18.954  -0.053  52.238  1.00  0.00     0.056 C 
HETATM   22  C13 UNL     1      17.988  -0.054  51.115  1.00  0.00     0.033 C 
HETATM   23  N3  UNL     1      18.508   0.635  50.125  1.00  0.00    -0.253 NA
HETATM   24  C18 UNL     1      16.655  -0.730  51.151  1.00  0.00     0.059 C 
HETATM   25  C14 UNL     1      19.353   1.600  50.851  1.00  0.00     0.392 C 
HETATM   26  N4  UNL     1      18.402   2.475  51.531  1.00  0.00     0.114 N 
HETATM   27  C15 UNL     1      17.073   2.384  50.959  1.00  0.00     0.273 C 
HETATM   28  H13 UNL     1      18.295   2.138  52.532  1.00  0.00     0.319 HD
HETATM   29  C16 UNL     1      16.103   1.616  51.827  1.00  0.00     0.030 C 
HETATM   30  C17 UNL     1      15.593   0.356  51.136  1.00  0.00     0.008 C 
ENDBRANCH   4  20
TORSDOF 5
ENDMDL
MODEL 5
REMARK VINA RESULT:      -8.6      3.422      8.572
REMARK  5 active torsions:
REMARK  status: ('A' for Active; 'I' for Inactive)
REMARK    1  A    between atoms: N1_1  and  C1_2 
REMARK    2  A    between atoms: C6_8  and  C7_9 
REMARK    3  A    between atoms: C7_9  and  O1_10 
REMARK    4  A    between atoms: O1_10  and  C8_11 
REMARK    5  A    between atoms: N2_14  and  C11_15 
ROOT
HETATM    1  C8  UNL     1      25.388   0.980  52.036  1.00  0.00     0.090 A 
HETATM    2  C9  UNL     1      26.441   1.391  51.347  1.00  0.00     0.032 A 
HETATM    3  C10 UNL     1      26.513   2.690  50.677  1.00  0.00     0.158 A 
HETATM    4  N2  UNL     1      25.306   3.477  50.849  1.00  0.00    -0.351 N 
HETATM    5  C19 UNL     1      24.170   3.026  51.598  1.00  0.00     0.118 A 
HETATM    6  C20 UNL     1      24.211   1.833  52.164  1.00  0.00     0.082 A 
HETATM    7 CL1  UNL     1      22.779   1.350  53.064  1.00  0.00    -0.080 Cl
ENDROOT
BRANCH   1   8
HETATM    8  O1  UNL     1      25.270  -0.254  52.696  1.00  0.00    -0.345 OA
BRANCH   8   9
HETATM    9  C7  UNL     1      25.784  -0.423  54.021  1.00  0.00     0.216 C 
BRANCH   9  10
HETATM   10  C6  UNL     1      27.271  -0.353  53.905  1.00  0.00    -0.005 A 
HETATM   11  C1  UNL     1      28.020  -1.356  53.344  1.00  0.00     0.034 A 
HETATM   12  C2  UNL     1      29.402  -1.192  53.284  1.00  0.00     0.032 A 
HETATM   13  C3  UNL     1      30.031  -0.061  53.768  1.00  0.00     0.044 A 
HETATM   14  C4  UNL     1      29.286   0.955  54.336  1.00  0.00     0.117 A 
HETATM   15  F1  UNL     1      29.869   2.089  54.826  1.00  0.00    -0.206 F 
HETATM   16  C5  UNL     1      27.919   0.782  54.389  1.00  0.00     0.053 A 
BRANCH  11  17
HETATM   17  N1  UNL     1      27.367  -2.531  52.840  1.00  0.00    -0.399 N 
HETATM   18  H1  UNL     1      26.361  -2.204  52.886  1.00  0.00     0.156 HD
HETATM   19  H2  UNL     1      27.775  -3.444  52.522  1.00  0.00     0.156 HD
ENDBRANCH  11  17
ENDBRANCH   9  10
ENDBRANCH   8   9
ENDBRANCH   1   8
BRANCH   4  20
HETATM   20  C11 UNL     1      25.215   4.769  50.255  1.00  0.00     0.068 C 
HETATM   21  C12 UNL     1      25.889   5.006  49.113  1.00  0.00     0.056 C 
HETATM   22  C13 UNL     1      26.206   6.452  49.117  1.00  0.00     0.033 C 
HETATM   23  N3  UNL     1      25.722   6.977  50.220  1.00  0.00    -0.253 NA
HETATM   24  C18 UNL     1      26.946   7.156  48.025  1.00  0.00     0.059 C 
HETATM   25  C14 UNL     1      24.565   6.102  50.477  1.00  0.00     0.392 C 
HETATM   26  N4  UNL     1      23.626   6.416  49.403  1.00  0.00     0.114 N 
HETATM   27  C15 UNL     1      23.933   7.682  48.766  1.00  0.00     0.273 C 
HETATM   28  H13 UNL     1      23.738   5.688  48.639  1.00  0.00     0.319 HD
HETATM   29  C16 UNL     1      24.552   7.524  47.396  1.00  0.00     0.030 C 
HETATM   30  C17 UNL     1      25.965   8.092  47.340  1.00  0.00     0.008 C 
ENDBRANCH   4  20
TORSDOF 5
ENDMDL
MODEL 6
REMARK VINA RESULT:      -8.5      3.522      4.046
REMARK  5 active torsions:
REMARK  status: ('A' for Active; 'I' for Inactive)
REMARK    1  A    between atoms: N1_1  and  C1_2 
REMARK    2  A    between atoms: C6_8  and  C7_9 
REMARK    3  A    between atoms: C7_9  and  O1_10 
REMARK    4  A    between atoms: O1_10  and  C8_11 
REMARK    5  A    between atoms: N2_14  and  C11_15 
ROOT
HETATM    1  C8  UNL     1      21.627   1.049  52.371  1.00  0.00     0.090 A 
HETATM    2  C9  UNL     1      22.016  -0.185  52.650  1.00  0.00     0.032 A 
HETATM    3  C10 UNL     1      23.371  -0.526  53.087  1.00  0.00     0.158 A 
HETATM    4  N2  UNL     1      24.240   0.634  53.179  1.00  0.00    -0.351 N 
HETATM    5  C19 UNL     1      23.809   1.967  52.876  1.00  0.00     0.118 A 
HETATM    6  C20 UNL     1      22.561   2.163  52.490  1.00  0.00     0.082 A 
HETATM    7 CL1  UNL     1      22.109   3.826  52.135  1.00  0.00    -0.080 Cl
ENDROOT
BRANCH   1   8
HETATM    8  O1  UNL     1      20.342   1.427  51.949  1.00  0.00    -0.345 OA
BRANCH   8   9
HETATM    9  C7  UNL     1      19.811   0.947  50.710  1.00  0.00     0.216 C 
BRANCH   9  10
HETATM   10  C6  UNL     1      20.363   1.837  49.646  1.00  0.00    -0.005 A 
HETATM   11  C1  UNL     1      19.897   3.108  49.425  1.00  0.00     0.034 A 
HETATM   12  C2  UNL     1      20.480   3.857  48.405  1.00  0.00     0.032 A 
HETATM   13  C3  UNL     1      21.501   3.361  47.620  1.00  0.00     0.044 A 
HETATM   14  C4  UNL     1      21.979   2.082  47.833  1.00  0.00     0.117 A 
HETATM   15  F1  UNL     1      22.988   1.554  47.079  1.00  0.00    -0.206 F 
HETATM   16  C5  UNL     1      21.395   1.350  48.845  1.00  0.00     0.053 A 
BRANCH  11  17
HETATM   17  N1  UNL     1      18.834   3.624  50.242  1.00  0.00    -0.399 N 
HETATM   18  H1  UNL     1      18.754   2.834  50.942  1.00  0.00     0.156 HD
HETATM   19  H2  UNL     1      18.298   4.523  50.160  1.00  0.00     0.156 HD
ENDBRANCH  11  17
ENDBRANCH   9  10
ENDBRANCH   8   9
ENDBRANCH   1   8
BRANCH   4  20
HETATM   20  C11 UNL     1      25.594   0.470  53.589  1.00  0.00     0.068 C 
HETATM   21  C12 UNL     1      26.438  -0.201  52.783  1.00  0.00     0.056 C 
HETATM   22  C13 UNL     1      27.452  -0.815  53.671  1.00  0.00     0.033 C 
HETATM   23  N3  UNL     1      27.165  -0.488  54.911  1.00  0.00    -0.253 NA
HETATM   24  C18 UNL     1      28.597  -1.650  53.193  1.00  0.00     0.059 C 
HETATM   25  C14 UNL     1      26.509   0.818  54.725  1.00  0.00     0.392 C 
HETATM   26  N4  UNL     1      27.583   1.704  54.284  1.00  0.00     0.114 N 
HETATM   27  C15 UNL     1      28.894   1.160  54.581  1.00  0.00     0.273 C 
HETATM   28  H13 UNL     1      27.546   1.773  53.226  1.00  0.00     0.319 HD
HETATM   29  C16 UNL     1      29.610   0.633  53.358  1.00  0.00     0.030 C 
HETATM   30  C17 UNL     1      29.872  -0.866  53.452  1.00  0.00     0.008 C 
ENDBRANCH   4  20
TORSDOF 5
ENDMDL
MODEL 7
REMARK VINA RESULT:      -8.3      2.523      3.124
REMARK  5 active torsions:
REMARK  status: ('A' for Active; 'I' for Inactive)
REMARK    1  A    between atoms: N1_1  and  C1_2 
REMARK    2  A    between atoms: C6_8  and  C7_9 
REMARK    3  A    between atoms: C7_9  and  O1_10 
REMARK    4  A    between atoms: O1_10  and  C8_11 
REMARK    5  A    between atoms: N2_14  and  C11_15 
ROOT
HETATM    1  C8  UNL     1      23.933   4.356  51.454  1.00  0.00     0.090 A 
HETATM    2  C9  UNL     1      23.620   3.875  52.647  1.00  0.00     0.032 A 
HETATM    3  C10 UNL     1      24.370   2.808  53.312  1.00  0.00     0.158 A 
HETATM    4  N2  UNL     1      25.491   2.334  52.520  1.00  0.00    -0.351 N 
HETATM    5  C19 UNL     1      25.824   2.861  51.230  1.00  0.00     0.118 A 
HETATM    6  C20 UNL     1      25.079   3.826  50.722  1.00  0.00     0.082 A 
HETATM    7 CL1  UNL     1      25.550   4.418  49.134  1.00  0.00    -0.080 Cl
ENDROOT
BRANCH   1   8
HETATM    8  O1  UNL     1      23.248   5.376  50.776  1.00  0.00    -0.345 OA
BRANCH   8   9
HETATM    9  C7  UNL     1      21.883   5.200  50.382  1.00  0.00     0.216 C 
BRANCH   9  10
HETATM   10  C6  UNL     1      21.910   4.376  49.137  1.00  0.00    -0.005 A 
HETATM   11  C1  UNL     1      22.158   4.909  47.898  1.00  0.00     0.034 A 
HETATM   12  C2  UNL     1      22.160   4.053  46.799  1.00  0.00     0.032 A 
HETATM   13  C3  UNL     1      21.922   2.698  46.922  1.00  0.00     0.044 A 
HETATM   14  C4  UNL     1      21.671   2.149  48.165  1.00  0.00     0.117 A 
HETATM   15  F1  UNL     1      21.430   0.815  48.330  1.00  0.00    -0.206 F 
HETATM   16  C5  UNL     1      21.671   3.006  49.245  1.00  0.00     0.053 A 
BRANCH  11  17
HETATM   17  N1  UNL     1      22.406   6.318  47.771  1.00  0.00    -0.399 N 
HETATM   18  H1  UNL     1      21.596   6.581  47.141  1.00  0.00     0.156 HD
HETATM   19  H2  UNL     1      23.169   6.907  48.185  1.00  0.00     0.156 HD
ENDBRANCH  11  17
ENDBRANCH   9  10
ENDBRANCH   8   9
ENDBRANCH   1   8
BRANCH   4  20
HETATM   20  C11 UNL     1      26.321   1.293  53.026  1.00  0.00     0.068 C 
HETATM   21  C12 UNL     1      26.705   0.307  52.194  1.00  0.00     0.056 C 
HETATM   22  C13 UNL     1      26.897  -0.893  53.040  1.00  0.00     0.033 C 
HETATM   23  N3  UNL     1      26.628  -0.567  54.283  1.00  0.00    -0.253 NA
HETATM   24  C18 UNL     1      27.335  -2.227  52.524  1.00  0.00     0.059 C 
HETATM   25  C14 UNL     1      26.990   0.861  54.298  1.00  0.00     0.392 C 
HETATM   26  N4  UNL     1      28.444   0.867  54.157  1.00  0.00     0.114 N 
HETATM   27  C15 UNL     1      29.027  -0.422  54.471  1.00  0.00     0.273 C 
HETATM   28  H13 UNL     1      28.680   1.035  53.136  1.00  0.00     0.319 HD
HETATM   29  C16 UNL     1      29.490  -1.180  53.248  1.00  0.00     0.030 C 
HETATM   30  C17 UNL     1      28.731  -2.489  53.065  1.00  0.00     0.008 C 
ENDBRANCH   4  20
TORSDOF 5
ENDMDL
MODEL 8
REMARK VINA RESULT:      -8.3      4.105      8.619
REMARK  5 active torsions:
REMARK  status: ('A' for Active; 'I' for Inactive)
REMARK    1  A    between atoms: N1_1  and  C1_2 
REMARK    2  A    between atoms: C6_8  and  C7_9 
REMARK    3  A    between atoms: C7_9  and  O1_10 
REMARK    4  A    between atoms: O1_10  and  C8_11 
REMARK    5  A    between atoms: N2_14  and  C11_15 
ROOT
HETATM    1  C8  UNL     1      25.172   2.841  50.991  1.00  0.00     0.090 A 
HETATM    2  C9  UNL     1      26.278   2.715  50.273  1.00  0.00     0.032 A 
HETATM    3  C10 UNL     1      26.864   3.806  49.493  1.00  0.00     0.158 A 
HETATM    4  N2  UNL     1      26.103   5.038  49.591  1.00  0.00    -0.351 N 
HETATM    5  C19 UNL     1      24.907   5.166  50.372  1.00  0.00     0.118 A 
HETATM    6  C20 UNL     1      24.464   4.116  51.039  1.00  0.00     0.082 A 
HETATM    7 CL1  UNL     1      22.992   4.352  51.972  1.00  0.00    -0.080 Cl
ENDROOT
BRANCH   1   8
HETATM    8  O1  UNL     1      24.571   1.828  51.754  1.00  0.00    -0.345 OA
BRANCH   8   9
HETATM    9  C7  UNL     1      24.907   1.660  53.136  1.00  0.00     0.216 C 
BRANCH   9  10
HETATM   10  C6  UNL     1      26.129   0.803  53.167  1.00  0.00    -0.005 A 
HETATM   11  C1  UNL     1      27.346   1.259  53.607  1.00  0.00     0.034 A 
HETATM   12  C2  UNL     1      28.424   0.378  53.595  1.00  0.00     0.032 A 
HETATM   13  C3  UNL     1      28.304  -0.927  53.159  1.00  0.00     0.044 A 
HETATM   14  C4  UNL     1      27.083  -1.398  52.713  1.00  0.00     0.117 A 
HETATM   15  F1  UNL     1      26.922  -2.681  52.273  1.00  0.00    -0.206 F 
HETATM   16  C5  UNL     1      26.023  -0.517  52.729  1.00  0.00     0.053 A 
BRANCH  11  17
HETATM   17  N1  UNL     1      27.471   2.615  54.061  1.00  0.00    -0.399 N 
HETATM   18  H1  UNL     1      27.638   2.440  55.091  1.00  0.00     0.156 HD
HETATM   19  H2  UNL     1      27.412   3.514  53.521  1.00  0.00     0.156 HD
ENDBRANCH  11  17
ENDBRANCH   9  10
ENDBRANCH   8   9
ENDBRANCH   1   8
BRANCH   4  20
HETATM   20  C11 UNL     1      26.541   6.196  48.887  1.00  0.00     0.068 C 
HETATM   21  C12 UNL     1      27.717   6.150  48.232  1.00  0.00     0.056 C 
HETATM   22  C13 UNL     1      28.237   7.537  48.227  1.00  0.00     0.033 C 
HETATM   23  N3  UNL     1      27.376   8.302  48.856  1.00  0.00    -0.253 NA
HETATM   24  C18 UNL     1      29.527   7.950  47.593  1.00  0.00     0.059 C 
HETATM   25  C14 UNL     1      26.108   7.601  48.587  1.00  0.00     0.392 C 
HETATM   26  N4  UNL     1      25.887   7.789  47.156  1.00  0.00     0.114 N 
HETATM   27  C15 UNL     1      26.681   8.878  46.621  1.00  0.00     0.273 C 
HETATM   28  H13 UNL     1      26.229   6.923  46.648  1.00  0.00     0.319 HD
HETATM   29  C16 UNL     1      27.852   8.408  45.790  1.00  0.00     0.030 C 
HETATM   30  C17 UNL     1      29.187   8.824  46.398  1.00  0.00     0.008 C 
ENDBRANCH   4  20
TORSDOF 5
ENDMDL
MODEL 9
REMARK VINA RESULT:      -8.2      3.684      8.660
REMARK  5 active torsions:
REMARK  status: ('A' for Active; 'I' for Inactive)
REMARK    1  A    between atoms: N1_1  and  C1_2 
REMARK    2  A    between atoms: C6_8  and  C7_9 
REMARK    3  A    between atoms: C7_9  and  O1_10 
REMARK    4  A    between atoms: O1_10  and  C8_11 
REMARK    5  A    between atoms: N2_14  and  C11_15 
ROOT
HETATM    1  C8  UNL     1      25.021   2.586  51.076  1.00  0.00     0.090 A 
HETATM    2  C9  UNL     1      26.141   2.587  50.369  1.00  0.00     0.032 A 
HETATM    3  C10 UNL     1      26.687   3.781  49.721  1.00  0.00     0.158 A 
HETATM    4  N2  UNL     1      25.868   4.960  49.936  1.00  0.00    -0.351 N 
HETATM    5  C19 UNL     1      24.658   4.950  50.703  1.00  0.00     0.118 A 
HETATM    6  C20 UNL     1      24.254   3.816  51.247  1.00  0.00     0.082 A 
HETATM    7 CL1  UNL     1      22.760   3.885  52.172  1.00  0.00    -0.080 Cl
ENDROOT
BRANCH   1   8
HETATM    8  O1  UNL     1      24.457   1.471  51.716  1.00  0.00    -0.345 OA
BRANCH   8   9
HETATM    9  C7  UNL     1      24.705   1.225  53.104  1.00  0.00     0.216 C 
BRANCH   9  10
HETATM   10  C6  UNL     1      26.021   0.523  53.174  1.00  0.00    -0.005 A 
HETATM   11  C1  UNL     1      27.165   1.131  53.625  1.00  0.00     0.034 A 
HETATM   12  C2  UNL     1      28.342   0.386  53.651  1.00  0.00     0.032 A 
HETATM   13  C3  UNL     1      28.388  -0.932  53.240  1.00  0.00     0.044 A 
HETATM   14  C4  UNL     1      27.242  -1.555  52.784  1.00  0.00     0.117 A 
HETATM   15  F1  UNL     1      27.245  -2.856  52.370  1.00  0.00    -0.206 F 
HETATM   16  C5  UNL     1      26.083  -0.809  52.764  1.00  0.00     0.053 A 
BRANCH  11  17
HETATM   17  N1  UNL     1      27.117   2.501  54.051  1.00  0.00    -0.399 N 
HETATM   18  H1  UNL     1      26.103   2.554  54.353  1.00  0.00     0.156 HD
HETATM   19  H2  UNL     1      27.871   3.230  54.058  1.00  0.00     0.156 HD
ENDBRANCH  11  17
ENDBRANCH   9  10
ENDBRANCH   8   9
ENDBRANCH   1   8
BRANCH   4  20
HETATM   20  C11 UNL     1      26.262   6.206  49.368  1.00  0.00     0.068 C 
HETATM   21  C12 UNL     1      25.586   7.318  49.712  1.00  0.00     0.056 C 
HETATM   22  C13 UNL     1      25.683   8.233  48.552  1.00  0.00     0.033 C 
HETATM   23  N3  UNL     1      26.385   7.637  47.615  1.00  0.00    -0.253 NA
HETATM   24  C18 UNL     1      25.078   9.599  48.503  1.00  0.00     0.059 C 
HETATM   25  C14 UNL     1      27.272   6.775  48.417  1.00  0.00     0.392 C 
HETATM   26  N4  UNL     1      28.167   7.709  49.096  1.00  0.00     0.114 N 
HETATM   27  C15 UNL     1      28.170   9.015  48.466  1.00  0.00     0.273 C 
HETATM   28  H13 UNL     1      27.794   7.876  50.075  1.00  0.00     0.319 HD
HETATM   29  C16 UNL     1      27.419  10.060  49.259  1.00  0.00     0.030 C 
HETATM   30  C17 UNL     1      26.218  10.603  48.493  1.00  0.00     0.008 C 
ENDBRANCH   4  20
TORSDOF 5
ENDMDL
