MODEL 1
REMARK VINA RESULT:      -7.8      0.000      0.000
REMARK  3 active torsions:
REMARK  status: ('A' for Active; 'I' for Inactive)
REMARK    1  A    between atoms: O1_2  and  C2_3 
REMARK    2  A    between atoms: C5_6  and  N1_7 
REMARK    3  A    between atoms: N1_7  and  C6_8 
ROOT
HETATM    1  C2  UNL     1      21.733  -0.551  54.176  1.00  0.00     0.185 C 
HETATM    2  C3  UNL     1      22.869  -0.095  53.618  1.00  0.00     0.080 C 
HETATM    3  C4  UNL     1      23.000   0.801  52.465  1.00  0.00     0.024 A 
HETATM    4  C5  UNL     1      24.220   1.449  52.432  1.00  0.00     0.046 A 
HETATM    5  C12 UNL     1      24.434   2.319  51.357  1.00  0.00     0.049 A 
HETATM    6  C13 UNL     1      23.489   2.530  50.375  1.00  0.00     0.119 A 
HETATM    7  N2  UNL     1      22.328   1.860  50.483  1.00  0.00    -0.260 NA
HETATM    8  C14 UNL     1      22.029   1.004  51.476  1.00  0.00     0.070 A 
HETATM    9  C15 UNL     1      20.696   0.400  51.368  1.00  0.00     0.057 C 
HETATM   10  C16 UNL     1      20.020  -0.140  52.395  1.00  0.00     0.147 C 
HETATM   11  O2  UNL     1      20.433  -0.237  53.736  1.00  0.00    -0.300 OA
ENDROOT
BRANCH   4  12
HETATM   12  N1  UNL     1      25.204   1.242  53.436  1.00  0.00    -0.355 N 
HETATM   13  H5  UNL     1      24.649   1.266  54.318  1.00  0.00     0.166 HD
BRANCH  12  14
HETATM   14  C6  UNL     1      26.610   1.036  53.459  1.00  0.00     0.033 A 
HETATM   15  C7  UNL     1      27.435   2.134  53.577  1.00  0.00     0.029 A 
HETATM   16  C8  UNL     1      28.777   1.853  53.597  1.00  0.00     0.004 A 
HETATM   17  C9  UNL     1      29.368   0.609  53.512  1.00  0.00     0.019 A 
HETATM   18  C10 UNL     1      28.512  -0.456  53.396  1.00  0.00     0.013 A 
HETATM   19 BR1  UNL     1      29.220  -2.227  53.272  1.00  0.00    -0.051 Br
HETATM   20  C11 UNL     1      27.140  -0.234  53.370  1.00  0.00     0.048 A 
ENDBRANCH  12  14
ENDBRANCH   4  12
BRANCH   1  21
HETATM   21  O1  UNL     1      22.025  -1.381  55.254  1.00  0.00    -0.335 OA
HETATM   22  C1  UNL     1      23.400  -1.440  55.622  1.00  0.00     0.212 C 
ENDBRANCH   1  21
TORSDOF 3
ENDMDL
MODEL 2
REMARK VINA RESULT:      -7.7      1.680      3.276
REMARK  3 active torsions:
REMARK  status: ('A' for Active; 'I' for Inactive)
REMARK    1  A    between atoms: O1_2  and  C2_3 
REMARK    2  A    between atoms: C5_6  and  N1_7 
REMARK    3  A    between atoms: N1_7  and  C6_8 
ROOT
HETATM    1  C2  UNL     1      21.323   0.926  51.079  1.00  0.00     0.185 C 
HETATM    2  C3  UNL     1      22.366   0.853  51.925  1.00  0.00     0.080 C 
HETATM    3  C4  UNL     1      22.480   0.031  53.134  1.00  0.00     0.024 A 
HETATM    4  C5  UNL     1      23.792  -0.189  53.505  1.00  0.00     0.046 A 
HETATM    5  C12 UNL     1      23.994  -0.959  54.656  1.00  0.00     0.049 A 
HETATM    6  C13 UNL     1      22.949  -1.477  55.393  1.00  0.00     0.119 A 
HETATM    7  N2  UNL     1      21.702  -1.216  54.962  1.00  0.00    -0.260 NA
HETATM    8  C14 UNL     1      21.407  -0.488  53.870  1.00  0.00     0.070 A 
HETATM    9  C15 UNL     1      19.970  -0.349  53.611  1.00  0.00     0.057 C 
HETATM   10  C16 UNL     1      19.438  -0.041  52.416  1.00  0.00     0.147 C 
HETATM   11  O2  UNL     1      20.122   0.203  51.212  1.00  0.00    -0.300 OA
ENDROOT
BRANCH   4  12
HETATM   12  N1  UNL     1      24.879   0.338  52.757  1.00  0.00    -0.355 N 
HETATM   13  H5  UNL     1      24.471   0.466  51.807  1.00  0.00     0.166 HD
BRANCH  12  14
HETATM   14  C6  UNL     1      26.233   0.678  53.026  1.00  0.00     0.033 A 
HETATM   15  C7  UNL     1      26.567   2.010  53.147  1.00  0.00     0.029 A 
HETATM   16  C8  UNL     1      27.889   2.256  53.412  1.00  0.00     0.004 A 
HETATM   17  C9  UNL     1      28.895   1.324  53.565  1.00  0.00     0.019 A 
HETATM   18  C10 UNL     1      28.521   0.011  53.438  1.00  0.00     0.013 A 
HETATM   19 BR1  UNL     1      29.831  -1.367  53.632  1.00  0.00    -0.051 Br
HETATM   20  C11 UNL     1      27.194  -0.301  53.169  1.00  0.00     0.048 A 
ENDBRANCH  12  14
ENDBRANCH   4  12
BRANCH   1  21
HETATM   21  O1  UNL     1      21.599   1.820  50.049  1.00  0.00    -0.335 OA
HETATM   22  C1  UNL     1      22.823   2.538  50.178  1.00  0.00     0.212 C 
ENDBRANCH   1  21
TORSDOF 3
ENDMDL
MODEL 3
REMARK VINA RESULT:      -7.6      3.765      6.884
REMARK  3 active torsions:
REMARK  status: ('A' for Active; 'I' for Inactive)
REMARK    1  A    between atoms: O1_2  and  C2_3 
REMARK    2  A    between atoms: C5_6  and  N1_7 
REMARK    3  A    between atoms: N1_7  and  C6_8 
ROOT
HETATM    1  C2  UNL     1      27.160   2.266  51.953  1.00  0.00     0.185 C 
HETATM    2  C3  UNL     1      26.101   1.442  52.046  1.00  0.00     0.080 C 
HETATM    3  C4  UNL     1      25.737   0.578  53.173  1.00  0.00     0.024 A 
HETATM    4  C5  UNL     1      24.399   0.237  53.171  1.00  0.00     0.046 A 
HETATM    5  C12 UNL     1      23.966  -0.595  54.209  1.00  0.00     0.049 A 
HETATM    6  C13 UNL     1      24.817  -1.059  55.191  1.00  0.00     0.119 A 
HETATM    7  N2  UNL     1      26.105  -0.679  55.119  1.00  0.00    -0.260 NA
HETATM    8  C14 UNL     1      26.615   0.116  54.162  1.00  0.00     0.070 A 
HETATM    9  C15 UNL     1      28.050   0.385  54.307  1.00  0.00     0.057 C 
HETATM   10  C16 UNL     1      28.688   1.432  53.755  1.00  0.00     0.147 C 
HETATM   11  O2  UNL     1      28.134   2.446  52.954  1.00  0.00    -0.300 OA
ENDROOT
BRANCH   4  12
HETATM   12  N1  UNL     1      23.509   0.706  52.167  1.00  0.00    -0.355 N 
HETATM   13  H5  UNL     1      24.046   0.553  51.287  1.00  0.00     0.166 HD
BRANCH  12  14
HETATM   14  C6  UNL     1      22.203   1.268  52.142  1.00  0.00     0.033 A 
HETATM   15  C7  UNL     1      22.067   2.628  52.323  1.00  0.00     0.029 A 
HETATM   16  C8  UNL     1      20.778   3.093  52.280  1.00  0.00     0.004 A 
HETATM   17  C9  UNL     1      19.632   2.352  52.079  1.00  0.00     0.019 A 
HETATM   18  C10 UNL     1      19.811   1.004  51.904  1.00  0.00     0.013 A 
HETATM   19 BR1  UNL     1      18.293  -0.121  51.617  1.00  0.00    -0.051 Br
HETATM   20  C11 UNL     1      21.095   0.473  51.937  1.00  0.00     0.048 A 
ENDBRANCH  12  14
ENDBRANCH   4  12
BRANCH   1  21
HETATM   21  O1  UNL     1      27.159   2.917  50.724  1.00  0.00    -0.335 OA
HETATM   22  C1  UNL     1      25.874   3.289  50.234  1.00  0.00     0.212 C 
ENDBRANCH   1  21
TORSDOF 3
ENDMDL
MODEL 4
REMARK VINA RESULT:      -7.6      3.078      4.968
REMARK  3 active torsions:
REMARK  status: ('A' for Active; 'I' for Inactive)
REMARK    1  A    between atoms: O1_2  and  C2_3 
REMARK    2  A    between atoms: C5_6  and  N1_7 
REMARK    3  A    between atoms: N1_7  and  C6_8 
ROOT
HETATM    1  C2  UNL     1      22.155   0.223  53.616  1.00  0.00     0.185 C 
HETATM    2  C3  UNL     1      23.243   0.814  53.090  1.00  0.00     0.080 C 
HETATM    3  C4  UNL     1      24.634   0.358  53.171  1.00  0.00     0.024 A 
HETATM    4  C5  UNL     1      25.424   0.885  52.167  1.00  0.00     0.046 A 
HETATM    5  C12 UNL     1      26.772   0.509  52.174  1.00  0.00     0.049 A 
HETATM    6  C13 UNL     1      27.300  -0.342  53.122  1.00  0.00     0.119 A 
HETATM    7  N2  UNL     1      26.461  -0.811  54.064  1.00  0.00    -0.260 NA
HETATM    8  C14 UNL     1      25.153  -0.508  54.142  1.00  0.00     0.070 A 
HETATM    9  C15 UNL     1      24.454  -1.149  55.260  1.00  0.00     0.057 C 
HETATM   10  C16 UNL     1      23.125  -1.338  55.319  1.00  0.00     0.147 C 
HETATM   11  O2  UNL     1      22.165  -0.974  54.358  1.00  0.00    -0.300 OA
ENDROOT
BRANCH   4  12
HETATM   12  N1  UNL     1      24.897   1.763  51.183  1.00  0.00    -0.355 N 
HETATM   13  H5  UNL     1      24.035   1.270  50.865  1.00  0.00     0.166 HD
BRANCH  12  14
HETATM   14  C6  UNL     1      25.272   3.017  50.628  1.00  0.00     0.033 A 
HETATM   15  C7  UNL     1      26.323   3.055  49.736  1.00  0.00     0.029 A 
HETATM   16  C8  UNL     1      26.620   4.298  49.241  1.00  0.00     0.004 A 
HETATM   17  C9  UNL     1      25.987   5.486  49.540  1.00  0.00     0.019 A 
HETATM   18  C10 UNL     1      24.947   5.405  50.431  1.00  0.00     0.013 A 
HETATM   19 BR1  UNL     1      23.996   6.989  50.919  1.00  0.00    -0.051 Br
HETATM   20  C11 UNL     1      24.599   4.171  50.967  1.00  0.00     0.048 A 
ENDBRANCH  12  14
ENDBRANCH   4  12
BRANCH   1  21
HETATM   21  O1  UNL     1      21.014   0.963  53.323  1.00  0.00    -0.335 OA
HETATM   22  C1  UNL     1      21.181   1.970  52.329  1.00  0.00     0.212 C 
ENDBRANCH   1  21
TORSDOF 3
ENDMDL
MODEL 5
REMARK VINA RESULT:      -7.5      3.374      4.846
REMARK  3 active torsions:
REMARK  status: ('A' for Active; 'I' for Inactive)
REMARK    1  A    between atoms: O1_2  and  C2_3 
REMARK    2  A    between atoms: C5_6  and  N1_7 
REMARK    3  A    between atoms: N1_7  and  C6_8 
ROOT
HETATM    1  C2  UNL     1      25.679  -0.625  54.296  1.00  0.00     0.185 C 
HETATM    2  C3  UNL     1      25.217   0.005  53.201  1.00  0.00     0.080 C 
HETATM    3  C4  UNL     1      23.852   0.475  52.948  1.00  0.00     0.024 A 
HETATM    4  C5  UNL     1      23.801   1.470  51.991  1.00  0.00     0.046 A 
HETATM    5  C12 UNL     1      22.532   1.971  51.681  1.00  0.00     0.049 A 
HETATM    6  C13 UNL     1      21.384   1.509  52.290  1.00  0.00     0.119 A 
HETATM    7  N2  UNL     1      21.522   0.540  53.212  1.00  0.00    -0.260 NA
HETATM    8  C14 UNL     1      22.696  -0.005  53.577  1.00  0.00     0.070 A 
HETATM    9  C15 UNL     1      22.581  -1.046  54.605  1.00  0.00     0.057 C 
HETATM   10  C16 UNL     1      23.586  -1.438  55.407  1.00  0.00     0.147 C 
HETATM   11  O2  UNL     1      24.905  -0.952  55.426  1.00  0.00    -0.300 OA
ENDROOT
BRANCH   4  12
HETATM   12  N1  UNL     1      24.974   1.956  51.355  1.00  0.00    -0.355 N 
HETATM   13  H5  UNL     1      25.648   1.169  51.470  1.00  0.00     0.166 HD
BRANCH  12  14
HETATM   14  C6  UNL     1      25.350   3.151  50.682  1.00  0.00     0.033 A 
HETATM   15  C7  UNL     1      26.383   3.097  49.771  1.00  0.00     0.029 A 
HETATM   16  C8  UNL     1      26.681   4.288  49.161  1.00  0.00     0.004 A 
HETATM   17  C9  UNL     1      26.065   5.505  49.364  1.00  0.00     0.019 A 
HETATM   18  C10 UNL     1      25.042   5.515  50.278  1.00  0.00     0.013 A 
HETATM   19 BR1  UNL     1      24.115   7.147  50.640  1.00  0.00    -0.051 Br
HETATM   20  C11 UNL     1      24.694   4.338  50.929  1.00  0.00     0.048 A 
ENDBRANCH  12  14
ENDBRANCH   4  12
BRANCH   1  21
HETATM   21  O1  UNL     1      27.033  -0.909  54.155  1.00  0.00    -0.335 OA
HETATM   22  C1  UNL     1      27.920   0.106  54.615  1.00  0.00     0.212 C 
ENDBRANCH   1  21
TORSDOF 3
ENDMDL
MODEL 6
REMARK VINA RESULT:      -7.5      3.228      6.092
REMARK  3 active torsions:
REMARK  status: ('A' for Active; 'I' for Inactive)
REMARK    1  A    between atoms: O1_2  and  C2_3 
REMARK    2  A    between atoms: C5_6  and  N1_7 
REMARK    3  A    between atoms: N1_7  and  C6_8 
ROOT
HETATM    1  C2  UNL     1      26.302  -0.276  54.819  1.00  0.00     0.185 C 
HETATM    2  C3  UNL     1      25.520   0.464  54.013  1.00  0.00     0.080 C 
HETATM    3  C4  UNL     1      25.940   1.319  52.899  1.00  0.00     0.024 A 
HETATM    4  C5  UNL     1      24.922   1.554  51.996  1.00  0.00     0.046 A 
HETATM    5  C12 UNL     1      25.235   2.371  50.903  1.00  0.00     0.049 A 
HETATM    6  C13 UNL     1      26.487   2.919  50.722  1.00  0.00     0.119 A 
HETATM    7  N2  UNL     1      27.422   2.639  51.648  1.00  0.00    -0.260 NA
HETATM    8  C14 UNL     1      27.218   1.867  52.730  1.00  0.00     0.070 A 
HETATM    9  C15 UNL     1      28.398   1.714  53.589  1.00  0.00     0.057 C 
HETATM   10  C16 UNL     1      28.577   0.710  54.464  1.00  0.00     0.147 C 
HETATM   11  O2  UNL     1      27.705  -0.360  54.729  1.00  0.00    -0.300 OA
ENDROOT
BRANCH   4  12
HETATM   12  N1  UNL     1      23.626   0.997  52.168  1.00  0.00    -0.355 N 
HETATM   13  H5  UNL     1      23.825  -0.011  52.344  1.00  0.00     0.166 HD
BRANCH  12  14
HETATM   14  C6  UNL     1      22.293   1.490  52.148  1.00  0.00     0.033 A 
HETATM   15  C7  UNL     1      22.086   2.838  52.354  1.00  0.00     0.029 A 
HETATM   16  C8  UNL     1      20.775   3.236  52.314  1.00  0.00     0.004 A 
HETATM   17  C9  UNL     1      19.669   2.441  52.095  1.00  0.00     0.019 A 
HETATM   18  C10 UNL     1      19.919   1.107  51.894  1.00  0.00     0.013 A 
HETATM   19 BR1  UNL     1      18.462  -0.089  51.580  1.00  0.00    -0.051 Br
HETATM   20  C11 UNL     1      21.229   0.643  51.923  1.00  0.00     0.048 A 
ENDBRANCH  12  14
ENDBRANCH   4  12
BRANCH   1  21
HETATM   21  O1  UNL     1      25.527  -0.950  55.758  1.00  0.00    -0.335 OA
HETATM   22  C1  UNL     1      24.192  -1.237  55.352  1.00  0.00     0.212 C 
ENDBRANCH   1  21
TORSDOF 3
ENDMDL
MODEL 7
REMARK VINA RESULT:      -7.2      2.610      4.665
REMARK  3 active torsions:
REMARK  status: ('A' for Active; 'I' for Inactive)
REMARK    1  A    between atoms: O1_2  and  C2_3 
REMARK    2  A    between atoms: C5_6  and  N1_7 
REMARK    3  A    between atoms: N1_7  and  C6_8 
ROOT
HETATM    1  C2  UNL     1      21.030   0.144  52.879  1.00  0.00     0.185 C 
HETATM    2  C3  UNL     1      22.184   0.787  52.625  1.00  0.00     0.080 C 
HETATM    3  C4  UNL     1      23.539   0.376  53.006  1.00  0.00     0.024 A 
HETATM    4  C5  UNL     1      24.512   0.960  52.219  1.00  0.00     0.046 A 
HETATM    5  C12 UNL     1      25.838   0.629  52.519  1.00  0.00     0.049 A 
HETATM    6  C13 UNL     1      26.173  -0.234  53.541  1.00  0.00     0.119 A 
HETATM    7  N2  UNL     1      25.164  -0.760  54.259  1.00  0.00    -0.260 NA
HETATM    8  C14 UNL     1      23.861  -0.503  54.047  1.00  0.00     0.070 A 
HETATM    9  C15 UNL     1      22.955  -1.203  54.965  1.00  0.00     0.057 C 
HETATM   10  C16 UNL     1      21.655  -1.438  54.718  1.00  0.00     0.147 C 
HETATM   11  O2  UNL     1      20.921  -1.075  53.576  1.00  0.00    -0.300 OA
ENDROOT
BRANCH   4  12
HETATM   12  N1  UNL     1      24.184   1.852  51.162  1.00  0.00    -0.355 N 
HETATM   13  H5  UNL     1      23.516   1.297  50.586  1.00  0.00     0.166 HD
BRANCH  12  14
HETATM   14  C6  UNL     1      24.547   3.177  50.795  1.00  0.00     0.033 A 
HETATM   15  C7  UNL     1      23.742   4.218  51.208  1.00  0.00     0.029 A 
HETATM   16  C8  UNL     1      24.161   5.464  50.819  1.00  0.00     0.004 A 
HETATM   17  C9  UNL     1      25.280   5.771  50.073  1.00  0.00     0.019 A 
HETATM   18  C10 UNL     1      26.053   4.707  49.683  1.00  0.00     0.013 A 
HETATM   19 BR1  UNL     1      27.629   5.014  48.647  1.00  0.00    -0.051 Br
HETATM   20  C11 UNL     1      25.679   3.419  50.047  1.00  0.00     0.048 A 
ENDBRANCH  12  14
ENDBRANCH   4  12
BRANCH   1  21
HETATM   21  O1  UNL     1      19.956   0.856  52.354  1.00  0.00    -0.335 OA
HETATM   22  C1  UNL     1      18.893   0.060  51.837  1.00  0.00     0.212 C 
ENDBRANCH   1  21
TORSDOF 3
ENDMDL
MODEL 8
REMARK VINA RESULT:      -6.9      3.817      6.607
REMARK  3 active torsions:
REMARK  status: ('A' for Active; 'I' for Inactive)
REMARK    1  A    between atoms: O1_2  and  C2_3 
REMARK    2  A    between atoms: C5_6  and  N1_7 
REMARK    3  A    between atoms: N1_7  and  C6_8 
ROOT
HETATM    1  C2  UNL     1      23.701   4.794  50.836  1.00  0.00     0.185 C 
HETATM    2  C3  UNL     1      23.605   3.541  51.315  1.00  0.00     0.080 C 
HETATM    3  C4  UNL     1      24.690   2.575  51.516  1.00  0.00     0.024 A 
HETATM    4  C5  UNL     1      24.367   1.596  52.435  1.00  0.00     0.046 A 
HETATM    5  C12 UNL     1      25.344   0.625  52.681  1.00  0.00     0.049 A 
HETATM    6  C13 UNL     1      26.570   0.632  52.050  1.00  0.00     0.119 A 
HETATM    7  N2  UNL     1      26.805   1.621  51.169  1.00  0.00    -0.260 NA
HETATM    8  C14 UNL     1      25.930   2.597  50.865  1.00  0.00     0.070 A 
HETATM    9  C15 UNL     1      26.425   3.559  49.875  1.00  0.00     0.057 C 
HETATM   10  C16 UNL     1      25.940   4.802  49.713  1.00  0.00     0.147 C 
HETATM   11  O2  UNL     1      24.898   5.415  50.431  1.00  0.00    -0.300 OA
ENDROOT
BRANCH   4  12
HETATM   12  N1  UNL     1      23.108   1.575  53.094  1.00  0.00    -0.355 N 
HETATM   13  H5  UNL     1      23.003   2.556  53.431  1.00  0.00     0.166 HD
BRANCH  12  14
HETATM   14  C6  UNL     1      22.104   0.601  53.345  1.00  0.00     0.033 A 
HETATM   15  C7  UNL     1      22.359  -0.384  54.275  1.00  0.00     0.029 A 
HETATM   16  C8  UNL     1      21.341  -1.282  54.465  1.00  0.00     0.004 A 
HETATM   17  C9  UNL     1      20.115  -1.296  53.832  1.00  0.00     0.019 A 
HETATM   18  C10 UNL     1      19.901  -0.300  52.914  1.00  0.00     0.013 A 
HETATM   19 BR1  UNL     1      18.238  -0.220  51.976  1.00  0.00    -0.051 Br
HETATM   20  C11 UNL     1      20.898   0.641  52.679  1.00  0.00     0.048 A 
ENDBRANCH  12  14
ENDBRANCH   4  12
BRANCH   1  21
HETATM   21  O1  UNL     1      22.446   5.392  50.796  1.00  0.00    -0.335 OA
HETATM   22  C1  UNL     1      22.451   6.817  50.773  1.00  0.00     0.212 C 
ENDBRANCH   1  21
TORSDOF 3
ENDMDL
MODEL 9
REMARK VINA RESULT:      -6.9      3.586      5.959
REMARK  3 active torsions:
REMARK  status: ('A' for Active; 'I' for Inactive)
REMARK    1  A    between atoms: O1_2  and  C2_3 
REMARK    2  A    between atoms: C5_6  and  N1_7 
REMARK    3  A    between atoms: N1_7  and  C6_8 
ROOT
HETATM    1  C2  UNL     1      26.098   2.377  52.326  1.00  0.00     0.185 C 
HETATM    2  C3  UNL     1      24.760   2.524  52.332  1.00  0.00     0.080 C 
HETATM    3  C4  UNL     1      23.877   2.709  51.177  1.00  0.00     0.024 A 
HETATM    4  C5  UNL     1      22.569   2.357  51.447  1.00  0.00     0.046 A 
HETATM    5  C12 UNL     1      21.653   2.510  50.399  1.00  0.00     0.049 A 
HETATM    6  C13 UNL     1      22.021   2.985  49.158  1.00  0.00     0.119 A 
HETATM    7  N2  UNL     1      23.315   3.305  48.979  1.00  0.00    -0.260 NA
HETATM    8  C14 UNL     1      24.267   3.193  49.922  1.00  0.00     0.070 A 
HETATM    9  C15 UNL     1      25.603   3.604  49.477  1.00  0.00     0.057 C 
HETATM   10  C16 UNL     1      26.752   3.219  50.059  1.00  0.00     0.147 C 
HETATM   11  O2  UNL     1      26.906   2.374  51.173  1.00  0.00    -0.300 OA
ENDROOT
BRANCH   4  12
HETATM   12  N1  UNL     1      22.174   1.866  52.720  1.00  0.00    -0.355 N 
HETATM   13  H5  UNL     1      22.345   2.680  53.349  1.00  0.00     0.166 HD
BRANCH  12  14
HETATM   14  C6  UNL     1      21.660   0.641  53.228  1.00  0.00     0.033 A 
HETATM   15  C7  UNL     1      22.511  -0.194  53.920  1.00  0.00     0.029 A 
HETATM   16  C8  UNL     1      21.940  -1.351  54.381  1.00  0.00     0.004 A 
HETATM   17  C9  UNL     1      20.630  -1.753  54.225  1.00  0.00     0.019 A 
HETATM   18  C10 UNL     1      19.817  -0.894  53.532  1.00  0.00     0.013 A 
HETATM   19 BR1  UNL     1      17.981  -1.347  53.255  1.00  0.00    -0.051 Br
HETATM   20  C11 UNL     1      20.339   0.296  53.039  1.00  0.00     0.048 A 
ENDBRANCH  12  14
ENDBRANCH   4  12
BRANCH   1  21
HETATM   21  O1  UNL     1      26.572   2.227  53.626  1.00  0.00    -0.335 OA
HETATM   22  C1  UNL     1      26.282   0.975  54.240  1.00  0.00     0.212 C 
ENDBRANCH   1  21
TORSDOF 3
ENDMDL
