MODEL 1
REMARK VINA RESULT:      -7.8      0.000      0.000
REMARK  3 active torsions:
REMARK  status: ('A' for Active; 'I' for Inactive)
REMARK    1  A    between atoms: O1_2  and  C2_3 
REMARK    2  A    between atoms: N2_11  and  C8_12 
REMARK    3  A    between atoms: C12_16  and  O2_17 
ROOT
HETATM    1  C2  UNL     1      20.246   1.639  50.090  1.00  0.00     0.083 C 
HETATM    2  C3  UNL     1      21.350   1.484  49.187  1.00  0.00     0.026 C 
HETATM    3  C4  UNL     1      22.826   2.062  49.644  1.00  0.00     0.071 A 
HETATM    4  C5  UNL     1      22.860   2.844  51.280  1.00  0.00     0.206 A 
HETATM    5  S1  UNL     1      23.048   2.737  51.357  1.00  0.00    -0.198 SA
HETATM    6  C6  UNL     1      23.996   2.176  51.728  1.00  0.00     0.066 A 
HETATM    7  N1  UNL     1      25.027   1.540  52.156  1.00  0.00    -0.201 NA
HETATM    8  C7  UNL     1      24.071   0.647  53.065  1.00  0.00     0.281 C 
HETATM    9  N2  UNL     1      24.110  -0.358  53.942  1.00  0.00    -0.315 N 
HETATM   10  N3  UNL     1      22.667   0.810  53.129  1.00  0.00    -0.386 NA
HETATM   11  C15 UNL     1      21.549   1.203  52.950  1.00  0.00     0.165 C 
HETATM   12  C16 UNL     1      20.217   1.884  52.551  1.00  0.00     0.114 C 
HETATM   13  C17 UNL     1      20.434   2.680  51.208  1.00  0.00     0.032 C 
HETATM   14  N4  UNL     1      20.811   3.989  50.549  1.00  0.00    -0.259 NA
HETATM   15  H7  UNL     1      21.702   3.583  50.829  1.00  0.00     0.192 HD
HETATM   16  H8  UNL     1      24.158  -1.102  54.588  1.00  0.00     0.170 HD
ENDROOT
BRANCH   9  17
HETATM   17  C8  UNL     1      25.547  -0.499  53.769  1.00  0.00     0.038 A 
HETATM   18  C9  UNL     1      26.206  -1.377  52.883  1.00  0.00     0.030 A 
HETATM   19  C10 UNL     1      27.558  -1.541  52.680  1.00  0.00     0.005 A 
HETATM   20  C11 UNL     1      28.354  -0.737  53.450  1.00  0.00     0.037 A 
HETATM   21  C12 UNL     1      27.882   0.176  54.364  1.00  0.00     0.070 A 
HETATM   22  C14 UNL     1      26.513   0.249  54.477  1.00  0.00     0.066 A 
BRANCH  21  23
HETATM   23  O2  UNL     1      28.683   0.983  55.138  1.00  0.00    -0.356 OA
HETATM   24  C13 UNL     1      29.433   2.010  54.490  1.00  0.00     0.210 C 
ENDBRANCH  21  23
ENDBRANCH   9  17
BRANCH   1  25
HETATM   25  O1  UNL     1      19.063   0.963  50.062  1.00  0.00    -0.355 OA
HETATM   26  C1  UNL     1      17.869   1.638  49.738  1.00  0.00     0.210 C 
ENDBRANCH   1  25
TORSDOF 3
ENDMDL
MODEL 2
REMARK VINA RESULT:      -7.5      2.611      7.607
REMARK  3 active torsions:
REMARK  status: ('A' for Active; 'I' for Inactive)
REMARK    1  A    between atoms: O1_2  and  C2_3 
REMARK    2  A    between atoms: N2_11  and  C8_12 
REMARK    3  A    between atoms: C12_16  and  O2_17 
ROOT
HETATM    1  C2  UNL     1      28.104  -0.953  53.241  1.00  0.00     0.083 C 
HETATM    2  C3  UNL     1      26.880  -1.480  52.707  1.00  0.00     0.026 C 
HETATM    3  C4  UNL     1      25.504  -0.584  52.864  1.00  0.00     0.071 A 
HETATM    4  C5  UNL     1      25.724   1.000  53.720  1.00  0.00     0.206 A 
HETATM    5  S1  UNL     1      25.608   1.127  53.569  1.00  0.00    -0.198 SA
HETATM    6  C6  UNL     1      25.025   1.759  52.785  1.00  0.00     0.066 A 
HETATM    7  N1  UNL     1      24.407   2.467  51.910  1.00  0.00    -0.201 NA
HETATM    8  C7  UNL     1      25.809   3.025  51.402  1.00  0.00     0.281 C 
HETATM    9  N2  UNL     1      26.333   3.852  50.495  1.00  0.00    -0.315 N 
HETATM   10  N3  UNL     1      27.053   2.661  51.969  1.00  0.00    -0.386 NA
HETATM   11  C15 UNL     1      27.897   2.158  52.655  1.00  0.00     0.165 C 
HETATM   12  C16 UNL     1      28.785   1.387  53.662  1.00  0.00     0.114 C 
HETATM   13  C17 UNL     1      27.953   0.189  54.261  1.00  0.00     0.032 C 
HETATM   14  N4  UNL     1      27.025  -0.297  55.353  1.00  0.00    -0.259 NA
HETATM   15  H7  UNL     1      26.421   0.232  54.728  1.00  0.00     0.192 HD
HETATM   16  H8  UNL     1      26.703   4.467  49.818  1.00  0.00     0.170 HD
ENDROOT
BRANCH   9  17
HETATM   17  C8  UNL     1      25.020   4.121  49.931  1.00  0.00     0.038 A 
HETATM   18  C9  UNL     1      24.270   5.307  50.073  1.00  0.00     0.030 A 
HETATM   19  C10 UNL     1      23.030   5.610  49.556  1.00  0.00     0.005 A 
HETATM   20  C11 UNL     1      22.464   4.614  48.807  1.00  0.00     0.037 A 
HETATM   21  C12 UNL     1      23.054   3.395  48.565  1.00  0.00     0.070 A 
HETATM   22  C14 UNL     1      24.292   3.210  49.135  1.00  0.00     0.066 A 
BRANCH  21  23
HETATM   23  O2  UNL     1      22.484   2.393  47.812  1.00  0.00    -0.356 OA
HETATM   24  C13 UNL     1      21.732   1.387  48.488  1.00  0.00     0.210 C 
ENDBRANCH  21  23
ENDBRANCH   9  17
BRANCH   1  25
HETATM   25  O1  UNL     1      29.370  -1.353  52.937  1.00  0.00    -0.355 OA
HETATM   26  C1  UNL     1      30.230  -1.814  53.953  1.00  0.00     0.210 C 
ENDBRANCH   1  25
TORSDOF 3
ENDMDL
MODEL 3
REMARK VINA RESULT:      -7.3      2.584      7.475
REMARK  3 active torsions:
REMARK  status: ('A' for Active; 'I' for Inactive)
REMARK    1  A    between atoms: O1_2  and  C2_3 
REMARK    2  A    between atoms: N2_11  and  C8_12 
REMARK    3  A    between atoms: C12_16  and  O2_17 
ROOT
HETATM    1  C2  UNL     1      27.919  -0.778  53.176  1.00  0.00     0.083 C 
HETATM    2  C3  UNL     1      26.762  -1.491  52.716  1.00  0.00     0.026 C 
HETATM    3  C4  UNL     1      25.285  -0.773  52.869  1.00  0.00     0.071 A 
HETATM    4  C5  UNL     1      25.317   0.876  53.623  1.00  0.00     0.206 A 
HETATM    5  S1  UNL     1      25.182   0.978  53.469  1.00  0.00    -0.198 SA
HETATM    6  C6  UNL     1      24.500   1.479  52.671  1.00  0.00     0.066 A 
HETATM    7  N1  UNL     1      23.771   2.045  51.778  1.00  0.00    -0.201 NA
HETATM    8  C7  UNL     1      25.074   2.748  51.190  1.00  0.00     0.281 C 
HETATM    9  N2  UNL     1      25.460   3.578  50.220  1.00  0.00    -0.315 N 
HETATM   10  N3  UNL     1      26.370   2.584  51.734  1.00  0.00    -0.386 NA
HETATM   11  C15 UNL     1      27.290   2.238  52.419  1.00  0.00     0.165 C 
HETATM   12  C16 UNL     1      28.298   1.653  53.438  1.00  0.00     0.114 C 
HETATM   13  C17 UNL     1      27.647   0.396  54.133  1.00  0.00     0.032 C 
HETATM   14  N4  UNL     1      26.821  -0.138  55.283  1.00  0.00    -0.259 NA
HETATM   15  H7  UNL     1      26.136   0.269  54.649  1.00  0.00     0.192 HD
HETATM   16  H8  UNL     1      25.728   4.192  49.496  1.00  0.00     0.170 HD
ENDROOT
BRANCH   9  17
HETATM   17  C8  UNL     1      24.108   3.639  49.687  1.00  0.00     0.038 A 
HETATM   18  C9  UNL     1      23.524   2.741  48.770  1.00  0.00     0.030 A 
HETATM   19  C10 UNL     1      22.251   2.754  48.244  1.00  0.00     0.005 A 
HETATM   20  C11 UNL     1      21.463   3.785  48.679  1.00  0.00     0.037 A 
HETATM   21  C12 UNL     1      21.870   4.750  49.570  1.00  0.00     0.070 A 
HETATM   22  C14 UNL     1      23.162   4.630  50.026  1.00  0.00     0.066 A 
BRANCH  21  23
HETATM   23  O2  UNL     1      21.077   5.787  50.006  1.00  0.00    -0.356 OA
HETATM   24  C13 UNL     1      21.674   6.797  50.818  1.00  0.00     0.210 C 
ENDBRANCH  21  23
ENDBRANCH   9  17
BRANCH   1  25
HETATM   25  O1  UNL     1      29.219  -1.028  52.853  1.00  0.00    -0.355 OA
HETATM   26  C1  UNL     1      30.146  -1.369  53.857  1.00  0.00     0.210 C 
ENDBRANCH   1  25
TORSDOF 3
ENDMDL
MODEL 4
REMARK VINA RESULT:      -7.2      2.707      3.319
REMARK  3 active torsions:
REMARK  status: ('A' for Active; 'I' for Inactive)
REMARK    1  A    between atoms: O1_2  and  C2_3 
REMARK    2  A    between atoms: N2_11  and  C8_12 
REMARK    3  A    between atoms: C12_16  and  O2_17 
ROOT
HETATM    1  C2  UNL     1      21.369   5.316  49.282  1.00  0.00     0.083 C 
HETATM    2  C3  UNL     1      21.510   4.000  48.727  1.00  0.00     0.026 C 
HETATM    3  C4  UNL     1      23.018   3.334  48.656  1.00  0.00     0.071 A 
HETATM    4  C5  UNL     1      24.342   4.387  49.309  1.00  0.00     0.206 A 
HETATM    5  S1  UNL     1      24.443   4.226  49.437  1.00  0.00    -0.198 SA
HETATM    6  C6  UNL     1      24.933   3.397  50.089  1.00  0.00     0.066 A 
HETATM    7  N1  UNL     1      25.464   2.494  50.832  1.00  0.00    -0.201 NA
HETATM    8  C7  UNL     1      24.837   3.208  52.111  1.00  0.00     0.281 C 
HETATM    9  N2  UNL     1      24.766   3.091  53.438  1.00  0.00    -0.315 N 
HETATM   10  N3  UNL     1      24.064   4.392  52.051  1.00  0.00    -0.386 NA
HETATM   11  C15 UNL     1      23.474   5.357  51.655  1.00  0.00     0.165 C 
HETATM   12  C16 UNL     1      22.791   6.526  50.904  1.00  0.00     0.114 C 
HETATM   13  C17 UNL     1      22.662   6.145  49.379  1.00  0.00     0.032 C 
HETATM   14  N4  UNL     1      23.284   6.179  48.000  1.00  0.00    -0.259 NA
HETATM   15  H7  UNL     1      23.775   5.426  48.478  1.00  0.00     0.192 HD
HETATM   16  H8  UNL     1      24.724   2.989  54.418  1.00  0.00     0.170 HD
ENDROOT
BRANCH   9  17
HETATM   17  C8  UNL     1      25.514   1.845  53.402  1.00  0.00     0.038 A 
HETATM   18  C9  UNL     1      24.990   0.555  53.177  1.00  0.00     0.030 A 
HETATM   19  C10 UNL     1      25.656  -0.649  53.128  1.00  0.00     0.005 A 
HETATM   20  C11 UNL     1      27.008  -0.564  53.329  1.00  0.00     0.037 A 
HETATM   21  C12 UNL     1      27.684   0.611  53.562  1.00  0.00     0.070 A 
HETATM   22  C14 UNL     1      26.910   1.747  53.587  1.00  0.00     0.066 A 
BRANCH  21  23
HETATM   23  O2  UNL     1      29.043   0.696  53.763  1.00  0.00    -0.356 OA
HETATM   24  C13 UNL     1      29.792  -0.517  53.830  1.00  0.00     0.210 C 
ENDBRANCH  21  23
ENDBRANCH   9  17
BRANCH   1  25
HETATM   25  O1  UNL     1      20.221   5.897  49.730  1.00  0.00    -0.355 OA
HETATM   26  C1  UNL     1      19.603   6.915  48.978  1.00  0.00     0.210 C 
ENDBRANCH   1  25
TORSDOF 3
ENDMDL
MODEL 5
REMARK VINA RESULT:      -7.0      9.603     11.045
REMARK  3 active torsions:
REMARK  status: ('A' for Active; 'I' for Inactive)
REMARK    1  A    between atoms: O1_2  and  C2_3 
REMARK    2  A    between atoms: N2_11  and  C8_12 
REMARK    3  A    between atoms: C12_16  and  O2_17 
ROOT
HETATM    1  C2  UNL     1      28.719   9.751  47.674  1.00  0.00     0.083 C 
HETATM    2  C3  UNL     1      30.021  10.141  47.212  1.00  0.00     0.026 C 
HETATM    3  C4  UNL     1      31.343   9.445  47.912  1.00  0.00     0.071 A 
HETATM    4  C5  UNL     1      30.967   8.241  49.214  1.00  0.00     0.206 A 
HETATM    5  S1  UNL     1      31.109   8.077  49.140  1.00  0.00    -0.198 SA
HETATM    6  C6  UNL     1      31.828   7.254  48.742  1.00  0.00     0.066 A 
HETATM    7  N1  UNL     1      32.599   6.330  48.293  1.00  0.00    -0.201 NA
HETATM    8  C7  UNL     1      31.316   5.542  47.774  1.00  0.00     0.281 C 
HETATM    9  N2  UNL     1      30.971   4.421  47.137  1.00  0.00    -0.315 N 
HETATM   10  N3  UNL     1      29.988   5.996  47.951  1.00  0.00    -0.386 NA
HETATM   11  C15 UNL     1      29.031   6.648  48.259  1.00  0.00     0.165 C 
HETATM   12  C16 UNL     1      27.971   7.659  48.760  1.00  0.00     0.114 C 
HETATM   13  C17 UNL     1      28.676   9.041  49.038  1.00  0.00     0.032 C 
HETATM   14  N4  UNL     1      29.383   9.932  50.036  1.00  0.00    -0.259 NA
HETATM   15  H7  UNL     1      30.094   9.261  49.751  1.00  0.00     0.192 HD
HETATM   16  H8  UNL     1      30.734   3.589  46.664  1.00  0.00     0.170 HD
ENDROOT
BRANCH   9  17
HETATM   17  C8  UNL     1      32.366   4.061  46.943  1.00  0.00     0.038 A 
HETATM   18  C9  UNL     1      33.183   3.344  47.841  1.00  0.00     0.030 A 
HETATM   19  C10 UNL     1      34.502   2.975  47.700  1.00  0.00     0.005 A 
HETATM   20  C11 UNL     1      35.083   3.367  46.523  1.00  0.00     0.037 A 
HETATM   21  C12 UNL     1      34.435   4.072  45.536  1.00  0.00     0.070 A 
HETATM   22  C14 UNL     1      33.120   4.382  45.792  1.00  0.00     0.066 A 
BRANCH  21  23
HETATM   23  O2  UNL     1      35.019   4.465  44.353  1.00  0.00    -0.356 OA
HETATM   24  C13 UNL     1      34.297   5.360  43.510  1.00  0.00     0.210 C 
ENDBRANCH  21  23
ENDBRANCH   9  17
BRANCH   1  25
HETATM   25  O1  UNL     1      27.532   9.939  47.032  1.00  0.00    -0.355 OA
HETATM   26  C1  UNL     1      27.443   9.753  45.638  1.00  0.00     0.210 C 
ENDBRANCH   1  25
TORSDOF 3
ENDMDL
MODEL 6
REMARK VINA RESULT:      -6.9      2.049      2.958
REMARK  3 active torsions:
REMARK  status: ('A' for Active; 'I' for Inactive)
REMARK    1  A    between atoms: O1_2  and  C2_3 
REMARK    2  A    between atoms: N2_11  and  C8_12 
REMARK    3  A    between atoms: C12_16  and  O2_17 
ROOT
HETATM    1  C2  UNL     1      18.801   2.954  51.428  1.00  0.00     0.083 C 
HETATM    2  C3  UNL     1      19.041   1.566  51.702  1.00  0.00     0.026 C 
HETATM    3  C4  UNL     1      20.394   0.863  51.072  1.00  0.00     0.071 A 
HETATM    4  C5  UNL     1      21.434   1.971  50.083  1.00  0.00     0.206 A 
HETATM    5  S1  UNL     1      21.633   1.913  50.180  1.00  0.00    -0.198 SA
HETATM    6  C6  UNL     1      22.634   1.610  50.690  1.00  0.00     0.066 A 
HETATM    7  N1  UNL     1      23.739   1.302  51.267  1.00  0.00    -0.201 NA
HETATM    8  C7  UNL     1      23.705   2.698  52.032  1.00  0.00     0.281 C 
HETATM    9  N2  UNL     1      24.399   3.419  52.915  1.00  0.00    -0.315 N 
HETATM   10  N3  UNL     1      22.686   3.666  51.860  1.00  0.00    -0.386 NA
HETATM   11  C15 UNL     1      21.701   4.240  51.491  1.00  0.00     0.165 C 
HETATM   12  C16 UNL     1      20.387   4.767  50.865  1.00  0.00     0.114 C 
HETATM   13  C17 UNL     1      19.592   3.552  50.251  1.00  0.00     0.032 C 
HETATM   14  N4  UNL     1      19.326   2.685  49.039  1.00  0.00    -0.259 NA
HETATM   15  H7  UNL     1      20.209   2.337  49.407  1.00  0.00     0.192 HD
HETATM   16  H8  UNL     1      24.925   3.937  53.569  1.00  0.00     0.170 HD
ENDROOT
BRANCH   9  17
HETATM   17  C8  UNL     1      25.367   2.346  53.080  1.00  0.00     0.038 A 
HETATM   18  C9  UNL     1      26.565   2.175  52.355  1.00  0.00     0.030 A 
HETATM   19  C10 UNL     1      27.512   1.183  52.479  1.00  0.00     0.005 A 
HETATM   20  C11 UNL     1      27.238   0.247  53.438  1.00  0.00     0.037 A 
HETATM   21  C12 UNL     1      26.118   0.259  54.237  1.00  0.00     0.070 A 
HETATM   22  C14 UNL     1      25.246   1.300  54.020  1.00  0.00     0.066 A 
BRANCH  21  23
HETATM   23  O2  UNL     1      25.843  -0.683  55.201  1.00  0.00    -0.356 OA
HETATM   24  C13 UNL     1      24.515  -1.199  55.280  1.00  0.00     0.210 C 
ENDBRANCH  21  23
ENDBRANCH   9  17
BRANCH   1  25
HETATM   25  O1  UNL     1      17.959   3.788  52.100  1.00  0.00    -0.355 OA
HETATM   26  C1  UNL     1      16.722   4.152  51.533  1.00  0.00     0.210 C 
ENDBRANCH   1  25
TORSDOF 3
ENDMDL
MODEL 7
REMARK VINA RESULT:      -6.9      7.611      9.105
REMARK  3 active torsions:
REMARK  status: ('A' for Active; 'I' for Inactive)
REMARK    1  A    between atoms: O1_2  and  C2_3 
REMARK    2  A    between atoms: N2_11  and  C8_12 
REMARK    3  A    between atoms: C12_16  and  O2_17 
ROOT
HETATM    1  C2  UNL     1      24.740   6.055  50.471  1.00  0.00     0.083 C 
HETATM    2  C3  UNL     1      25.642   5.060  49.964  1.00  0.00     0.026 C 
HETATM    3  C4  UNL     1      26.565   5.434  48.649  1.00  0.00     0.071 A 
HETATM    4  C5  UNL     1      26.312   7.107  47.996  1.00  0.00     0.206 A 
HETATM    5  S1  UNL     1      26.534   7.162  47.978  1.00  0.00    -0.198 SA
HETATM    6  C6  UNL     1      27.665   7.423  47.900  1.00  0.00     0.066 A 
HETATM    7  N1  UNL     1      28.910   7.728  47.837  1.00  0.00    -0.201 NA
HETATM    8  C7  UNL     1      28.726   8.654  49.120  1.00  0.00     0.281 C 
HETATM    9  N2  UNL     1      29.415   9.462  49.928  1.00  0.00    -0.315 N 
HETATM   10  N3  UNL     1      27.492   8.837  49.787  1.00  0.00    -0.386 NA
HETATM   11  C15 UNL     1      26.337   8.771  50.101  1.00  0.00     0.165 C 
HETATM   12  C16 UNL     1      24.823   8.521  50.300  1.00  0.00     0.114 C 
HETATM   13  C17 UNL     1      24.414   7.216  49.515  1.00  0.00     0.032 C 
HETATM   14  N4  UNL     1      23.915   6.611  48.221  1.00  0.00    -0.259 NA
HETATM   15  H7  UNL     1      24.901   6.794  48.048  1.00  0.00     0.192 HD
HETATM   16  H8  UNL     1      29.940  10.055  50.515  1.00  0.00     0.170 HD
ENDROOT
BRANCH   9  17
HETATM   17  C8  UNL     1      30.653   9.168  49.223  1.00  0.00     0.038 A 
HETATM   18  C9  UNL     1      31.270   9.966  48.238  1.00  0.00     0.030 A 
HETATM   19  C10 UNL     1      32.440   9.734  47.549  1.00  0.00     0.005 A 
HETATM   20  C11 UNL     1      33.074   8.566  47.877  1.00  0.00     0.037 A 
HETATM   21  C12 UNL     1      32.615   7.670  48.814  1.00  0.00     0.070 A 
HETATM   22  C14 UNL     1      31.436   8.012  49.435  1.00  0.00     0.066 A 
BRANCH  21  23
HETATM   23  O2  UNL     1      33.253   6.496  49.143  1.00  0.00    -0.356 OA
HETATM   24  C13 UNL     1      34.346   6.072  48.330  1.00  0.00     0.210 C 
ENDBRANCH  21  23
ENDBRANCH   9  17
BRANCH   1  25
HETATM   25  O1  UNL     1      24.154   6.078  51.701  1.00  0.00    -0.355 OA
HETATM   26  C1  UNL     1      23.242   5.070  52.070  1.00  0.00     0.210 C 
ENDBRANCH   1  25
TORSDOF 3
ENDMDL
MODEL 8
REMARK VINA RESULT:      -6.7      3.522      4.664
REMARK  3 active torsions:
REMARK  status: ('A' for Active; 'I' for Inactive)
REMARK    1  A    between atoms: O1_2  and  C2_3 
REMARK    2  A    between atoms: N2_11  and  C8_12 
REMARK    3  A    between atoms: C12_16  and  O2_17 
ROOT
HETATM    1  C2  UNL     1      21.113   6.668  49.230  1.00  0.00     0.083 C 
HETATM    2  C3  UNL     1      20.721   5.348  48.828  1.00  0.00     0.026 C 
HETATM    3  C4  UNL     1      21.895   4.209  48.616  1.00  0.00     0.071 A 
HETATM    4  C5  UNL     1      23.583   4.794  48.927  1.00  0.00     0.206 A 
HETATM    5  S1  UNL     1      23.648   4.617  49.057  1.00  0.00    -0.198 SA
HETATM    6  C6  UNL     1      23.957   3.717  49.726  1.00  0.00     0.066 A 
HETATM    7  N1  UNL     1      24.295   2.740  50.488  1.00  0.00    -0.201 NA
HETATM    8  C7  UNL     1      24.176   3.709  51.747  1.00  0.00     0.281 C 
HETATM    9  N2  UNL     1      24.315   3.712  53.074  1.00  0.00    -0.315 N 
HETATM   10  N3  UNL     1      23.827   5.077  51.657  1.00  0.00    -0.386 NA
HETATM   11  C15 UNL     1      23.517   6.156  51.237  1.00  0.00     0.165 C 
HETATM   12  C16 UNL     1      23.120   7.433  50.457  1.00  0.00     0.114 C 
HETATM   13  C17 UNL     1      22.599   7.016  49.029  1.00  0.00     0.032 C 
HETATM   14  N4  UNL     1      22.936   6.745  47.579  1.00  0.00    -0.259 NA
HETATM   15  H7  UNL     1      23.238   5.905  48.068  1.00  0.00     0.192 HD
HETATM   16  H8  UNL     1      24.422   3.697  54.054  1.00  0.00     0.170 HD
ENDROOT
BRANCH   9  17
HETATM   17  C8  UNL     1      24.603   2.287  53.082  1.00  0.00     0.038 A 
HETATM   18  C9  UNL     1      25.875   1.685  52.991  1.00  0.00     0.030 A 
HETATM   19  C10 UNL     1      26.198   0.346  53.001  1.00  0.00     0.005 A 
HETATM   20  C11 UNL     1      25.127  -0.499  53.112  1.00  0.00     0.037 A 
HETATM   21  C12 UNL     1      23.819  -0.085  53.211  1.00  0.00     0.070 A 
HETATM   22  C14 UNL     1      23.624   1.276  53.191  1.00  0.00     0.066 A 
BRANCH  21  23
HETATM   23  O2  UNL     1      22.743  -0.936  53.323  1.00  0.00    -0.356 OA
HETATM   24  C13 UNL     1      22.243  -1.222  54.628  1.00  0.00     0.210 C 
ENDBRANCH  21  23
ENDBRANCH   9  17
BRANCH   1  25
HETATM   25  O1  UNL     1      20.316   7.632  49.769  1.00  0.00    -0.355 OA
HETATM   26  C1  UNL     1      19.875   8.711  48.978  1.00  0.00     0.210 C 
ENDBRANCH   1  25
TORSDOF 3
ENDMDL
MODEL 9
REMARK VINA RESULT:      -6.7      6.179      8.112
REMARK  3 active torsions:
REMARK  status: ('A' for Active; 'I' for Inactive)
REMARK    1  A    between atoms: O1_2  and  C2_3 
REMARK    2  A    between atoms: N2_11  and  C8_12 
REMARK    3  A    between atoms: C12_16  and  O2_17 
ROOT
HETATM    1  C2  UNL     1      24.983   2.864  51.849  1.00  0.00     0.083 C 
HETATM    2  C3  UNL     1      26.193   2.838  51.078  1.00  0.00     0.026 C 
HETATM    3  C4  UNL     1      26.239   3.678  49.659  1.00  0.00     0.071 A 
HETATM    4  C5  UNL     1      24.705   4.553  49.246  1.00  0.00     0.206 A 
HETATM    5  S1  UNL     1      24.803   4.753  49.191  1.00  0.00    -0.198 SA
HETATM    6  C6  UNL     1      25.318   5.762  48.929  1.00  0.00     0.066 A 
HETATM    7  N1  UNL     1      25.877   6.888  48.663  1.00  0.00    -0.201 NA
HETATM    8  C7  UNL     1      25.336   7.459  50.048  1.00  0.00     0.281 C 
HETATM    9  N2  UNL     1      25.344   8.567  50.792  1.00  0.00    -0.315 N 
HETATM   10  N3  UNL     1      24.546   6.710  50.953  1.00  0.00    -0.386 NA
HETATM   11  C15 UNL     1      23.919   5.830  51.471  1.00  0.00     0.165 C 
HETATM   12  C16 UNL     1      23.175   4.551  51.926  1.00  0.00     0.114 C 
HETATM   13  C17 UNL     1      23.720   3.323  51.099  1.00  0.00     0.032 C 
HETATM   14  N4  UNL     1      23.583   2.456  49.867  1.00  0.00    -0.259 NA
HETATM   15  H7  UNL     1      24.044   3.299  49.530  1.00  0.00     0.192 HD
HETATM   16  H8  UNL     1      25.361   9.394  51.328  1.00  0.00     0.170 HD
ENDROOT
BRANCH   9  17
HETATM   17  C8  UNL     1      26.211   9.241  49.838  1.00  0.00     0.038 A 
HETATM   18  C9  UNL     1      25.804   9.980  48.708  1.00  0.00     0.030 A 
HETATM   19  C10 UNL     1      26.583  10.639  47.783  1.00  0.00     0.005 A 
HETATM   20  C11 UNL     1      27.931  10.553  48.006  1.00  0.00     0.037 A 
HETATM   21  C12 UNL     1      28.502   9.874  49.057  1.00  0.00     0.070 A 
HETATM   22  C14 UNL     1      27.620   9.257  49.914  1.00  0.00     0.066 A 
BRANCH  21  23
HETATM   23  O2  UNL     1      29.857   9.787  49.280  1.00  0.00    -0.356 OA
HETATM   24  C13 UNL     1      30.651  10.952  49.063  1.00  0.00     0.210 C 
ENDBRANCH  21  23
ENDBRANCH   9  17
BRANCH   1  25
HETATM   25  O1  UNL     1      24.841   2.533  53.163  1.00  0.00    -0.355 OA
HETATM   26  C1  UNL     1      25.888   1.885  53.847  1.00  0.00     0.210 C 
ENDBRANCH   1  25
TORSDOF 3
ENDMDL
