MODEL 1
REMARK VINA RESULT:      -9.0      0.000      0.000
REMARK  0 active torsions:
REMARK  status: ('A' for Active; 'I' for Inactive)
ROOT
HETATM    1  C1  UNL     1      21.372   0.304  50.412  1.00  0.00     0.017 C 
HETATM    2  C2  UNL     1      21.679   1.812  50.094  1.00  0.00     0.033 C 
HETATM    3  C3  UNL     1      22.029   1.774  48.636  1.00  0.00     0.125 C 
HETATM    4  N1  UNL     1      21.570   2.808  47.846  1.00  0.00    -0.410 N 
HETATM    5  C4  UNL     1      20.129   2.831  47.645  1.00  0.00     0.143 C 
HETATM    6  C5  UNL     1      22.224   3.983  47.500  1.00  0.00     0.103 C 
HETATM    7  C6  UNL     1      21.674   4.566  46.167  1.00  0.00     0.034 C 
HETATM    8  C7  UNL     1      21.836   5.027  48.584  1.00  0.00     0.296 C 
HETATM    9  N2  UNL     1      22.172   4.401  49.817  1.00  0.00     0.090 N 
HETATM   10  C8  UNL     1      21.730   5.214  50.962  1.00  0.00     0.310 C 
HETATM   11  C9  UNL     1      23.581   4.097  49.965  1.00  0.00     0.311 C 
HETATM   12  C10 UNL     1      23.785   3.134  51.080  1.00  0.00    -0.021 A 
HETATM   13  C11 UNL     1      24.801   3.348  51.961  1.00  0.00     0.043 A 
HETATM   14  C12 UNL     1      24.917   2.432  52.974  1.00  0.00     0.082 A 
HETATM   15  C13 UNL     1      24.051   1.366  53.083  1.00  0.00     0.058 A 
HETATM   16  C14 UNL     1      23.074   1.326  52.077  1.00  0.00     0.039 A 
HETATM   17  C15 UNL     1      22.814   2.173  50.974  1.00  0.00    -0.043 A 
HETATM   18  N3  UNL     1      24.121   0.395  54.101  1.00  0.00    -0.370 N 
HETATM   19  C16 UNL     1      24.725  -0.923  54.299  1.00  0.00     0.269 C 
HETATM   20  N4  UNL     1      26.151  -0.908  54.151  1.00  0.00    -0.285 NA
HETATM   21  C17 UNL     1      26.654  -1.254  53.002  1.00  0.00     0.107 C 
HETATM   22  C18 UNL     1      28.147  -1.165  53.077  1.00  0.00     0.197 C 
HETATM   23  N5  UNL     1      28.467   0.219  53.255  1.00  0.00    -0.271 NA
HETATM   24  C19 UNL     1      27.751   1.100  53.838  1.00  0.00     0.278 C 
HETATM   25  O1  UNL     1      26.676   1.681  54.532  1.00  0.00    -0.231 OA
HETATM   26  N6  UNL     1      25.960   2.641  53.891  1.00  0.00    -0.258 N 
HETATM   27  H23 UNL     1      23.519   1.034  54.659  1.00  0.00     0.161 HD
HETATM   28  H30 UNL     1      26.227   3.630  54.113  1.00  0.00     0.195 HD
ENDROOT
TORSDOF 0
ENDMDL
MODEL 2
REMARK VINA RESULT:      -7.8     10.104     12.487
REMARK  0 active torsions:
REMARK  status: ('A' for Active; 'I' for Inactive)
ROOT
HETATM    1  C1  UNL     1      32.572  11.534  45.991  1.00  0.00     0.017 C 
HETATM    2  C2  UNL     1      32.816  10.016  46.315  1.00  0.00     0.033 C 
HETATM    3  C3  UNL     1      32.695   9.370  44.967  1.00  0.00     0.125 C 
HETATM    4  N1  UNL     1      33.574   8.349  44.673  1.00  0.00    -0.410 N 
HETATM    5  C4  UNL     1      34.960   8.761  44.509  1.00  0.00     0.143 C 
HETATM    6  C5  UNL     1      33.391   6.981  44.833  1.00  0.00     0.103 C 
HETATM    7  C6  UNL     1      34.292   6.170  43.859  1.00  0.00     0.034 C 
HETATM    8  C7  UNL     1      33.925   6.638  46.252  1.00  0.00     0.296 C 
HETATM    9  N2  UNL     1      33.225   7.524  47.119  1.00  0.00     0.090 N 
HETATM   10  C8  UNL     1      33.725   7.421  48.500  1.00  0.00     0.310 C 
HETATM   11  C9  UNL     1      31.787   7.342  47.120  1.00  0.00     0.311 C 
HETATM   12  C10 UNL     1      31.120   8.517  47.742  1.00  0.00    -0.021 A 
HETATM   13  C11 UNL     1      30.105   8.310  48.626  1.00  0.00     0.043 A 
HETATM   14  C12 UNL     1      29.551   9.437  49.175  1.00  0.00     0.082 A 
HETATM   15  C13 UNL     1      30.004  10.696  48.844  1.00  0.00     0.058 A 
HETATM   16  C14 UNL     1      31.057  10.693  47.917  1.00  0.00     0.039 A 
HETATM   17  C15 UNL     1      31.737   9.641  47.258  1.00  0.00    -0.043 A 
HETATM   18  N3  UNL     1      29.474  11.888  49.375  1.00  0.00    -0.370 N 
HETATM   19  C16 UNL     1      28.457  12.876  49.012  1.00  0.00     0.269 C 
HETATM   20  N4  UNL     1      27.151  12.302  48.873  1.00  0.00    -0.285 NA
HETATM   21  C17 UNL     1      26.743  11.984  47.680  1.00  0.00     0.107 C 
HETATM   22  C18 UNL     1      25.363  11.408  47.775  1.00  0.00     0.197 C 
HETATM   23  N5  UNL     1      25.480  10.180  48.501  1.00  0.00    -0.271 NA
HETATM   24  C19 UNL     1      26.344   9.902  49.399  1.00  0.00     0.278 C 
HETATM   25  O1  UNL     1      27.431  10.050  50.277  1.00  0.00    -0.231 OA
HETATM   26  N6  UNL     1      28.504   9.239  50.090  1.00  0.00    -0.258 N 
HETATM   27  H23 UNL     1      30.158  11.767  50.150  1.00  0.00     0.161 HD
HETATM   28  H30 UNL     1      28.538   8.383  50.695  1.00  0.00     0.195 HD
ENDROOT
TORSDOF 0
ENDMDL
MODEL 3
REMARK VINA RESULT:      -7.7      9.053     11.593
REMARK  0 active torsions:
REMARK  status: ('A' for Active; 'I' for Inactive)
ROOT
HETATM    1  C1  UNL     1      31.550   7.604  44.452  1.00  0.00     0.017 C 
HETATM    2  C2  UNL     1      32.444   7.105  45.644  1.00  0.00     0.033 C 
HETATM    3  C3  UNL     1      32.416   5.615  45.471  1.00  0.00     0.125 C 
HETATM    4  N1  UNL     1      33.590   4.928  45.703  1.00  0.00    -0.410 N 
HETATM    5  C4  UNL     1      34.642   5.165  44.726  1.00  0.00     0.143 C 
HETATM    6  C5  UNL     1      34.014   4.321  46.879  1.00  0.00     0.103 C 
HETATM    7  C6  UNL     1      35.026   3.176  46.592  1.00  0.00     0.034 C 
HETATM    8  C7  UNL     1      34.833   5.396  47.646  1.00  0.00     0.296 C 
HETATM    9  N2  UNL     1      33.957   6.514  47.737  1.00  0.00     0.090 N 
HETATM   10  C8  UNL     1      34.641   7.679  48.321  1.00  0.00     0.310 C 
HETATM   11  C9  UNL     1      32.740   6.256  48.480  1.00  0.00     0.311 C 
HETATM   12  C10 UNL     1      31.738   7.324  48.215  1.00  0.00    -0.021 A 
HETATM   13  C11 UNL     1      31.034   7.844  49.258  1.00  0.00     0.043 A 
HETATM   14  C12 UNL     1      30.145   8.838  48.942  1.00  0.00     0.082 A 
HETATM   15  C13 UNL     1      29.984   9.274  47.644  1.00  0.00     0.058 A 
HETATM   16  C14 UNL     1      30.803   8.611  46.719  1.00  0.00     0.039 A 
HETATM   17  C15 UNL     1      31.760   7.579  46.868  1.00  0.00    -0.043 A 
HETATM   18  N3  UNL     1      29.087  10.290  47.261  1.00  0.00    -0.370 N 
HETATM   19  C16 UNL     1      27.712  10.390  46.769  1.00  0.00     0.269 C 
HETATM   20  N4  UNL     1      26.756   9.822  47.674  1.00  0.00    -0.285 NA
HETATM   21  C17 UNL     1      26.356   8.603  47.461  1.00  0.00     0.107 C 
HETATM   22  C18 UNL     1      25.367   8.223  48.521  1.00  0.00     0.197 C 
HETATM   23  N5  UNL     1      26.082   8.200  49.760  1.00  0.00    -0.271 NA
HETATM   24  C19 UNL     1      27.099   8.908  50.069  1.00  0.00     0.278 C 
HETATM   25  O1  UNL     1      28.137   9.849  49.957  1.00  0.00    -0.231 OA
HETATM   26  N6  UNL     1      29.413   9.385  50.008  1.00  0.00    -0.258 N 
HETATM   27  H23 UNL     1      29.860  10.957  47.466  1.00  0.00     0.161 HD
HETATM   28  H30 UNL     1      29.882   9.448  50.944  1.00  0.00     0.195 HD
ENDROOT
TORSDOF 0
ENDMDL
MODEL 4
REMARK VINA RESULT:      -7.5      9.458     10.693
REMARK  0 active torsions:
REMARK  status: ('A' for Active; 'I' for Inactive)
ROOT
HETATM    1  C1  UNL     1      27.327   9.629  45.710  1.00  0.00     0.017 C 
HETATM    2  C2  UNL     1      28.039  10.863  46.372  1.00  0.00     0.033 C 
HETATM    3  C3  UNL     1      28.683  11.538  45.197  1.00  0.00     0.125 C 
HETATM    4  N1  UNL     1      28.662  12.917  45.169  1.00  0.00    -0.410 N 
HETATM    5  C4  UNL     1      27.347  13.507  44.968  1.00  0.00     0.143 C 
HETATM    6  C5  UNL     1      29.633  13.802  45.622  1.00  0.00     0.103 C 
HETATM    7  C6  UNL     1      29.541  15.169  44.886  1.00  0.00     0.034 C 
HETATM    8  C7  UNL     1      29.271  14.118  47.100  1.00  0.00     0.296 C 
HETATM    9  N2  UNL     1      29.172  12.842  47.722  1.00  0.00     0.090 N 
HETATM   10  C8  UNL     1      28.691  12.963  49.109  1.00  0.00     0.310 C 
HETATM   11  C9  UNL     1      30.403  12.078  47.711  1.00  0.00     0.311 C 
HETATM   12  C10 UNL     1      30.127  10.652  48.032  1.00  0.00    -0.021 A 
HETATM   13  C11 UNL     1      30.945   9.999  48.902  1.00  0.00     0.043 A 
HETATM   14  C12 UNL     1      30.619   8.694  49.166  1.00  0.00     0.082 A 
HETATM   15  C13 UNL     1      29.525   8.094  48.581  1.00  0.00     0.058 A 
HETATM   16  C14 UNL     1      28.812   8.937  47.717  1.00  0.00     0.039 A 
HETATM   17  C15 UNL     1      29.005  10.285  47.334  1.00  0.00    -0.043 A 
HETATM   18  N3  UNL     1      29.141   6.758  48.815  1.00  0.00    -0.370 N 
HETATM   19  C16 UNL     1      29.363   5.447  48.205  1.00  0.00     0.269 C 
HETATM   20  N4  UNL     1      30.750   5.087  48.149  1.00  0.00    -0.285 NA
HETATM   21  C17 UNL     1      31.397   5.305  47.042  1.00  0.00     0.107 C 
HETATM   22  C18 UNL     1      32.816   4.856  47.212  1.00  0.00     0.197 C 
HETATM   23  N5  UNL     1      33.403   5.713  48.196  1.00  0.00    -0.271 NA
HETATM   24  C19 UNL     1      32.802   6.289  49.164  1.00  0.00     0.278 C 
HETATM   25  O1  UNL     1      31.767   6.688  50.027  1.00  0.00    -0.231 OA
HETATM   26  N6  UNL     1      31.454   8.009  50.064  1.00  0.00    -0.258 N 
HETATM   27  H23 UNL     1      28.597   7.127  49.622  1.00  0.00     0.161 HD
HETATM   28  H30 UNL     1      31.889   8.557  50.844  1.00  0.00     0.195 HD
ENDROOT
TORSDOF 0
ENDMDL
MODEL 5
REMARK VINA RESULT:      -7.4      5.674      7.544
REMARK  0 active torsions:
REMARK  status: ('A' for Active; 'I' for Inactive)
ROOT
HETATM    1  C1  UNL     1      28.888   5.601  47.859  1.00  0.00     0.017 C 
HETATM    2  C2  UNL     1      28.509   7.103  48.124  1.00  0.00     0.033 C 
HETATM    3  C3  UNL     1      29.651   7.584  48.969  1.00  0.00     0.125 C 
HETATM    4  N1  UNL     1      30.125   8.857  48.730  1.00  0.00    -0.410 N 
HETATM    5  C4  UNL     1      30.810   9.026  47.457  1.00  0.00     0.143 C 
HETATM    6  C5  UNL     1      29.765  10.043  49.357  1.00  0.00     0.103 C 
HETATM    7  C6  UNL     1      30.901  11.100  49.266  1.00  0.00     0.034 C 
HETATM    8  C7  UNL     1      28.597  10.635  48.520  1.00  0.00     0.296 C 
HETATM    9  N2  UNL     1      27.640   9.585  48.452  1.00  0.00     0.090 N 
HETATM   10  C8  UNL     1      26.521   9.942  47.563  1.00  0.00     0.310 C 
HETATM   11  C9  UNL     1      27.112   9.176  49.738  1.00  0.00     0.311 C 
HETATM   12  C10 UNL     1      26.424   7.862  49.619  1.00  0.00    -0.021 A 
HETATM   13  C11 UNL     1      25.223   7.686  50.235  1.00  0.00     0.043 A 
HETATM   14  C12 UNL     1      24.639   6.458  50.065  1.00  0.00     0.082 A 
HETATM   15  C13 UNL     1      25.241   5.472  49.314  1.00  0.00     0.058 A 
HETATM   16  C14 UNL     1      26.473   5.854  48.764  1.00  0.00     0.039 A 
HETATM   17  C15 UNL     1      27.213   7.058  48.837  1.00  0.00    -0.043 A 
HETATM   18  N3  UNL     1      24.688   4.193  49.105  1.00  0.00    -0.370 N 
HETATM   19  C16 UNL     1      24.773   2.865  49.714  1.00  0.00     0.269 C 
HETATM   20  N4  UNL     1      24.380   2.861  51.093  1.00  0.00    -0.285 NA
HETATM   21  C17 UNL     1      25.312   2.935  51.998  1.00  0.00     0.107 C 
HETATM   22  C18 UNL     1      24.675   2.914  53.354  1.00  0.00     0.197 C 
HETATM   23  N5  UNL     1      23.910   4.118  53.467  1.00  0.00    -0.271 NA
HETATM   24  C19 UNL     1      23.350   4.759  52.516  1.00  0.00     0.278 C 
HETATM   25  O1  UNL     1      22.932   5.099  51.217  1.00  0.00    -0.231 OA
HETATM   26  N6  UNL     1      23.398   6.263  50.693  1.00  0.00    -0.258 N 
HETATM   27  H23 UNL     1      24.196   4.613  48.290  1.00  0.00     0.161 HD
HETATM   28  H30 UNL     1      22.755   7.087  50.776  1.00  0.00     0.195 HD
ENDROOT
TORSDOF 0
ENDMDL
MODEL 6
REMARK VINA RESULT:      -7.2      2.415      6.812
REMARK  0 active torsions:
REMARK  status: ('A' for Active; 'I' for Inactive)
ROOT
HETATM    1  C1  UNL     1      21.406   0.784  50.349  1.00  0.00     0.017 C 
HETATM    2  C2  UNL     1      22.588   0.533  51.353  1.00  0.00     0.033 C 
HETATM    3  C3  UNL     1      21.882   0.434  52.672  1.00  0.00     0.125 C 
HETATM    4  N1  UNL     1      22.335  -0.516  53.564  1.00  0.00    -0.410 N 
HETATM    5  C4  UNL     1      22.088  -1.894  53.168  1.00  0.00     0.143 C 
HETATM    6  C5  UNL     1      23.257  -0.364  54.591  1.00  0.00     0.103 C 
HETATM    7  C6  UNL     1      23.043  -1.425  55.707  1.00  0.00     0.034 C 
HETATM    8  C7  UNL     1      24.644  -0.701  53.978  1.00  0.00     0.296 C 
HETATM    9  N2  UNL     1      24.747   0.149  52.841  1.00  0.00     0.090 N 
HETATM   10  C8  UNL     1      25.959  -0.152  52.060  1.00  0.00     0.310 C 
HETATM   11  C9  UNL     1      24.722   1.564  53.152  1.00  0.00     0.311 C 
HETATM   12  C10 UNL     1      24.460   2.358  51.922  1.00  0.00    -0.021 A 
HETATM   13  C11 UNL     1      25.195   3.480  51.690  1.00  0.00     0.043 A 
HETATM   14  C12 UNL     1      24.914   4.149  50.527  1.00  0.00     0.082 A 
HETATM   15  C13 UNL     1      23.944   3.701  49.656  1.00  0.00     0.058 A 
HETATM   16  C14 UNL     1      23.304   2.528  50.077  1.00  0.00     0.039 A 
HETATM   17  C15 UNL     1      23.464   1.720  51.229  1.00  0.00    -0.043 A 
HETATM   18  N3  UNL     1      23.613   4.347  48.448  1.00  0.00    -0.370 N 
HETATM   19  C16 UNL     1      22.642   5.338  47.983  1.00  0.00     0.269 C 
HETATM   20  N4  UNL     1      22.749   6.588  48.676  1.00  0.00    -0.285 NA
HETATM   21  C17 UNL     1      21.946   6.808  49.675  1.00  0.00     0.107 C 
HETATM   22  C18 UNL     1      22.235   8.165  50.242  1.00  0.00     0.197 C 
HETATM   23  N5  UNL     1      23.555   8.107  50.792  1.00  0.00    -0.271 NA
HETATM   24  C19 UNL     1      24.518   7.371  50.392  1.00  0.00     0.278 C 
HETATM   25  O1  UNL     1      25.234   6.427  49.636  1.00  0.00    -0.231 OA
HETATM   26  N6  UNL     1      25.666   5.308  50.274  1.00  0.00    -0.258 N 
HETATM   27  H23 UNL     1      24.368   3.777  48.014  1.00  0.00     0.161 HD
HETATM   28  H30 UNL     1      26.660   5.329  50.605  1.00  0.00     0.195 HD
ENDROOT
TORSDOF 0
ENDMDL
MODEL 7
REMARK VINA RESULT:      -7.0      2.815      7.705
REMARK  0 active torsions:
REMARK  status: ('A' for Active; 'I' for Inactive)
ROOT
HETATM    1  C1  UNL     1      23.647   4.791  52.384  1.00  0.00     0.017 C 
HETATM    2  C2  UNL     1      23.618   3.228  52.543  1.00  0.00     0.033 C 
HETATM    3  C3  UNL     1      24.932   2.815  51.949  1.00  0.00     0.125 C 
HETATM    4  N1  UNL     1      25.620   1.798  52.579  1.00  0.00    -0.410 N 
HETATM    5  C4  UNL     1      26.157   2.141  53.887  1.00  0.00     0.143 C 
HETATM    6  C5  UNL     1      25.590   0.437  52.301  1.00  0.00     0.103 C 
HETATM    7  C6  UNL     1      26.897  -0.265  52.770  1.00  0.00     0.034 C 
HETATM    8  C7  UNL     1      24.471  -0.161  53.198  1.00  0.00     0.296 C 
HETATM    9  N2  UNL     1      23.319   0.619  52.896  1.00  0.00     0.090 N 
HETATM   10  C8  UNL     1      22.192   0.265  53.776  1.00  0.00     0.310 C 
HETATM   11  C9  UNL     1      22.888   0.533  51.515  1.00  0.00     0.311 C 
HETATM   12  C10 UNL     1      21.938   1.634  51.202  1.00  0.00    -0.021 A 
HETATM   13  C11 UNL     1      20.815   1.356  50.485  1.00  0.00     0.043 A 
HETATM   14  C12 UNL     1      19.977   2.415  50.253  1.00  0.00     0.082 A 
HETATM   15  C13 UNL     1      20.266   3.678  50.721  1.00  0.00     0.058 A 
HETATM   16  C14 UNL     1      21.469   3.754  51.437  1.00  0.00     0.039 A 
HETATM   17  C15 UNL     1      22.441   2.779  51.765  1.00  0.00    -0.043 A 
HETATM   18  N3  UNL     1      19.443   4.803  50.513  1.00  0.00    -0.370 N 
HETATM   19  C16 UNL     1      19.333   5.900  49.551  1.00  0.00     0.269 C 
HETATM   20  N4  UNL     1      19.127   5.442  48.208  1.00  0.00    -0.285 NA
HETATM   21  C17 UNL     1      20.162   5.344  47.426  1.00  0.00     0.107 C 
HETATM   22  C18 UNL     1      19.712   4.852  46.084  1.00  0.00     0.197 C 
HETATM   23  N5  UNL     1      19.228   3.519  46.277  1.00  0.00    -0.271 NA
HETATM   24  C19 UNL     1      18.693   3.046  47.335  1.00  0.00     0.278 C 
HETATM   25  O1  UNL     1      18.191   2.981  48.647  1.00  0.00    -0.231 OA
HETATM   26  N6  UNL     1      18.812   2.142  49.516  1.00  0.00    -0.258 N 
HETATM   27  H23 UNL     1      18.946   4.515  51.382  1.00  0.00     0.161 HD
HETATM   28  H30 UNL     1      18.366   1.200  49.635  1.00  0.00     0.195 HD
ENDROOT
TORSDOF 0
ENDMDL
MODEL 8
REMARK VINA RESULT:      -7.0      5.517      8.652
REMARK  0 active torsions:
REMARK  status: ('A' for Active; 'I' for Inactive)
ROOT
HETATM    1  C1  UNL     1      20.031  -0.902  53.489  1.00  0.00     0.017 C 
HETATM    2  C2  UNL     1      20.614   0.073  52.404  1.00  0.00     0.033 C 
HETATM    3  C3  UNL     1      21.191   1.181  53.235  1.00  0.00     0.125 C 
HETATM    4  N1  UNL     1      22.394   1.718  52.827  1.00  0.00    -0.410 N 
HETATM    5  C4  UNL     1      23.539   0.830  52.960  1.00  0.00     0.143 C 
HETATM    6  C5  UNL     1      22.612   2.831  52.023  1.00  0.00     0.103 C 
HETATM    7  C6  UNL     1      24.008   3.461  52.295  1.00  0.00     0.034 C 
HETATM    8  C7  UNL     1      22.689   2.299  50.565  1.00  0.00     0.296 C 
HETATM    9  N2  UNL     1      21.485   1.562  50.391  1.00  0.00     0.090 N 
HETATM   10  C8  UNL     1      21.469   0.868  49.092  1.00  0.00     0.310 C 
HETATM   11  C9  UNL     1      20.278   2.354  50.522  1.00  0.00     0.311 C 
HETATM   12  C10 UNL     1      19.096   1.467  50.697  1.00  0.00    -0.021 A 
HETATM   13  C11 UNL     1      17.958   1.737  50.002  1.00  0.00     0.043 A 
HETATM   14  C12 UNL     1      16.917   0.867  50.198  1.00  0.00     0.082 A 
HETATM   15  C13 UNL     1      17.031  -0.211  51.048  1.00  0.00     0.058 A 
HETATM   16  C14 UNL     1      18.285  -0.313  51.667  1.00  0.00     0.039 A 
HETATM   17  C15 UNL     1      19.452   0.483  51.583  1.00  0.00    -0.043 A 
HETATM   18  N3  UNL     1      15.997  -1.137  51.288  1.00  0.00    -0.370 N 
HETATM   19  C16 UNL     1      14.916  -1.325  52.257  1.00  0.00     0.269 C 
HETATM   20  N4  UNL     1      13.999  -0.223  52.286  1.00  0.00    -0.285 NA
HETATM   21  C17 UNL     1      14.164   0.690  53.197  1.00  0.00     0.107 C 
HETATM   22  C18 UNL     1      13.101   1.734  53.038  1.00  0.00     0.197 C 
HETATM   23  N5  UNL     1      13.339   2.374  51.780  1.00  0.00    -0.271 NA
HETATM   24  C19 UNL     1      13.869   1.850  50.745  1.00  0.00     0.278 C 
HETATM   25  O1  UNL     1      14.468   0.892  49.907  1.00  0.00    -0.231 OA
HETATM   26  N6  UNL     1      15.736   1.133  49.485  1.00  0.00    -0.258 N 
HETATM   27  H23 UNL     1      16.363  -1.657  50.464  1.00  0.00     0.161 HD
HETATM   28  H30 UNL     1      15.824   1.561  48.532  1.00  0.00     0.195 HD
ENDROOT
TORSDOF 0
ENDMDL
MODEL 9
REMARK VINA RESULT:      -7.0      6.881      9.786
REMARK  0 active torsions:
REMARK  status: ('A' for Active; 'I' for Inactive)
ROOT
HETATM    1  C1  UNL     1      17.526  -0.585  51.648  1.00  0.00     0.017 C 
HETATM    2  C2  UNL     1      18.343   0.705  51.276  1.00  0.00     0.033 C 
HETATM    3  C3  UNL     1      19.317   0.814  52.412  1.00  0.00     0.125 C 
HETATM    4  N1  UNL     1      20.604   1.205  52.107  1.00  0.00    -0.410 N 
HETATM    5  C4  UNL     1      21.377   0.232  51.351  1.00  0.00     0.143 C 
HETATM    6  C5  UNL     1      21.143   2.486  52.129  1.00  0.00     0.103 C 
HETATM    7  C6  UNL     1      22.684   2.448  52.333  1.00  0.00     0.034 C 
HETATM    8  C7  UNL     1      20.942   3.061  50.699  1.00  0.00     0.296 C 
HETATM    9  N2  UNL     1      19.549   2.915  50.450  1.00  0.00     0.090 N 
HETATM   10  C8  UNL     1      19.216   3.290  49.065  1.00  0.00     0.310 C 
HETATM   11  C9  UNL     1      18.701   3.658  51.360  1.00  0.00     0.311 C 
HETATM   12  C10 UNL     1      17.299   3.169  51.273  1.00  0.00    -0.021 A 
HETATM   13  C11 UNL     1      16.283   4.074  51.233  1.00  0.00     0.043 A 
HETATM   14  C12 UNL     1      15.020   3.552  51.132  1.00  0.00     0.082 A 
HETATM   15  C13 UNL     1      14.806   2.192  51.075  1.00  0.00     0.058 A 
HETATM   16  C14 UNL     1      15.983   1.432  51.129  1.00  0.00     0.039 A 
HETATM   17  C15 UNL     1      17.346   1.799  51.234  1.00  0.00    -0.043 A 
HETATM   18  N3  UNL     1      13.532   1.599  50.971  1.00  0.00    -0.370 N 
HETATM   19  C16 UNL     1      12.515   1.057  51.873  1.00  0.00     0.269 C 
HETATM   20  N4  UNL     1      12.039   2.025  52.818  1.00  0.00    -0.285 NA
HETATM   21  C17 UNL     1      12.565   2.033  54.007  1.00  0.00     0.107 C 
HETATM   22  C18 UNL     1      11.920   3.116  54.817  1.00  0.00     0.197 C 
HETATM   23  N5  UNL     1      12.286   4.358  54.207  1.00  0.00    -0.271 NA
HETATM   24  C19 UNL     1      12.539   4.557  52.972  1.00  0.00     0.278 C 
HETATM   25  O1  UNL     1      12.717   4.301  51.601  1.00  0.00    -0.231 OA
HETATM   26  N6  UNL     1      13.962   4.475  51.088  1.00  0.00    -0.258 N 
HETATM   27  H23 UNL     1      13.645   1.697  49.941  1.00  0.00     0.161 HD
HETATM   28  H30 UNL     1      14.134   5.396  50.616  1.00  0.00     0.195 HD
ENDROOT
TORSDOF 0
ENDMDL
