MODEL 1
REMARK VINA RESULT:      -8.6      0.000      0.000
REMARK  0 active torsions:
REMARK  status: ('A' for Active; 'I' for Inactive)
ROOT
HETATM    1  C1  UNL     1      27.606  -1.370  53.003  1.00  0.00     0.057 C 
HETATM    2  C2  UNL     1      26.487  -0.481  52.708  1.00  0.00    -0.018 C 
HETATM    3  C3  UNL     1      25.301  -0.869  53.197  1.00  0.00    -0.009 C 
HETATM    4  C4  UNL     1      23.815  -0.458  53.247  1.00  0.00     0.026 C 
HETATM    5  C5  UNL     1      22.522  -0.364  53.469  1.00  0.00     0.193 C 
HETATM    6  N1  UNL     1      22.799   0.768  52.608  1.00  0.00    -0.183 NA
HETATM    7  N2  UNL     1      21.916   0.896  51.637  1.00  0.00    -0.106 NA
HETATM    8  C6  UNL     1      22.178   1.998  50.747  1.00  0.00     0.443 A 
HETATM    9  N3  UNL     1      21.751   0.918  49.908  1.00  0.00    -0.190 NA
HETATM   10  C7  UNL     1      21.704   1.150  48.514  1.00  0.00     0.334 A 
HETATM   11  N4  UNL     1      22.140   2.295  49.149  1.00  0.00     0.113 N 
HETATM   12  C8  UNL     1      22.435   3.351  48.494  1.00  0.00     0.306 A 
HETATM   13  C9  UNL     1      22.331   2.728  49.701  1.00  0.00     0.399 A 
HETATM   14  F1  UNL     1      22.534   3.449  50.938  1.00  0.00    -0.294 F 
HETATM   15  C10 UNL     1      23.097   4.670  48.707  1.00  0.00     0.198 C 
HETATM   16  N5  UNL     1      24.078   4.346  49.399  1.00  0.00    -0.446 NA
HETATM   17  C11 UNL     1      25.186   4.389  50.116  1.00  0.00     0.324 C 
HETATM   18  N6  UNL     1      25.759   2.985  50.283  1.00  0.00    -0.209 NA
HETATM   19  N7  UNL     1      26.881   3.101  51.112  1.00  0.00    -0.113 NA
HETATM   20  O1  UNL     1      27.876   2.937  51.972  1.00  0.00     0.000 OA
HETATM   21  C12 UNL     1      26.751   1.852  51.642  1.00  0.00     0.122 A 
HETATM   22  C13 UNL     1      26.630   0.764  52.127  1.00  0.00    -0.093 C 
HETATM   23  H11 UNL     1      25.988   2.699  49.305  1.00  0.00     0.145 HD
HETATM   24  H12 UNL     1      28.769   3.054  51.505  1.00  0.00     0.000 HD
ENDROOT
TORSDOF 0
ENDMDL
MODEL 2
REMARK VINA RESULT:      -8.3      3.276      6.020
REMARK  0 active torsions:
REMARK  status: ('A' for Active; 'I' for Inactive)
ROOT
HETATM    1  C1  UNL     1      19.228  -0.141  52.008  1.00  0.00     0.057 C 
HETATM    2  C2  UNL     1      20.474   0.471  52.458  1.00  0.00    -0.018 C 
HETATM    3  C3  UNL     1      20.622   1.767  52.152  1.00  0.00    -0.009 C 
HETATM    4  C4  UNL     1      21.613   2.941  52.287  1.00  0.00     0.026 C 
HETATM    5  C5  UNL     1      22.229   4.103  52.258  1.00  0.00     0.193 C 
HETATM    6  N1  UNL     1      23.194   3.224  52.888  1.00  0.00    -0.183 NA
HETATM    7  N2  UNL     1      24.411   3.374  52.402  1.00  0.00    -0.106 NA
HETATM    8  C6  UNL     1      25.390   2.497  52.990  1.00  0.00     0.443 A 
HETATM    9  N3  UNL     1      25.693   2.529  51.590  1.00  0.00    -0.190 NA
HETATM   10  C7  UNL     1      26.779   1.746  51.136  1.00  0.00     0.334 A 
HETATM   11  N4  UNL     1      26.640   1.581  52.499  1.00  0.00     0.113 N 
HETATM   12  C8  UNL     1      27.420   0.816  53.162  1.00  0.00     0.306 A 
HETATM   13  C9  UNL     1      26.362   1.674  53.164  1.00  0.00     0.399 A 
HETATM   14  F1  UNL     1      25.744   2.101  54.400  1.00  0.00    -0.294 F 
HETATM   15  C10 UNL     1      27.525   0.204  54.518  1.00  0.00     0.198 C 
HETATM   16  N5  UNL     1      26.352  -0.153  54.720  1.00  0.00    -0.446 NA
HETATM   17  C11 UNL     1      25.263  -0.655  55.273  1.00  0.00     0.324 C 
HETATM   18  N6  UNL     1      24.168  -0.819  54.225  1.00  0.00    -0.209 NA
HETATM   19  N7  UNL     1      23.028  -1.279  54.897  1.00  0.00    -0.113 NA
HETATM   20  O1  UNL     1      21.808  -1.577  55.319  1.00  0.00     0.000 OA
HETATM   21  C12 UNL     1      22.152  -0.690  54.036  1.00  0.00     0.122 A 
HETATM   22  C13 UNL     1      21.376  -0.158  53.295  1.00  0.00    -0.093 C 
HETATM   23  H11 UNL     1      24.571  -1.515  53.559  1.00  0.00     0.145 HD
HETATM   24  H12 UNL     1      21.682  -2.583  55.351  1.00  0.00     0.000 HD
ENDROOT
TORSDOF 0
ENDMDL
MODEL 3
REMARK VINA RESULT:      -7.9      2.087      5.079
REMARK  0 active torsions:
REMARK  status: ('A' for Active; 'I' for Inactive)
ROOT
HETATM    1  C1  UNL     1      24.884   4.868  49.333  1.00  0.00     0.057 C 
HETATM    2  C2  UNL     1      24.357   3.614  49.861  1.00  0.00    -0.018 C 
HETATM    3  C3  UNL     1      23.262   3.146  49.247  1.00  0.00    -0.009 C 
HETATM    4  C4  UNL     1      22.248   1.984  49.291  1.00  0.00     0.026 C 
HETATM    5  C5  UNL     1      21.264   1.139  49.077  1.00  0.00     0.193 C 
HETATM    6  N1  UNL     1      21.917   0.604  50.254  1.00  0.00    -0.183 NA
HETATM    7  N2  UNL     1      21.062   0.253  51.195  1.00  0.00    -0.106 NA
HETATM    8  C6  UNL     1      21.682  -0.260  52.389  1.00  0.00     0.443 A 
HETATM    9  N3  UNL     1      20.604   0.570  52.840  1.00  0.00    -0.190 NA
HETATM   10  C7  UNL     1      20.418   0.703  54.235  1.00  0.00     0.334 A 
HETATM   11  N4  UNL     1      21.498  -0.123  53.999  1.00  0.00     0.113 N 
HETATM   12  C8  UNL     1      22.166  -0.639  54.958  1.00  0.00     0.306 A 
HETATM   13  C9  UNL     1      21.988  -0.498  53.615  1.00  0.00     0.399 A 
HETATM   14  F1  UNL     1      22.769  -1.264  52.669  1.00  0.00    -0.294 F 
HETATM   15  C10 UNL     1      23.444  -1.374  55.182  1.00  0.00     0.198 C 
HETATM   16  N5  UNL     1      24.225  -0.744  54.448  1.00  0.00    -0.446 NA
HETATM   17  C11 UNL     1      25.308  -0.341  53.808  1.00  0.00     0.324 C 
HETATM   18  N6  UNL     1      25.087   1.051  53.227  1.00  0.00    -0.209 NA
HETATM   19  N7  UNL     1      26.241   1.376  52.502  1.00  0.00    -0.113 NA
HETATM   20  O1  UNL     1      27.149   1.845  51.660  1.00  0.00     0.000 OA
HETATM   21  C12 UNL     1      25.585   2.167  51.607  1.00  0.00     0.122 A 
HETATM   22  C13 UNL     1      25.012   2.846  50.805  1.00  0.00    -0.093 C 
HETATM   23  H11 UNL     1      24.941   1.647  54.072  1.00  0.00     0.145 HD
HETATM   24  H12 UNL     1      27.863   2.361  52.162  1.00  0.00     0.000 HD
ENDROOT
TORSDOF 0
ENDMDL
MODEL 4
REMARK VINA RESULT:      -7.9      2.232      2.614
REMARK  0 active torsions:
REMARK  status: ('A' for Active; 'I' for Inactive)
ROOT
HETATM    1  C1  UNL     1      26.728  -0.957  52.441  1.00  0.00     0.057 C 
HETATM    2  C2  UNL     1      25.459  -0.289  52.709  1.00  0.00    -0.018 C 
HETATM    3  C3  UNL     1      24.649  -0.917  53.573  1.00  0.00    -0.009 C 
HETATM    4  C4  UNL     1      23.265  -0.801  54.243  1.00  0.00     0.026 C 
HETATM    5  C5  UNL     1      22.175  -0.966  54.960  1.00  0.00     0.193 C 
HETATM    6  N1  UNL     1      21.897   0.232  54.194  1.00  0.00    -0.183 NA
HETATM    7  N2  UNL     1      20.689   0.229  53.664  1.00  0.00    -0.106 NA
HETATM    8  C6  UNL     1      20.390   1.396  52.876  1.00  0.00     0.443 A 
HETATM    9  N3  UNL     1      19.840   0.290  52.151  1.00  0.00    -0.190 NA
HETATM   10  C7  UNL     1      19.198   0.565  50.921  1.00  0.00     0.334 A 
HETATM   11  N4  UNL     1      19.665   1.745  51.463  1.00  0.00     0.113 N 
HETATM   12  C8  UNL     1      19.498   2.865  50.871  1.00  0.00     0.306 A 
HETATM   13  C9  UNL     1      19.990   2.185  51.943  1.00  0.00     0.399 A 
HETATM   14  F1  UNL     1      20.557   2.880  53.078  1.00  0.00    -0.294 F 
HETATM   15  C10 UNL     1      19.970   4.277  50.959  1.00  0.00     0.198 C 
HETATM   16  N5  UNL     1      21.184   4.118  51.174  1.00  0.00    -0.446 NA
HETATM   17  C11 UNL     1      22.466   4.344  51.402  1.00  0.00     0.324 C 
HETATM   18  N6  UNL     1      23.272   3.070  51.172  1.00  0.00    -0.209 NA
HETATM   19  N7  UNL     1      24.600   3.365  51.507  1.00  0.00    -0.113 NA
HETATM   20  O1  UNL     1      25.869   3.360  51.888  1.00  0.00     0.000 OA
HETATM   21  C12 UNL     1      24.895   2.094  51.899  1.00  0.00     0.122 A 
HETATM   22  C13 UNL     1      25.156   0.984  52.265  1.00  0.00    -0.093 C 
HETATM   23  H11 UNL     1      23.131   2.874  50.156  1.00  0.00     0.145 HD
HETATM   24  H12 UNL     1      26.467   3.665  51.127  1.00  0.00     0.000 HD
ENDROOT
TORSDOF 0
ENDMDL
MODEL 5
REMARK VINA RESULT:      -7.8      2.174      4.344
REMARK  0 active torsions:
REMARK  status: ('A' for Active; 'I' for Inactive)
ROOT
HETATM    1  C1  UNL     1      28.662   2.119  53.804  1.00  0.00     0.057 C 
HETATM    2  C2  UNL     1      27.410   1.933  53.077  1.00  0.00    -0.018 C 
HETATM    3  C3  UNL     1      27.301   2.625  51.934  1.00  0.00    -0.009 C 
HETATM    4  C4  UNL     1      26.328   2.899  50.769  1.00  0.00     0.026 C 
HETATM    5  C5  UNL     1      25.737   3.307  49.668  1.00  0.00     0.193 C 
HETATM    6  N1  UNL     1      24.729   2.486  50.307  1.00  0.00    -0.183 NA
HETATM    7  N2  UNL     1      23.537   3.050  50.306  1.00  0.00    -0.106 NA
HETATM    8  C6  UNL     1      22.517   2.269  50.957  1.00  0.00     0.443 A 
HETATM    9  N3  UNL     1      22.274   3.626  51.351  1.00  0.00    -0.190 NA
HETATM   10  C7  UNL     1      21.193   3.871  52.228  1.00  0.00     0.334 A 
HETATM   11  N4  UNL     1      21.271   2.517  51.971  1.00  0.00     0.113 N 
HETATM   12  C8  UNL     1      20.449   1.690  52.494  1.00  0.00     0.306 A 
HETATM   13  C9  UNL     1      21.523   1.899  51.682  1.00  0.00     0.399 A 
HETATM   14  F1  UNL     1      22.095   0.824  50.903  1.00  0.00    -0.294 F 
HETATM   15  C10 UNL     1      20.275   0.218  52.664  1.00  0.00     0.198 C 
HETATM   16  N5  UNL     1      21.431  -0.136  52.950  1.00  0.00    -0.446 NA
HETATM   17  C11 UNL     1      22.486  -0.866  53.266  1.00  0.00     0.324 C 
HETATM   18  N6  UNL     1      23.621   0.032  53.747  1.00  0.00    -0.209 NA
HETATM   19  N7  UNL     1      24.722  -0.801  53.987  1.00  0.00    -0.113 NA
HETATM   20  O1  UNL     1      25.916  -1.349  54.150  1.00  0.00     0.000 OA
HETATM   21  C12 UNL     1      25.645   0.158  53.694  1.00  0.00     0.122 A 
HETATM   22  C13 UNL     1      26.461   0.988  53.416  1.00  0.00    -0.093 C 
HETATM   23  H11 UNL     1      23.233   0.472  54.610  1.00  0.00     0.145 HD
HETATM   24  H12 UNL     1      26.022  -1.690  55.100  1.00  0.00     0.000 HD
ENDROOT
TORSDOF 0
ENDMDL
MODEL 6
REMARK VINA RESULT:      -7.7      2.009      3.483
REMARK  0 active torsions:
REMARK  status: ('A' for Active; 'I' for Inactive)
ROOT
HETATM    1  C1  UNL     1      21.504  -1.976  54.299  1.00  0.00     0.057 C 
HETATM    2  C2  UNL     1      21.927  -0.688  53.758  1.00  0.00    -0.018 C 
HETATM    3  C3  UNL     1      20.946   0.200  53.551  1.00  0.00    -0.009 C 
HETATM    4  C4  UNL     1      20.690   1.627  53.025  1.00  0.00     0.026 C 
HETATM    5  C5  UNL     1      20.175   2.780  52.658  1.00  0.00     0.193 C 
HETATM    6  N1  UNL     1      21.577   2.913  52.316  1.00  0.00    -0.183 NA
HETATM    7  N2  UNL     1      21.762   3.425  51.115  1.00  0.00    -0.106 NA
HETATM    8  C6  UNL     1      23.146   3.547  50.735  1.00  0.00     0.443 A 
HETATM    9  N3  UNL     1      22.461   3.096  49.560  1.00  0.00    -0.190 NA
HETATM   10  C7  UNL     1      23.233   2.873  48.397  1.00  0.00     0.334 A 
HETATM   11  N4  UNL     1      24.062   3.294  49.417  1.00  0.00     0.113 N 
HETATM   12  C8  UNL     1      25.320   3.430  49.242  1.00  0.00     0.306 A 
HETATM   13  C9  UNL     1      24.252   3.519  50.082  1.00  0.00     0.399 A 
HETATM   14  F1  UNL     1      24.385   4.072  51.411  1.00  0.00    -0.294 F 
HETATM   15  C10 UNL     1      26.560   3.644  50.043  1.00  0.00     0.198 C 
HETATM   16  N5  UNL     1      26.373   2.874  51.000  1.00  0.00    -0.446 NA
HETATM   17  C11 UNL     1      26.524   2.198  52.125  1.00  0.00     0.324 C 
HETATM   18  N6  UNL     1      25.525   1.048  52.185  1.00  0.00    -0.209 NA
HETATM   19  N7  UNL     1      25.693   0.431  53.432  1.00  0.00    -0.113 NA
HETATM   20  O1  UNL     1      25.570  -0.222  54.578  1.00  0.00     0.000 OA
HETATM   21  C12 UNL     1      24.394   0.027  53.526  1.00  0.00     0.122 A 
HETATM   22  C13 UNL     1      23.250  -0.312  53.624  1.00  0.00    -0.093 C 
HETATM   23  H11 UNL     1      25.800   0.444  51.379  1.00  0.00     0.145 HD
HETATM   24  H12 UNL     1      26.209  -1.009  54.606  1.00  0.00     0.000 HD
ENDROOT
TORSDOF 0
ENDMDL
MODEL 7
REMARK VINA RESULT:      -7.5      2.454      6.225
REMARK  0 active torsions:
REMARK  status: ('A' for Active; 'I' for Inactive)
ROOT
HETATM    1  C1  UNL     1      21.630   2.241  47.452  1.00  0.00     0.057 C 
HETATM    2  C2  UNL     1      22.350   2.212  48.721  1.00  0.00    -0.018 C 
HETATM    3  C3  UNL     1      23.405   3.034  48.803  1.00  0.00    -0.009 C 
HETATM    4  C4  UNL     1      24.536   3.468  49.757  1.00  0.00     0.026 C 
HETATM    5  C5  UNL     1      25.572   4.034  50.337  1.00  0.00     0.193 C 
HETATM    6  N1  UNL     1      25.130   3.059  51.313  1.00  0.00    -0.183 NA
HETATM    7  N2  UNL     1      26.128   2.364  51.826  1.00  0.00    -0.106 NA
HETATM    8  C6  UNL     1      25.719   1.368  52.783  1.00  0.00     0.443 A 
HETATM    9  N3  UNL     1      26.748   0.752  51.999  1.00  0.00    -0.190 NA
HETATM   10  C7  UNL     1      27.090  -0.586  52.303  1.00  0.00     0.334 A 
HETATM   11  N4  UNL     1      26.084  -0.172  53.152  1.00  0.00     0.113 N 
HETATM   12  C8  UNL     1      25.599  -0.949  54.042  1.00  0.00     0.306 A 
HETATM   13  C9  UNL     1      25.594   0.276  53.448  1.00  0.00     0.399 A 
HETATM   14  F1  UNL     1      24.789   1.359  53.968  1.00  0.00    -0.294 F 
HETATM   15  C10 UNL     1      24.445  -1.014  54.985  1.00  0.00     0.198 C 
HETATM   16  N5  UNL     1      23.517  -0.601  54.269  1.00  0.00    -0.446 NA
HETATM   17  C11 UNL     1      22.326  -0.225  53.838  1.00  0.00     0.324 C 
HETATM   18  N6  UNL     1      22.322  -0.133  52.316  1.00  0.00    -0.209 NA
HETATM   19  N7  UNL     1      21.059   0.343  51.942  1.00  0.00    -0.113 NA
HETATM   20  O1  UNL     1      20.009   0.902  51.359  1.00  0.00     0.000 OA
HETATM   21  C12 UNL     1      21.510   0.967  50.817  1.00  0.00     0.122 A 
HETATM   22  C13 UNL     1      21.903   1.535  49.839  1.00  0.00    -0.093 C 
HETATM   23  H11 UNL     1      22.506  -1.116  52.014  1.00  0.00     0.145 HD
HETATM   24  H12 UNL     1      19.311   0.199  51.142  1.00  0.00     0.000 HD
ENDROOT
TORSDOF 0
ENDMDL
MODEL 8
REMARK VINA RESULT:      -7.5      2.496      6.192
REMARK  0 active torsions:
REMARK  status: ('A' for Active; 'I' for Inactive)
ROOT
HETATM    1  C1  UNL     1      21.910   3.341  46.373  1.00  0.00     0.057 C 
HETATM    2  C2  UNL     1      22.214   3.174  47.790  1.00  0.00    -0.018 C 
HETATM    3  C3  UNL     1      23.080   4.060  48.301  1.00  0.00    -0.009 C 
HETATM    4  C4  UNL     1      23.807   4.433  49.610  1.00  0.00     0.026 C 
HETATM    5  C5  UNL     1      24.538   4.986  50.552  1.00  0.00     0.193 C 
HETATM    6  N1  UNL     1      23.954   3.836  51.211  1.00  0.00    -0.183 NA
HETATM    7  N2  UNL     1      24.832   3.157  51.923  1.00  0.00    -0.106 NA
HETATM    8  C6  UNL     1      24.287   1.992  52.571  1.00  0.00     0.443 A 
HETATM    9  N3  UNL     1      25.575   1.595  52.084  1.00  0.00    -0.190 NA
HETATM   10  C7  UNL     1      25.980   0.260  52.313  1.00  0.00     0.334 A 
HETATM   11  N4  UNL     1      24.721   0.449  52.845  1.00  0.00     0.113 N 
HETATM   12  C8  UNL     1      24.095  -0.496  53.434  1.00  0.00     0.306 A 
HETATM   13  C9  UNL     1      24.111   0.802  53.024  1.00  0.00     0.399 A 
HETATM   14  F1  UNL     1      23.054   1.719  53.392  1.00  0.00    -0.294 F 
HETATM   15  C10 UNL     1      22.730  -0.805  53.949  1.00  0.00     0.198 C 
HETATM   16  N5  UNL     1      22.014  -0.365  53.033  1.00  0.00    -0.446 NA
HETATM   17  C11 UNL     1      20.970  -0.028  52.298  1.00  0.00     0.324 C 
HETATM   18  N6  UNL     1      21.411   0.300  50.876  1.00  0.00    -0.209 NA
HETATM   19  N7  UNL     1      20.268   0.721  50.184  1.00  0.00    -0.113 NA
HETATM   20  O1  UNL     1      19.379   1.273  49.373  1.00  0.00     0.000 OA
HETATM   21  C12 UNL     1      20.952   1.549  49.345  1.00  0.00     0.122 A 
HETATM   22  C13 UNL     1      21.543   2.295  48.618  1.00  0.00    -0.093 C 
HETATM   23  H11 UNL     1      21.802  -0.603  50.529  1.00  0.00     0.145 HD
HETATM   24  H12 UNL     1      18.875   0.556  48.861  1.00  0.00     0.000 HD
ENDROOT
TORSDOF 0
ENDMDL
MODEL 9
REMARK VINA RESULT:      -7.3      8.068     10.718
REMARK  0 active torsions:
REMARK  status: ('A' for Active; 'I' for Inactive)
ROOT
HETATM    1  C1  UNL     1      36.222   6.111  49.345  1.00  0.00     0.057 C 
HETATM    2  C2  UNL     1      35.004   6.623  48.724  1.00  0.00    -0.018 C 
HETATM    3  C3  UNL     1      35.155   7.736  47.994  1.00  0.00    -0.009 C 
HETATM    4  C4  UNL     1      34.360   8.750  47.145  1.00  0.00     0.026 C 
HETATM    5  C5  UNL     1      33.965   9.740  46.376  1.00  0.00     0.193 C 
HETATM    6  N1  UNL     1      32.731   9.052  46.700  1.00  0.00    -0.183 NA
HETATM    7  N2  UNL     1      31.763   9.879  47.044  1.00  0.00    -0.106 NA
HETATM    8  C6  UNL     1      30.529   9.224  47.395  1.00  0.00     0.443 A 
HETATM    9  N3  UNL     1      30.686  10.287  48.343  1.00  0.00    -0.190 NA
HETATM   10  C7  UNL     1      29.690  10.432  49.336  1.00  0.00     0.334 A 
HETATM   11  N4  UNL     1      29.371   9.360  48.528  1.00  0.00     0.113 N 
HETATM   12  C8  UNL     1      28.319   8.664  48.726  1.00  0.00     0.306 A 
HETATM   13  C9  UNL     1      29.440   8.882  47.985  1.00  0.00     0.399 A 
HETATM   14  F1  UNL     1      29.699   8.130  46.777  1.00  0.00    -0.294 F 
HETATM   15  C10 UNL     1      27.706   7.380  48.277  1.00  0.00     0.198 C 
HETATM   16  N5  UNL     1      28.691   6.621  48.281  1.00  0.00    -0.446 NA
HETATM   17  C11 UNL     1      29.466   5.558  48.164  1.00  0.00     0.324 C 
HETATM   18  N6  UNL     1      30.795   5.795  48.873  1.00  0.00    -0.209 NA
HETATM   19  N7  UNL     1      31.586   4.663  48.640  1.00  0.00    -0.113 NA
HETATM   20  O1  UNL     1      32.555   3.781  48.448  1.00  0.00     0.000 OA
HETATM   21  C12 UNL     1      32.765   5.344  48.694  1.00  0.00     0.122 A 
HETATM   22  C13 UNL     1      33.803   5.941  48.719  1.00  0.00    -0.093 C 
HETATM   23  H11 UNL     1      30.519   5.915  49.873  1.00  0.00     0.145 HD
HETATM   24  H12 UNL     1      32.513   3.051  49.152  1.00  0.00     0.000 HD
ENDROOT
TORSDOF 0
ENDMDL
