MODEL 1
REMARK VINA RESULT:      -8.1      0.000      0.000
REMARK  6 active torsions:
REMARK  status: ('A' for Active; 'I' for Inactive)
REMARK    1  A    between atoms: O1_2  and  C2_3 
REMARK    2  A    between atoms: C5_6  and  C6_7 
REMARK    3  A    between atoms: C6_7  and  N1_8 
REMARK    4  A    between atoms: N1_8  and  C7_9 
REMARK    5  A    between atoms: C18_22  and  C19_23 
REMARK    6  A    between atoms: C19_23  and  O3_24 
ROOT
HETATM    1  N1  UNL     1      24.380   4.382  51.982  1.00  0.00    -0.386 N 
HETATM    2  H9  UNL     1      25.297   4.312  52.530  1.00  0.00     0.160 HD
ENDROOT
BRANCH   1   3
HETATM    3  C6  UNL     1      24.180   5.650  51.242  1.00  0.00     0.154 C 
BRANCH   3   4
HETATM    4  C5  UNL     1      25.130   5.757  50.147  1.00  0.00    -0.054 C 
HETATM    5  C4  UNL     1      25.376   4.495  49.403  1.00  0.00     0.065 C 
HETATM    6  C3  UNL     1      26.787   4.270  49.111  1.00  0.00     0.010 C 
HETATM    7  C2  UNL     1      27.556   5.246  48.604  1.00  0.00     0.046 C 
HETATM    8  C20 UNL     1      26.780   6.528  48.401  1.00  0.00     0.100 C 
HETATM    9  C18 UNL     1      25.846   6.678  49.573  1.00  0.00    -0.046 C 
BRANCH   7  10
HETATM   10  O1  UNL     1      28.876   4.787  48.406  1.00  0.00    -0.360 OA
HETATM   11  C1  UNL     1      29.929   5.671  48.144  1.00  0.00     0.209 C 
ENDBRANCH   7  10
BRANCH   9  12
HETATM   12  C19 UNL     1      25.816   8.047  50.086  1.00  0.00     0.199 C 
BRANCH  12  13
HETATM   13  O3  UNL     1      26.844   8.476  50.853  1.00  0.00    -0.397 OA
HETATM   14  H24 UNL     1      27.706   8.044  50.707  1.00  0.00     0.209 HD
ENDBRANCH  12  13
ENDBRANCH   9  12
ENDBRANCH   3   4
ENDBRANCH   1   3
BRANCH   1  15
HETATM   15  C7  UNL     1      23.650   3.181  52.145  1.00  0.00     0.029 C 
HETATM   16  C8  UNL     1      24.727   2.710  52.753  1.00  0.00     0.048 C 
HETATM   17  C9  UNL     1      25.842   2.135  53.414  1.00  0.00     0.113 C 
HETATM   18  N2  UNL     1      26.185   0.990  54.005  1.00  0.00    -0.294 NA
HETATM   19  C10 UNL     1      25.222  -0.051  54.036  1.00  0.00     0.139 C 
HETATM   20  C11 UNL     1      24.154  -0.806  54.208  1.00  0.00     0.045 C 
HETATM   21  C12 UNL     1      22.727  -0.937  54.727  1.00  0.00     0.181 C 
HETATM   22  O2  UNL     1      21.931  -1.246  53.556  1.00  0.00    -0.362 OA
HETATM   23  C13 UNL     1      21.339  -0.270  52.798  1.00  0.00     0.141 C 
HETATM   24  C14 UNL     1      20.894   0.801  52.067  1.00  0.00    -0.040 C 
HETATM   25  C15 UNL     1      19.657   0.161  51.753  1.00  0.00     0.050 C 
HETATM   26  C16 UNL     1      21.304   2.133  51.646  1.00  0.00     0.011 C 
HETATM   27  C17 UNL     1      22.322   2.972  51.700  1.00  0.00     0.030 C 
ENDBRANCH   1  15
TORSDOF 6
ENDMDL
MODEL 2
REMARK VINA RESULT:      -8.1      2.235      8.226
REMARK  6 active torsions:
REMARK  status: ('A' for Active; 'I' for Inactive)
REMARK    1  A    between atoms: O1_2  and  C2_3 
REMARK    2  A    between atoms: C5_6  and  C6_7 
REMARK    3  A    between atoms: C6_7  and  N1_8 
REMARK    4  A    between atoms: N1_8  and  C7_9 
REMARK    5  A    between atoms: C18_22  and  C19_23 
REMARK    6  A    between atoms: C19_23  and  O3_24 
ROOT
HETATM    1  N1  UNL     1      24.791   3.656  50.541  1.00  0.00    -0.386 N 
HETATM    2  H9  UNL     1      24.380   3.046  49.763  1.00  0.00     0.160 HD
ENDROOT
BRANCH   1   3
HETATM    3  C6  UNL     1      24.385   3.287  51.917  1.00  0.00     0.154 C 
BRANCH   3   4
HETATM    4  C5  UNL     1      24.905   1.976  52.269  1.00  0.00    -0.054 C 
HETATM    5  C4  UNL     1      23.895   0.886  52.296  1.00  0.00     0.065 C 
HETATM    6  C3  UNL     1      24.038   0.005  53.448  1.00  0.00     0.010 C 
HETATM    7  C2  UNL     1      25.236  -0.486  53.803  1.00  0.00     0.046 C 
HETATM    8  C20 UNL     1      26.336  -0.008  52.884  1.00  0.00     0.100 C 
HETATM    9  C18 UNL     1      26.051   1.434  52.553  1.00  0.00    -0.046 C 
BRANCH   7  10
HETATM   10  O1  UNL     1      25.116  -1.312  54.942  1.00  0.00    -0.360 OA
HETATM   11  C1  UNL     1      23.938  -1.358  55.695  1.00  0.00     0.209 C 
ENDBRANCH   7  10
BRANCH   9  12
HETATM   12  C19 UNL     1      27.255   2.262  52.605  1.00  0.00     0.199 C 
BRANCH  12  13
HETATM   13  O3  UNL     1      27.675   2.724  53.805  1.00  0.00    -0.397 OA
HETATM   14  H24 UNL     1      27.113   2.513  54.574  1.00  0.00     0.209 HD
ENDBRANCH  12  13
ENDBRANCH   9  12
ENDBRANCH   3   4
ENDBRANCH   1   3
BRANCH   1  15
HETATM   15  C7  UNL     1      25.633   4.636  49.964  1.00  0.00     0.029 C 
HETATM   16  C8  UNL     1      24.767   5.526  50.422  1.00  0.00     0.048 C 
HETATM   17  C9  UNL     1      23.886   6.538  50.879  1.00  0.00     0.113 C 
HETATM   18  N2  UNL     1      23.782   7.866  50.869  1.00  0.00    -0.294 NA
HETATM   19  C10 UNL     1      24.808   8.603  50.222  1.00  0.00     0.139 C 
HETATM   20  C11 UNL     1      25.944   9.140  49.819  1.00  0.00     0.045 C 
HETATM   21  C12 UNL     1      27.457   9.235  49.966  1.00  0.00     0.181 C 
HETATM   22  O2  UNL     1      27.984   8.805  48.686  1.00  0.00    -0.362 OA
HETATM   23  C13 UNL     1      28.303   7.498  48.430  1.00  0.00     0.141 C 
HETATM   24  C14 UNL     1      28.480   6.148  48.268  1.00  0.00    -0.040 C 
HETATM   25  C15 UNL     1      29.658   6.326  47.482  1.00  0.00     0.050 C 
HETATM   26  C16 UNL     1      27.877   4.875  48.638  1.00  0.00     0.011 C 
HETATM   27  C17 UNL     1      26.835   4.363  49.266  1.00  0.00     0.030 C 
ENDBRANCH   1  15
TORSDOF 6
ENDMDL
MODEL 3
REMARK VINA RESULT:      -8.1      1.552      2.073
REMARK  6 active torsions:
REMARK  status: ('A' for Active; 'I' for Inactive)
REMARK    1  A    between atoms: O1_2  and  C2_3 
REMARK    2  A    between atoms: C5_6  and  C6_7 
REMARK    3  A    between atoms: C6_7  and  N1_8 
REMARK    4  A    between atoms: N1_8  and  C7_9 
REMARK    5  A    between atoms: C18_22  and  C19_23 
REMARK    6  A    between atoms: C19_23  and  O3_24 
ROOT
HETATM    1  N1  UNL     1      24.467   3.212  50.728  1.00  0.00    -0.386 N 
HETATM    2  H9  UNL     1      24.481   2.814  49.734  1.00  0.00     0.160 HD
ENDROOT
BRANCH   1   3
HETATM    3  C6  UNL     1      24.517   4.690  50.820  1.00  0.00     0.154 C 
BRANCH   3   4
HETATM    4  C5  UNL     1      25.499   5.225  49.891  1.00  0.00    -0.054 C 
HETATM    5  C4  UNL     1      26.057   4.240  48.929  1.00  0.00     0.065 C 
HETATM    6  C3  UNL     1      27.501   4.360  48.763  1.00  0.00     0.010 C 
HETATM    7  C2  UNL     1      28.081   5.555  48.567  1.00  0.00     0.046 C 
HETATM    8  C20 UNL     1      27.068   6.678  48.552  1.00  0.00     0.100 C 
HETATM    9  C18 UNL     1      26.043   6.373  49.613  1.00  0.00    -0.046 C 
BRANCH   7  10
HETATM   10  O1  UNL     1      29.478   5.413  48.432  1.00  0.00    -0.360 OA
HETATM   11  C1  UNL     1      30.233   6.293  47.648  1.00  0.00     0.209 C 
ENDBRANCH   7  10
BRANCH   9  12
HETATM   12  C19 UNL     1      25.690   7.555  50.397  1.00  0.00     0.199 C 
BRANCH  12  13
HETATM   13  O3  UNL     1      26.677   8.386  50.802  1.00  0.00    -0.397 OA
HETATM   14  H24 UNL     1      26.503   8.910  51.606  1.00  0.00     0.209 HD
ENDBRANCH  12  13
ENDBRANCH   9  12
ENDBRANCH   3   4
ENDBRANCH   1   3
BRANCH   1  15
HETATM   15  C7  UNL     1      24.382   2.144  51.653  1.00  0.00     0.029 C 
HETATM   16  C8  UNL     1      25.694   2.268  51.785  1.00  0.00     0.048 C 
HETATM   17  C9  UNL     1      27.096   2.340  51.978  1.00  0.00     0.113 C 
HETATM   18  N2  UNL     1      28.047   1.747  52.701  1.00  0.00    -0.294 NA
HETATM   19  C10 UNL     1      27.655   0.701  53.576  1.00  0.00     0.139 C 
HETATM   20  C11 UNL     1      27.106  -0.055  54.509  1.00  0.00     0.045 C 
HETATM   21  C12 UNL     1      26.118  -0.179  55.661  1.00  0.00     0.181 C 
HETATM   22  O2  UNL     1      25.170  -1.189  55.233  1.00  0.00    -0.362 OA
HETATM   23  C13 UNL     1      24.020  -0.871  54.560  1.00  0.00     0.141 C 
HETATM   24  C14 UNL     1      22.964  -0.430  53.804  1.00  0.00    -0.040 C 
HETATM   25  C15 UNL     1      22.063  -1.369  54.390  1.00  0.00     0.050 C 
HETATM   26  C16 UNL     1      22.637   0.553  52.781  1.00  0.00     0.011 C 
HETATM   27  C17 UNL     1      23.185   1.484  52.022  1.00  0.00     0.030 C 
ENDBRANCH   1  15
TORSDOF 6
ENDMDL
MODEL 4
REMARK VINA RESULT:      -8.0      3.453      6.121
REMARK  6 active torsions:
REMARK  status: ('A' for Active; 'I' for Inactive)
REMARK    1  A    between atoms: O1_2  and  C2_3 
REMARK    2  A    between atoms: C5_6  and  C6_7 
REMARK    3  A    between atoms: C6_7  and  N1_8 
REMARK    4  A    between atoms: N1_8  and  C7_9 
REMARK    5  A    between atoms: C18_22  and  C19_23 
REMARK    6  A    between atoms: C19_23  and  O3_24 
ROOT
HETATM    1  N1  UNL     1      22.208   1.800  52.876  1.00  0.00    -0.386 N 
HETATM    2  H9  UNL     1      22.436   2.177  53.852  1.00  0.00     0.160 HD
ENDROOT
BRANCH   1   3
HETATM    3  C6  UNL     1      23.243   2.047  51.844  1.00  0.00     0.154 C 
BRANCH   3   4
HETATM    4  C5  UNL     1      24.442   1.277  52.130  1.00  0.00    -0.054 C 
HETATM    5  C4  UNL     1      24.222   0.043  52.928  1.00  0.00     0.065 C 
HETATM    6  C3  UNL     1      25.215  -0.144  53.977  1.00  0.00     0.010 C 
HETATM    7  C2  UNL     1      26.526  -0.002  53.726  1.00  0.00     0.046 C 
HETATM    8  C20 UNL     1      26.788   0.361  52.282  1.00  0.00     0.100 C 
HETATM    9  C18 UNL     1      25.712   1.327  51.859  1.00  0.00    -0.046 C 
BRANCH   7  10
HETATM   10  O1  UNL     1      27.284  -0.235  54.894  1.00  0.00    -0.360 OA
HETATM   11  C1  UNL     1      28.648   0.074  54.958  1.00  0.00     0.209 C 
ENDBRANCH   7  10
BRANCH   9  12
HETATM   12  C19 UNL     1      26.246   2.441  51.077  1.00  0.00     0.199 C 
BRANCH  12  13
HETATM   13  O3  UNL     1      27.388   3.038  51.490  1.00  0.00    -0.397 OA
HETATM   14  H24 UNL     1      28.221   2.676  51.135  1.00  0.00     0.209 HD
ENDBRANCH  12  13
ENDBRANCH   9  12
ENDBRANCH   3   4
ENDBRANCH   1   3
BRANCH   1  15
HETATM   15  C7  UNL     1      20.951   1.152  52.911  1.00  0.00     0.029 C 
HETATM   16  C8  UNL     1      20.451   2.282  52.435  1.00  0.00     0.048 C 
HETATM   17  C9  UNL     1      19.843   3.457  51.927  1.00  0.00     0.113 C 
HETATM   18  N2  UNL     1      18.636   3.894  51.567  1.00  0.00    -0.294 NA
HETATM   19  C10 UNL     1      17.545   2.997  51.694  1.00  0.00     0.139 C 
HETATM   20  C11 UNL     1      16.700   1.985  51.629  1.00  0.00     0.045 C 
HETATM   21  C12 UNL     1      16.383   0.594  51.095  1.00  0.00     0.181 C 
HETATM   22  O2  UNL     1      16.238  -0.235  52.276  1.00  0.00    -0.362 OA
HETATM   23  C13 UNL     1      17.292  -0.917  52.823  1.00  0.00     0.141 C 
HETATM   24  C14 UNL     1      18.445  -1.458  53.331  1.00  0.00    -0.040 C 
HETATM   25  C15 UNL     1      17.791  -2.666  53.716  1.00  0.00     0.050 C 
HETATM   26  C16 UNL     1      19.856  -1.147  53.515  1.00  0.00     0.011 C 
HETATM   27  C17 UNL     1      20.738  -0.180  53.342  1.00  0.00     0.030 C 
ENDBRANCH   1  15
TORSDOF 6
ENDMDL
MODEL 5
REMARK VINA RESULT:      -7.9      3.214      6.202
REMARK  6 active torsions:
REMARK  status: ('A' for Active; 'I' for Inactive)
REMARK    1  A    between atoms: O1_2  and  C2_3 
REMARK    2  A    between atoms: C5_6  and  C6_7 
REMARK    3  A    between atoms: C6_7  and  N1_8 
REMARK    4  A    between atoms: N1_8  and  C7_9 
REMARK    5  A    between atoms: C18_22  and  C19_23 
REMARK    6  A    between atoms: C19_23  and  O3_24 
ROOT
HETATM    1  N1  UNL     1      25.682   2.982  51.504  1.00  0.00    -0.386 N 
HETATM    2  H9  UNL     1      25.973   4.011  51.540  1.00  0.00     0.160 HD
ENDROOT
BRANCH   1   3
HETATM    3  C6  UNL     1      26.770   2.026  51.190  1.00  0.00     0.154 C 
BRANCH   3   4
HETATM    4  C5  UNL     1      27.060   1.187  52.340  1.00  0.00    -0.054 C 
HETATM    5  C4  UNL     1      26.483  -0.181  52.282  1.00  0.00     0.065 C 
HETATM    6  C3  UNL     1      25.889  -0.604  53.544  1.00  0.00     0.010 C 
HETATM    7  C2  UNL     1      26.539  -0.443  54.708  1.00  0.00     0.046 C 
HETATM    8  C20 UNL     1      27.890   0.207  54.513  1.00  0.00     0.100 C 
HETATM    9  C18 UNL     1      27.732   1.264  53.451  1.00  0.00    -0.046 C 
BRANCH   7  10
HETATM   10  O1  UNL     1      25.765  -0.930  55.782  1.00  0.00    -0.360 OA
HETATM   11  C1  UNL     1      24.413  -1.257  55.624  1.00  0.00     0.209 C 
ENDBRANCH   7  10
BRANCH   9  12
HETATM   12  C19 UNL     1      28.424   2.505  53.798  1.00  0.00     0.199 C 
BRANCH  12  13
HETATM   13  O3  UNL     1      29.570   2.432  54.512  1.00  0.00    -0.397 OA
HETATM   14  H24 UNL     1      29.592   1.777  55.234  1.00  0.00     0.209 HD
ENDBRANCH  12  13
ENDBRANCH   9  12
ENDBRANCH   3   4
ENDBRANCH   1   3
BRANCH   1  15
HETATM   15  C7  UNL     1      24.302   2.880  51.801  1.00  0.00     0.029 C 
HETATM   16  C8  UNL     1      24.180   4.068  51.231  1.00  0.00     0.048 C 
HETATM   17  C9  UNL     1      23.970   5.338  50.636  1.00  0.00     0.113 C 
HETATM   18  N2  UNL     1      22.967   6.176  50.376  1.00  0.00    -0.294 NA
HETATM   19  C10 UNL     1      21.662   5.791  50.779  1.00  0.00     0.139 C 
HETATM   20  C11 UNL     1      20.506   5.186  50.977  1.00  0.00     0.045 C 
HETATM   21  C12 UNL     1      19.607   3.987  50.706  1.00  0.00     0.181 C 
HETATM   22  O2  UNL     1      19.379   3.389  52.006  1.00  0.00    -0.362 OA
HETATM   23  C13 UNL     1      20.186   2.401  52.507  1.00  0.00     0.141 C 
HETATM   24  C14 UNL     1      21.127   1.501  52.934  1.00  0.00    -0.040 C 
HETATM   25  C15 UNL     1      20.152   0.682  53.579  1.00  0.00     0.050 C 
HETATM   26  C16 UNL     1      22.561   1.253  52.883  1.00  0.00     0.011 C 
HETATM   27  C17 UNL     1      23.692   1.780  52.452  1.00  0.00     0.030 C 
ENDBRANCH   1  15
TORSDOF 6
ENDMDL
MODEL 6
REMARK VINA RESULT:      -7.8      2.421      7.504
REMARK  6 active torsions:
REMARK  status: ('A' for Active; 'I' for Inactive)
REMARK    1  A    between atoms: O1_2  and  C2_3 
REMARK    2  A    between atoms: C5_6  and  C6_7 
REMARK    3  A    between atoms: C6_7  and  N1_8 
REMARK    4  A    between atoms: N1_8  and  C7_9 
REMARK    5  A    between atoms: C18_22  and  C19_23 
REMARK    6  A    between atoms: C19_23  and  O3_24 
ROOT
HETATM    1  N1  UNL     1      24.398   1.894  51.415  1.00  0.00    -0.386 N 
HETATM    2  H9  UNL     1      24.331   1.096  50.705  1.00  0.00     0.160 HD
ENDROOT
BRANCH   1   3
HETATM    3  C6  UNL     1      24.084   1.524  52.815  1.00  0.00     0.154 C 
BRANCH   3   4
HETATM    4  C5  UNL     1      25.301   1.218  53.547  1.00  0.00    -0.054 C 
HETATM    5  C4  UNL     1      26.354   2.264  53.483  1.00  0.00     0.065 C 
HETATM    6  C3  UNL     1      27.689   1.719  53.268  1.00  0.00     0.010 C 
HETATM    7  C2  UNL     1      28.137   0.677  53.986  1.00  0.00     0.046 C 
HETATM    8  C20 UNL     1      27.107   0.192  54.980  1.00  0.00     0.100 C 
HETATM    9  C18 UNL     1      25.761   0.268  54.306  1.00  0.00    -0.046 C 
BRANCH   7  10
HETATM   10  O1  UNL     1      29.451   0.336  53.600  1.00  0.00    -0.360 OA
HETATM   11  C1  UNL     1      29.869  -0.997  53.515  1.00  0.00     0.209 C 
ENDBRANCH   7  10
BRANCH   9  12
HETATM   12  C19 UNL     1      24.945  -0.917  54.564  1.00  0.00     0.199 C 
BRANCH  12  13
HETATM   13  O3  UNL     1      25.040  -1.522  55.770  1.00  0.00    -0.397 OA
HETATM   14  H24 UNL     1      25.860  -1.361  56.275  1.00  0.00     0.209 HD
ENDBRANCH  12  13
ENDBRANCH   9  12
ENDBRANCH   3   4
ENDBRANCH   1   3
BRANCH   1  15
HETATM   15  C7  UNL     1      24.799   3.075  50.747  1.00  0.00     0.029 C 
HETATM   16  C8  UNL     1      23.626   3.574  51.105  1.00  0.00     0.048 C 
HETATM   17  C9  UNL     1      22.390   4.175  51.451  1.00  0.00     0.113 C 
HETATM   18  N2  UNL     1      21.759   5.340  51.304  1.00  0.00    -0.294 NA
HETATM   19  C10 UNL     1      22.429   6.369  50.593  1.00  0.00     0.139 C 
HETATM   20  C11 UNL     1      23.270   7.283  50.146  1.00  0.00     0.045 C 
HETATM   21  C12 UNL     1      24.607   7.998  50.294  1.00  0.00     0.181 C 
HETATM   22  O2  UNL     1      25.324   7.707  49.068  1.00  0.00    -0.362 OA
HETATM   23  C13 UNL     1      26.156   6.625  48.949  1.00  0.00     0.141 C 
HETATM   24  C14 UNL     1      26.871   5.455  48.927  1.00  0.00    -0.040 C 
HETATM   25  C15 UNL     1      27.913   6.026  48.136  1.00  0.00     0.050 C 
HETATM   26  C16 UNL     1      26.816   4.086  49.421  1.00  0.00     0.011 C 
HETATM   27  C17 UNL     1      26.041   3.253  50.090  1.00  0.00     0.030 C 
ENDBRANCH   1  15
TORSDOF 6
ENDMDL
MODEL 7
REMARK VINA RESULT:      -7.7      2.017      3.469
REMARK  6 active torsions:
REMARK  status: ('A' for Active; 'I' for Inactive)
REMARK    1  A    between atoms: O1_2  and  C2_3 
REMARK    2  A    between atoms: C5_6  and  C6_7 
REMARK    3  A    between atoms: C6_7  and  N1_8 
REMARK    4  A    between atoms: N1_8  and  C7_9 
REMARK    5  A    between atoms: C18_22  and  C19_23 
REMARK    6  A    between atoms: C19_23  and  O3_24 
ROOT
HETATM    1  N1  UNL     1      25.297   4.817  49.887  1.00  0.00    -0.386 N 
HETATM    2  H9  UNL     1      25.237   4.545  48.853  1.00  0.00     0.160 HD
ENDROOT
BRANCH   1   3
HETATM    3  C6  UNL     1      25.425   6.269  50.153  1.00  0.00     0.154 C 
BRANCH   3   4
HETATM    4  C5  UNL     1      26.517   6.835  49.380  1.00  0.00    -0.054 C 
HETATM    5  C4  UNL     1      27.119   5.919  48.377  1.00  0.00     0.065 C 
HETATM    6  C3  UNL     1      28.576   5.970  48.358  1.00  0.00     0.010 C 
HETATM    7  C2  UNL     1      29.230   7.142  48.342  1.00  0.00     0.046 C 
HETATM    8  C20 UNL     1      28.280   8.318  48.350  1.00  0.00     0.100 C 
HETATM    9  C18 UNL     1      27.142   7.971  49.274  1.00  0.00    -0.046 C 
BRANCH   7  10
HETATM   10  O1  UNL     1      30.625   6.932  48.322  1.00  0.00    -0.360 OA
HETATM   11  C1  UNL     1      31.174   5.645  48.296  1.00  0.00     0.209 C 
ENDBRANCH   7  10
BRANCH   9  12
HETATM   12  C19 UNL     1      26.772   9.088  50.140  1.00  0.00     0.199 C 
BRANCH  12  13
HETATM   13  O3  UNL     1      27.586   9.409  51.172  1.00  0.00    -0.397 OA
HETATM   14  H24 UNL     1      27.180   9.420  52.059  1.00  0.00     0.209 HD
ENDBRANCH  12  13
ENDBRANCH   9  12
ENDBRANCH   3   4
ENDBRANCH   1   3
BRANCH   1  15
HETATM   15  C7  UNL     1      25.210   3.649  50.680  1.00  0.00     0.029 C 
HETATM   16  C8  UNL     1      23.938   3.970  50.861  1.00  0.00     0.048 C 
HETATM   17  C9  UNL     1      22.569   4.248  51.102  1.00  0.00     0.113 C 
HETATM   18  N2  UNL     1      21.530   3.717  51.746  1.00  0.00    -0.294 NA
HETATM   19  C10 UNL     1      21.740   2.505  52.451  1.00  0.00     0.139 C 
HETATM   20  C11 UNL     1      22.026   1.274  52.832  1.00  0.00     0.045 C 
HETATM   21  C12 UNL     1      22.535  -0.113  52.460  1.00  0.00     0.181 C 
HETATM   22  O2  UNL     1      23.722  -0.305  53.269  1.00  0.00    -0.362 OA
HETATM   23  C13 UNL     1      24.971   0.040  52.824  1.00  0.00     0.141 C 
HETATM   24  C14 UNL     1      26.144   0.526  52.305  1.00  0.00    -0.040 C 
HETATM   25  C15 UNL     1      26.909  -0.552  52.844  1.00  0.00     0.050 C 
HETATM   26  C16 UNL     1      26.658   1.633  51.510  1.00  0.00     0.011 C 
HETATM   27  C17 UNL     1      26.281   2.756  50.928  1.00  0.00     0.030 C 
ENDBRANCH   1  15
TORSDOF 6
ENDMDL
MODEL 8
REMARK VINA RESULT:      -7.6      2.108      3.014
REMARK  6 active torsions:
REMARK  status: ('A' for Active; 'I' for Inactive)
REMARK    1  A    between atoms: O1_2  and  C2_3 
REMARK    2  A    between atoms: C5_6  and  C6_7 
REMARK    3  A    between atoms: C6_7  and  N1_8 
REMARK    4  A    between atoms: N1_8  and  C7_9 
REMARK    5  A    between atoms: C18_22  and  C19_23 
REMARK    6  A    between atoms: C19_23  and  O3_24 
ROOT
HETATM    1  N1  UNL     1      25.821   3.700  50.968  1.00  0.00    -0.386 N 
HETATM    2  H9  UNL     1      26.463   4.306  51.574  1.00  0.00     0.160 HD
ENDROOT
BRANCH   1   3
HETATM    3  C6  UNL     1      25.575   4.211  49.599  1.00  0.00     0.154 C 
BRANCH   3   4
HETATM    4  C5  UNL     1      25.435   5.658  49.612  1.00  0.00    -0.054 C 
HETATM    5  C4  UNL     1      26.291   6.381  48.636  1.00  0.00     0.065 C 
HETATM    6  C3  UNL     1      26.923   7.568  49.200  1.00  0.00     0.010 C 
HETATM    7  C2  UNL     1      26.218   8.454  49.920  1.00  0.00     0.046 C 
HETATM    8  C20 UNL     1      24.766   8.051  50.047  1.00  0.00     0.100 C 
HETATM    9  C18 UNL     1      24.729   6.557  50.231  1.00  0.00    -0.046 C 
BRANCH   7  10
HETATM   10  O1  UNL     1      27.045   9.513  50.353  1.00  0.00    -0.360 OA
HETATM   11  C1  UNL     1      28.221   9.851  49.674  1.00  0.00     0.209 C 
ENDBRANCH   7  10
BRANCH   9  12
HETATM   12  C19 UNL     1      23.779   6.150  51.265  1.00  0.00     0.199 C 
BRANCH  12  13
HETATM   13  O3  UNL     1      24.235   5.946  52.522  1.00  0.00    -0.397 OA
HETATM   14  H24 UNL     1      24.627   6.716  52.974  1.00  0.00     0.209 HD
ENDBRANCH  12  13
ENDBRANCH   9  12
ENDBRANCH   3   4
ENDBRANCH   1   3
BRANCH   1  15
HETATM   15  C7  UNL     1      25.424   2.561  51.707  1.00  0.00     0.029 C 
HETATM   16  C8  UNL     1      26.675   2.511  52.137  1.00  0.00     0.048 C 
HETATM   17  C9  UNL     1      27.996   2.392  52.640  1.00  0.00     0.113 C 
HETATM   18  N2  UNL     1      28.693   1.617  53.471  1.00  0.00    -0.294 NA
HETATM   19  C10 UNL     1      28.012   0.542  54.098  1.00  0.00     0.139 C 
HETATM   20  C11 UNL     1      27.194  -0.234  54.784  1.00  0.00     0.045 C 
HETATM   21  C12 UNL     1      25.959  -0.356  55.667  1.00  0.00     0.181 C 
HETATM   22  O2  UNL     1      25.044  -1.194  54.917  1.00  0.00    -0.362 OA
HETATM   23  C13 UNL     1      24.116  -0.671  54.055  1.00  0.00     0.141 C 
HETATM   24  C14 UNL     1      23.310  -0.031  53.149  1.00  0.00    -0.040 C 
HETATM   25  C15 UNL     1      22.213  -0.908  53.400  1.00  0.00     0.050 C 
HETATM   26  C16 UNL     1      23.323   1.085  52.214  1.00  0.00     0.011 C 
HETATM   27  C17 UNL     1      24.117   2.016  51.719  1.00  0.00     0.030 C 
ENDBRANCH   1  15
TORSDOF 6
ENDMDL
MODEL 9
REMARK VINA RESULT:      -7.6      1.725      2.709
REMARK  6 active torsions:
REMARK  status: ('A' for Active; 'I' for Inactive)
REMARK    1  A    between atoms: O1_2  and  C2_3 
REMARK    2  A    between atoms: C5_6  and  C6_7 
REMARK    3  A    between atoms: C6_7  and  N1_8 
REMARK    4  A    between atoms: N1_8  and  C7_9 
REMARK    5  A    between atoms: C18_22  and  C19_23 
REMARK    6  A    between atoms: C19_23  and  O3_24 
ROOT
HETATM    1  N1  UNL     1      25.869   3.607  50.703  1.00  0.00    -0.386 N 
HETATM    2  H9  UNL     1      25.880   4.391  51.431  1.00  0.00     0.160 HD
ENDROOT
BRANCH   1   3
HETATM    3  C6  UNL     1      26.776   3.803  49.547  1.00  0.00     0.154 C 
BRANCH   3   4
HETATM    4  C5  UNL     1      26.723   5.180  49.085  1.00  0.00    -0.054 C 
HETATM    5  C4  UNL     1      25.431   5.873  49.321  1.00  0.00     0.065 C 
HETATM    6  C3  UNL     1      24.987   6.660  48.177  1.00  0.00     0.010 C 
HETATM    7  C2  UNL     1      25.827   7.486  47.534  1.00  0.00     0.046 C 
HETATM    8  C20 UNL     1      27.211   7.468  48.142  1.00  0.00     0.100 C 
HETATM    9  C18 UNL     1      27.516   6.043  48.524  1.00  0.00    -0.046 C 
BRANCH   7  10
HETATM   10  O1  UNL     1      25.168   8.135  46.468  1.00  0.00    -0.360 OA
HETATM   11  C1  UNL     1      23.793   7.985  46.256  1.00  0.00     0.209 C 
ENDBRANCH   7  10
BRANCH   9  12
HETATM   12  C19 UNL     1      28.879   5.654  48.164  1.00  0.00     0.199 C 
BRANCH  12  13
HETATM   13  O3  UNL     1      29.812   5.574  49.140  1.00  0.00    -0.397 OA
HETATM   14  H24 UNL     1      30.033   6.405  49.600  1.00  0.00     0.209 HD
ENDBRANCH  12  13
ENDBRANCH   9  12
ENDBRANCH   3   4
ENDBRANCH   1   3
BRANCH   1  15
HETATM   15  C7  UNL     1      24.967   2.600  51.120  1.00  0.00     0.029 C 
HETATM   16  C8  UNL     1      25.991   2.074  51.774  1.00  0.00     0.048 C 
HETATM   17  C9  UNL     1      27.038   1.453  52.501  1.00  0.00     0.113 C 
HETATM   18  N2  UNL     1      27.228   0.398  53.293  1.00  0.00    -0.294 NA
HETATM   19  C10 UNL     1      26.114  -0.439  53.557  1.00  0.00     0.139 C 
HETATM   20  C11 UNL     1      24.951  -0.956  53.906  1.00  0.00     0.045 C 
HETATM   21  C12 UNL     1      23.558  -0.742  54.484  1.00  0.00     0.181 C 
HETATM   22  O2  UNL     1      22.649  -1.125  53.422  1.00  0.00    -0.362 OA
HETATM   23  C13 UNL     1      22.176  -0.223  52.506  1.00  0.00     0.141 C 
HETATM   24  C14 UNL     1      21.864   0.752  51.593  1.00  0.00    -0.040 C 
HETATM   25  C15 UNL     1      20.523   0.284  51.449  1.00  0.00     0.050 C 
HETATM   26  C16 UNL     1      22.456   1.892  50.907  1.00  0.00     0.011 C 
HETATM   27  C17 UNL     1      23.597   2.540  50.765  1.00  0.00     0.030 C 
ENDBRANCH   1  15
TORSDOF 6
ENDMDL
