MODEL 1
REMARK VINA RESULT:      -7.7      0.000      0.000
REMARK  5 active torsions:
REMARK  status: ('A' for Active; 'I' for Inactive)
REMARK    1  A    between atoms: C2_2  and  C3_3 
REMARK    2  A    between atoms: C8_9  and  N1_10 
REMARK    3  A    between atoms: N1_10  and  C9_11 
REMARK    4  A    between atoms: C9_11  and  C10_12 
REMARK    5  A    between atoms: C15_18  and  C16_19 
ROOT
HETATM    1  N1  UNL     1      24.466  -0.641  52.954  1.00  0.00    -0.388 N 
HETATM    2  H9  UNL     1      24.227  -1.565  52.497  1.00  0.00     0.159 HD
ENDROOT
BRANCH   1   3
HETATM    3  C8  UNL     1      23.580   0.450  52.734  1.00  0.00     0.035 A 
HETATM    4  C3  UNL     1      22.206   0.311  52.953  1.00  0.00    -0.032 A 
HETATM    5  C4  UNL     1      21.409   1.430  52.715  1.00  0.00     0.011 A 
HETATM    6  C5  UNL     1      21.891   2.651  52.281  1.00  0.00     0.020 A 
HETATM    7  C6  UNL     1      23.248   2.741  52.079  1.00  0.00     0.013 A 
HETATM    8 BR1  UNL     1      23.908   4.443  51.477  1.00  0.00    -0.051 Br
HETATM    9  C7  UNL     1      24.095   1.654  52.302  1.00  0.00     0.048 A 
BRANCH   4  10
HETATM   10  C2  UNL     1      21.633  -0.975  53.419  1.00  0.00     0.036 C 
HETATM   11  C1  UNL     1      21.596  -1.080  54.915  1.00  0.00     0.010 C 
ENDBRANCH   4  10
ENDBRANCH   1   3
BRANCH   1  12
HETATM   12  C9  UNL     1      25.660  -0.468  53.786  1.00  0.00     0.134 C 
BRANCH  12  13
HETATM   13  C10 UNL     1      26.844  -0.710  52.903  1.00  0.00     0.077 A 
HETATM   14  C11 UNL     1      27.139  -2.140  52.695  1.00  0.00     0.100 A 
HETATM   15  N2  UNL     1      28.272  -2.758  52.883  1.00  0.00    -0.276 NA
HETATM   16  C12 UNL     1      29.427  -2.030  53.350  1.00  0.00     0.116 A 
HETATM   17  C13 UNL     1      29.389  -0.718  53.605  1.00  0.00     0.027 A 
HETATM   18  C14 UNL     1      28.098  -0.080  53.378  1.00  0.00    -0.044 A 
HETATM   19  C15 UNL     1      27.948   1.203  53.598  1.00  0.00     0.034 C 
BRANCH  19  20
HETATM   20  C16 UNL     1      29.072   1.996  54.071  1.00  0.00     0.378 C 
HETATM   21  O1  UNL     1      29.793   2.414  55.013  1.00  0.00    -0.406 OA
ENDBRANCH  19  20
ENDBRANCH  12  13
ENDBRANCH   1  12
TORSDOF 5
ENDMDL
MODEL 2
REMARK VINA RESULT:      -7.6      2.835      3.922
REMARK  5 active torsions:
REMARK  status: ('A' for Active; 'I' for Inactive)
REMARK    1  A    between atoms: C2_2  and  C3_3 
REMARK    2  A    between atoms: C8_9  and  N1_10 
REMARK    3  A    between atoms: N1_10  and  C9_11 
REMARK    4  A    between atoms: C9_11  and  C10_12 
REMARK    5  A    between atoms: C15_18  and  C16_19 
ROOT
HETATM    1  N1  UNL     1      24.889   1.981  51.747  1.00  0.00    -0.388 N 
HETATM    2  H9  UNL     1      24.921   3.035  51.828  1.00  0.00     0.159 HD
ENDROOT
BRANCH   1   3
HETATM    3  C8  UNL     1      23.609   1.361  51.720  1.00  0.00     0.035 A 
HETATM    4  C3  UNL     1      22.712   1.617  50.679  1.00  0.00    -0.032 A 
HETATM    5  C4  UNL     1      21.479   0.968  50.729  1.00  0.00     0.011 A 
HETATM    6  C5  UNL     1      21.097   0.098  51.734  1.00  0.00     0.020 A 
HETATM    7  C6  UNL     1      22.012  -0.123  52.737  1.00  0.00     0.013 A 
HETATM    8 BR1  UNL     1      21.472  -1.335  54.128  1.00  0.00    -0.051 Br
HETATM    9  C7  UNL     1      23.261   0.499  52.738  1.00  0.00     0.048 A 
BRANCH   4  10
HETATM   10  C2  UNL     1      23.067   2.540  49.573  1.00  0.00     0.036 C 
HETATM   11  C1  UNL     1      22.452   2.136  48.266  1.00  0.00     0.010 C 
ENDBRANCH   4  10
ENDBRANCH   1   3
BRANCH   1  12
HETATM   12  C9  UNL     1      26.106   1.168  51.664  1.00  0.00     0.134 C 
BRANCH  12  13
HETATM   13  C10 UNL     1      26.631   1.029  53.058  1.00  0.00     0.077 A 
HETATM   14  C11 UNL     1      27.222   2.271  53.590  1.00  0.00     0.100 A 
HETATM   15  N2  UNL     1      28.408   2.434  54.110  1.00  0.00    -0.276 NA
HETATM   16  C12 UNL     1      29.314   1.315  54.216  1.00  0.00     0.116 A 
HETATM   17  C13 UNL     1      28.986   0.089  53.795  1.00  0.00     0.027 A 
HETATM   18  C14 UNL     1      27.651  -0.033  53.223  1.00  0.00    -0.044 A 
HETATM   19  C15 UNL     1      27.226  -1.191  52.778  1.00  0.00     0.034 C 
BRANCH  19  20
HETATM   20  C16 UNL     1      28.089  -2.360  52.853  1.00  0.00     0.378 C 
HETATM   21  O1  UNL     1      28.737  -3.196  53.534  1.00  0.00    -0.406 OA
ENDBRANCH  19  20
ENDBRANCH  12  13
ENDBRANCH   1  12
TORSDOF 5
ENDMDL
MODEL 3
REMARK VINA RESULT:      -7.4      2.499      3.112
REMARK  5 active torsions:
REMARK  status: ('A' for Active; 'I' for Inactive)
REMARK    1  A    between atoms: C2_2  and  C3_3 
REMARK    2  A    between atoms: C8_9  and  N1_10 
REMARK    3  A    between atoms: N1_10  and  C9_11 
REMARK    4  A    between atoms: C9_11  and  C10_12 
REMARK    5  A    between atoms: C15_18  and  C16_19 
ROOT
HETATM    1  N1  UNL     1      24.394   1.654  52.352  1.00  0.00    -0.388 N 
HETATM    2  H9  UNL     1      24.313   2.383  53.113  1.00  0.00     0.159 HD
ENDROOT
BRANCH   1   3
HETATM    3  C8  UNL     1      23.230   1.373  51.583  1.00  0.00     0.035 A 
HETATM    4  C3  UNL     1      22.249   0.500  52.064  1.00  0.00    -0.032 A 
HETATM    5  C4  UNL     1      21.140   0.281  51.248  1.00  0.00     0.011 A 
HETATM    6  C5  UNL     1      20.956   0.867  50.009  1.00  0.00     0.020 A 
HETATM    7  C6  UNL     1      21.946   1.718  49.578  1.00  0.00     0.013 A 
HETATM    8 BR1  UNL     1      21.681   2.529  47.855  1.00  0.00    -0.051 Br
HETATM    9  C7  UNL     1      23.079   1.976  50.352  1.00  0.00     0.048 A 
BRANCH   4  10
HETATM   10  C2  UNL     1      22.392  -0.157  53.385  1.00  0.00     0.036 C 
HETATM   11  C1  UNL     1      21.216   0.094  54.283  1.00  0.00     0.010 C 
ENDBRANCH   4  10
ENDBRANCH   1   3
BRANCH   1  12
HETATM   12  C9  UNL     1      25.648   0.947  52.078  1.00  0.00     0.134 C 
BRANCH  12  13
HETATM   13  C10 UNL     1      26.388   0.858  53.376  1.00  0.00     0.077 A 
HETATM   14  C11 UNL     1      26.946   2.149  53.823  1.00  0.00     0.100 A 
HETATM   15  N2  UNL     1      28.179   2.414  54.159  1.00  0.00    -0.276 NA
HETATM   16  C12 UNL     1      29.181   1.376  54.118  1.00  0.00     0.116 A 
HETATM   17  C13 UNL     1      28.898   0.125  53.741  1.00  0.00     0.027 A 
HETATM   18  C14 UNL     1      27.507  -0.113  53.376  1.00  0.00    -0.044 A 
HETATM   19  C15 UNL     1      27.119  -1.304  52.990  1.00  0.00     0.034 C 
BRANCH  19  20
HETATM   20  C16 UNL     1      28.079  -2.395  52.925  1.00  0.00     0.378 C 
HETATM   21  O1  UNL     1      28.842  -3.213  53.499  1.00  0.00    -0.406 OA
ENDBRANCH  19  20
ENDBRANCH  12  13
ENDBRANCH   1  12
TORSDOF 5
ENDMDL
MODEL 4
REMARK VINA RESULT:      -7.3      1.816      2.743
REMARK  5 active torsions:
REMARK  status: ('A' for Active; 'I' for Inactive)
REMARK    1  A    between atoms: C2_2  and  C3_3 
REMARK    2  A    between atoms: C8_9  and  N1_10 
REMARK    3  A    between atoms: N1_10  and  C9_11 
REMARK    4  A    between atoms: C9_11  and  C10_12 
REMARK    5  A    between atoms: C15_18  and  C16_19 
ROOT
HETATM    1  N1  UNL     1      24.711   0.634  52.250  1.00  0.00    -0.388 N 
HETATM    2  H9  UNL     1      25.164   1.064  51.396  1.00  0.00     0.159 HD
ENDROOT
BRANCH   1   3
HETATM    3  C8  UNL     1      23.339   0.927  52.484  1.00  0.00     0.035 A 
HETATM    4  C3  UNL     1      22.839   2.218  52.286  1.00  0.00    -0.032 A 
HETATM    5  C4  UNL     1      21.482   2.418  52.538  1.00  0.00     0.011 A 
HETATM    6  C5  UNL     1      20.615   1.430  52.966  1.00  0.00     0.020 A 
HETATM    7  C6  UNL     1      21.151   0.177  53.147  1.00  0.00     0.013 A 
HETATM    8 BR1  UNL     1      19.938  -1.191  53.740  1.00  0.00    -0.051 Br
HETATM    9  C7  UNL     1      22.502  -0.083  52.910  1.00  0.00     0.048 A 
BRANCH   4  10
HETATM   10  C2  UNL     1      23.721   3.318  51.827  1.00  0.00     0.036 C 
HETATM   11  C1  UNL     1      23.463   4.605  52.553  1.00  0.00     0.010 C 
ENDBRANCH   4  10
ENDBRANCH   1   3
BRANCH   1  12
HETATM   12  C9  UNL     1      25.449  -0.234  53.172  1.00  0.00     0.134 C 
BRANCH  12  13
HETATM   13  C10 UNL     1      26.725  -0.610  52.486  1.00  0.00     0.077 A 
HETATM   14  C11 UNL     1      26.919  -2.068  52.364  1.00  0.00     0.100 A 
HETATM   15  N2  UNL     1      27.952  -2.771  52.740  1.00  0.00    -0.276 NA
HETATM   16  C12 UNL     1      29.085  -2.123  53.357  1.00  0.00     0.116 A 
HETATM   17  C13 UNL     1      29.126  -0.803  53.566  1.00  0.00     0.027 A 
HETATM   18  C14 UNL     1      27.946  -0.069  53.128  1.00  0.00    -0.044 A 
HETATM   19  C15 UNL     1      27.879   1.230  53.286  1.00  0.00     0.034 C 
BRANCH  19  20
HETATM   20  C16 UNL     1      28.986   1.945  53.902  1.00  0.00     0.378 C 
HETATM   21  O1  UNL     1      29.567   2.382  54.929  1.00  0.00    -0.406 OA
ENDBRANCH  19  20
ENDBRANCH  12  13
ENDBRANCH   1  12
TORSDOF 5
ENDMDL
MODEL 5
REMARK VINA RESULT:      -7.1      3.586      5.165
REMARK  5 active torsions:
REMARK  status: ('A' for Active; 'I' for Inactive)
REMARK    1  A    between atoms: C2_2  and  C3_3 
REMARK    2  A    between atoms: C8_9  and  N1_10 
REMARK    3  A    between atoms: N1_10  and  C9_11 
REMARK    4  A    between atoms: C9_11  and  C10_12 
REMARK    5  A    between atoms: C15_18  and  C16_19 
ROOT
HETATM    1  N1  UNL     1      26.363   3.521  51.172  1.00  0.00    -0.388 N 
HETATM    2  H9  UNL     1      26.842   4.399  51.515  1.00  0.00     0.159 HD
ENDROOT
BRANCH   1   3
HETATM    3  C8  UNL     1      25.232   3.677  50.322  1.00  0.00     0.035 A 
HETATM    4  C3  UNL     1      25.096   4.810  49.514  1.00  0.00    -0.032 A 
HETATM    5  C4  UNL     1      23.958   4.883  48.711  1.00  0.00     0.011 A 
HETATM    6  C5  UNL     1      22.971   3.915  48.669  1.00  0.00     0.020 A 
HETATM    7  C6  UNL     1      23.148   2.820  49.482  1.00  0.00     0.013 A 
HETATM    8 BR1  UNL     1      21.771   1.480  49.415  1.00  0.00    -0.051 Br
HETATM    9  C7  UNL     1      24.267   2.692  50.305  1.00  0.00     0.048 A 
BRANCH   4  10
HETATM   10  C2  UNL     1      26.123   5.879  49.516  1.00  0.00     0.036 C 
HETATM   11  C1  UNL     1      27.217   5.630  48.521  1.00  0.00     0.010 C 
ENDBRANCH   4  10
ENDBRANCH   1   3
BRANCH   1  12
HETATM   12  C9  UNL     1      26.829   2.182  51.543  1.00  0.00     0.134 C 
BRANCH  12  13
HETATM   13  C10 UNL     1      26.934   2.157  53.036  1.00  0.00     0.077 A 
HETATM   14  C11 UNL     1      28.317   2.301  53.530  1.00  0.00     0.100 A 
HETATM   15  N2  UNL     1      28.954   1.521  54.359  1.00  0.00    -0.276 NA
HETATM   16  C12 UNL     1      28.301   0.357  54.908  1.00  0.00     0.116 A 
HETATM   17  C13 UNL     1      27.042   0.032  54.597  1.00  0.00     0.027 A 
HETATM   18  C14 UNL     1      26.380   0.937  53.667  1.00  0.00    -0.044 A 
HETATM   19  C15 UNL     1      25.144   0.712  53.292  1.00  0.00     0.034 C 
BRANCH  19  20
HETATM   20  C16 UNL     1      24.428  -0.445  53.807  1.00  0.00     0.378 C 
HETATM   21  O1  UNL     1      23.611  -0.950  54.619  1.00  0.00    -0.406 OA
ENDBRANCH  19  20
ENDBRANCH  12  13
ENDBRANCH   1  12
TORSDOF 5
ENDMDL
MODEL 6
REMARK VINA RESULT:      -7.0      3.382      4.682
REMARK  5 active torsions:
REMARK  status: ('A' for Active; 'I' for Inactive)
REMARK    1  A    between atoms: C2_2  and  C3_3 
REMARK    2  A    between atoms: C8_9  and  N1_10 
REMARK    3  A    between atoms: N1_10  and  C9_11 
REMARK    4  A    between atoms: C9_11  and  C10_12 
REMARK    5  A    between atoms: C15_18  and  C16_19 
ROOT
HETATM    1  N1  UNL     1      21.516   1.673  52.244  1.00  0.00    -0.388 N 
HETATM    2  H9  UNL     1      21.468   2.593  52.763  1.00  0.00     0.159 HD
ENDROOT
BRANCH   1   3
HETATM    3  C8  UNL     1      20.391   0.807  52.335  1.00  0.00     0.035 A 
HETATM    4  C3  UNL     1      20.226  -0.037  53.438  1.00  0.00    -0.032 A 
HETATM    5  C4  UNL     1      19.095  -0.853  53.449  1.00  0.00     0.011 A 
HETATM    6  C5  UNL     1      18.142  -0.877  52.448  1.00  0.00     0.020 A 
HETATM    7  C6  UNL     1      18.347  -0.030  51.383  1.00  0.00     0.013 A 
HETATM    8 BR1  UNL     1      17.015  -0.069  49.997  1.00  0.00    -0.051 Br
HETATM    9  C7  UNL     1      19.460   0.810  51.319  1.00  0.00     0.048 A 
BRANCH   4  10
HETATM   10  C2  UNL     1      21.215  -0.054  54.543  1.00  0.00     0.036 C 
HETATM   11  C1  UNL     1      21.950  -1.358  54.638  1.00  0.00     0.010 C 
ENDBRANCH   4  10
ENDBRANCH   1   3
BRANCH   1  12
HETATM   12  C9  UNL     1      22.686   1.283  51.453  1.00  0.00     0.134 C 
BRANCH  12  13
HETATM   13  C10 UNL     1      23.859   2.020  52.020  1.00  0.00     0.077 A 
HETATM   14  C11 UNL     1      24.260   3.192  51.219  1.00  0.00     0.100 A 
HETATM   15  N2  UNL     1      25.443   3.471  50.745  1.00  0.00    -0.276 NA
HETATM   16  C12 UNL     1      26.551   2.578  50.990  1.00  0.00     0.116 A 
HETATM   17  C13 UNL     1      26.416   1.451  51.696  1.00  0.00     0.027 A 
HETATM   18  C14 UNL     1      25.073   1.191  52.199  1.00  0.00    -0.044 A 
HETATM   19  C15 UNL     1      24.828   0.113  52.903  1.00  0.00     0.034 C 
BRANCH  19  20
HETATM   20  C16 UNL     1      25.900  -0.830  53.185  1.00  0.00     0.378 C 
HETATM   21  O1  UNL     1      26.768  -1.293  53.969  1.00  0.00    -0.406 OA
ENDBRANCH  19  20
ENDBRANCH  12  13
ENDBRANCH   1  12
TORSDOF 5
ENDMDL
MODEL 7
REMARK VINA RESULT:      -6.9      3.969      6.745
REMARK  5 active torsions:
REMARK  status: ('A' for Active; 'I' for Inactive)
REMARK    1  A    between atoms: C2_2  and  C3_3 
REMARK    2  A    between atoms: C8_9  and  N1_10 
REMARK    3  A    between atoms: N1_10  and  C9_11 
REMARK    4  A    between atoms: C9_11  and  C10_12 
REMARK    5  A    between atoms: C15_18  and  C16_19 
ROOT
HETATM    1  N1  UNL     1      25.479   3.177  51.837  1.00  0.00    -0.388 N 
HETATM    2  H9  UNL     1      25.245   3.999  52.459  1.00  0.00     0.159 HD
ENDROOT
BRANCH   1   3
HETATM    3  C8  UNL     1      25.660   1.910  52.459  1.00  0.00     0.035 A 
HETATM    4  C3  UNL     1      24.562   1.167  52.902  1.00  0.00    -0.032 A 
HETATM    5  C4  UNL     1      24.829  -0.064  53.500  1.00  0.00     0.011 A 
HETATM    6  C5  UNL     1      26.097  -0.585  53.679  1.00  0.00     0.020 A 
HETATM    7  C6  UNL     1      27.146   0.181  53.228  1.00  0.00     0.013 A 
HETATM    8 BR1  UNL     1      28.905  -0.552  53.480  1.00  0.00    -0.051 Br
HETATM    9  C7  UNL     1      26.939   1.421  52.621  1.00  0.00     0.048 A 
BRANCH   4  10
HETATM   10  C2  UNL     1      23.178   1.674  52.736  1.00  0.00     0.036 C 
HETATM   11  C1  UNL     1      22.309   0.731  51.958  1.00  0.00     0.010 C 
ENDBRANCH   4  10
ENDBRANCH   1   3
BRANCH   1  12
HETATM   12  C9  UNL     1      25.615   3.312  50.384  1.00  0.00     0.134 C 
BRANCH  12  13
HETATM   13  C10 UNL     1      24.571   4.288  49.939  1.00  0.00     0.077 A 
HETATM   14  C11 UNL     1      24.338   5.379  50.903  1.00  0.00     0.100 A 
HETATM   15  N2  UNL     1      23.202   5.759  51.422  1.00  0.00    -0.276 NA
HETATM   16  C12 UNL     1      21.979   5.084  51.062  1.00  0.00     0.116 A 
HETATM   17  C13 UNL     1      21.954   4.061  50.201  1.00  0.00     0.027 A 
HETATM   18  C14 UNL     1      23.250   3.681  49.654  1.00  0.00    -0.044 A 
HETATM   19  C15 UNL     1      23.342   2.690  48.800  1.00  0.00     0.034 C 
BRANCH  19  20
HETATM   20  C16 UNL     1      22.146   1.966  48.396  1.00  0.00     0.378 C 
HETATM   21  O1  UNL     1      21.494   0.893  48.320  1.00  0.00    -0.406 OA
ENDBRANCH  19  20
ENDBRANCH  12  13
ENDBRANCH   1  12
TORSDOF 5
ENDMDL
MODEL 8
REMARK VINA RESULT:      -6.8      3.091      5.690
REMARK  5 active torsions:
REMARK  status: ('A' for Active; 'I' for Inactive)
REMARK    1  A    between atoms: C2_2  and  C3_3 
REMARK    2  A    between atoms: C8_9  and  N1_10 
REMARK    3  A    between atoms: N1_10  and  C9_11 
REMARK    4  A    between atoms: C9_11  and  C10_12 
REMARK    5  A    between atoms: C15_18  and  C16_19 
ROOT
HETATM    1  N1  UNL     1      23.176   2.406  52.686  1.00  0.00    -0.388 N 
HETATM    2  H9  UNL     1      22.237   1.930  52.590  1.00  0.00     0.159 HD
ENDROOT
BRANCH   1   3
HETATM    3  C8  UNL     1      24.295   1.592  53.019  1.00  0.00     0.035 A 
HETATM    4  C3  UNL     1      24.139   0.223  53.255  1.00  0.00    -0.032 A 
HETATM    5  C4  UNL     1      25.287  -0.500  53.575  1.00  0.00     0.011 A 
HETATM    6  C5  UNL     1      26.552   0.049  53.672  1.00  0.00     0.020 A 
HETATM    7  C6  UNL     1      26.657   1.399  53.433  1.00  0.00     0.013 A 
HETATM    8 BR1  UNL     1      28.421   2.153  53.569  1.00  0.00    -0.051 Br
HETATM    9  C7  UNL     1      25.543   2.173  53.107  1.00  0.00     0.048 A 
BRANCH   4  10
HETATM   10  C2  UNL     1      22.807  -0.422  53.164  1.00  0.00     0.036 C 
HETATM   11  C1  UNL     1      22.262  -0.811  54.506  1.00  0.00     0.010 C 
ENDBRANCH   4  10
ENDBRANCH   1   3
BRANCH   1  12
HETATM   12  C9  UNL     1      23.345   3.848  52.487  1.00  0.00     0.134 C 
BRANCH  12  13
HETATM   13  C10 UNL     1      22.883   4.151  51.096  1.00  0.00     0.077 A 
HETATM   14  C11 UNL     1      21.688   3.386  50.694  1.00  0.00     0.100 A 
HETATM   15  N2  UNL     1      21.533   2.644  49.631  1.00  0.00    -0.276 NA
HETATM   16  C12 UNL     1      22.611   2.503  48.682  1.00  0.00     0.116 A 
HETATM   17  C13 UNL     1      23.790   3.112  48.846  1.00  0.00     0.027 A 
HETATM   18  C14 UNL     1      23.907   3.925  50.050  1.00  0.00    -0.044 A 
HETATM   19  C15 UNL     1      25.020   4.565  50.310  1.00  0.00     0.034 C 
BRANCH  19  20
HETATM   20  C16 UNL     1      26.147   4.465  49.395  1.00  0.00     0.378 C 
HETATM   21  O1  UNL     1      27.342   4.146  49.166  1.00  0.00    -0.406 OA
ENDBRANCH  19  20
ENDBRANCH  12  13
ENDBRANCH   1  12
TORSDOF 5
ENDMDL
MODEL 9
REMARK VINA RESULT:      -6.6      3.718      6.916
REMARK  5 active torsions:
REMARK  status: ('A' for Active; 'I' for Inactive)
REMARK    1  A    between atoms: C2_2  and  C3_3 
REMARK    2  A    between atoms: C8_9  and  N1_10 
REMARK    3  A    between atoms: N1_10  and  C9_11 
REMARK    4  A    between atoms: C9_11  and  C10_12 
REMARK    5  A    between atoms: C15_18  and  C16_19 
ROOT
HETATM    1  N1  UNL     1      25.187   3.279  52.371  1.00  0.00    -0.388 N 
HETATM    2  H9  UNL     1      25.220   4.092  53.047  1.00  0.00     0.159 HD
ENDROOT
BRANCH   1   3
HETATM    3  C8  UNL     1      25.158   1.967  52.920  1.00  0.00     0.035 A 
HETATM    4  C3  UNL     1      26.319   1.383  53.437  1.00  0.00    -0.032 A 
HETATM    5  C4  UNL     1      26.202   0.094  53.957  1.00  0.00     0.011 A 
HETATM    6  C5  UNL     1      25.025  -0.629  53.990  1.00  0.00     0.020 A 
HETATM    7  C6  UNL     1      23.910  -0.014  53.471  1.00  0.00     0.013 A 
HETATM    8 BR1  UNL     1      22.277  -1.027  53.523  1.00  0.00    -0.051 Br
HETATM    9  C7  UNL     1      23.966   1.275  52.938  1.00  0.00     0.048 A 
BRANCH   4  10
HETATM   10  C2  UNL     1      27.610   2.111  53.429  1.00  0.00     0.036 C 
HETATM   11  C1  UNL     1      28.784   1.205  53.660  1.00  0.00     0.010 C 
ENDBRANCH   4  10
ENDBRANCH   1   3
BRANCH   1  12
HETATM   12  C9  UNL     1      25.169   3.473  50.918  1.00  0.00     0.134 C 
BRANCH  12  13
HETATM   13  C10 UNL     1      23.932   4.253  50.599  1.00  0.00     0.077 A 
HETATM   14  C11 UNL     1      23.513   5.160  51.685  1.00  0.00     0.100 A 
HETATM   15  N2  UNL     1      22.343   5.236  52.256  1.00  0.00    -0.276 NA
HETATM   16  C12 UNL     1      21.272   4.366  51.835  1.00  0.00     0.116 A 
HETATM   17  C13 UNL     1      21.428   3.462  50.862  1.00  0.00     0.027 A 
HETATM   18  C14 UNL     1      22.755   3.421  50.261  1.00  0.00    -0.044 A 
HETATM   19  C15 UNL     1      23.018   2.571  49.299  1.00  0.00     0.034 C 
BRANCH  19  20
HETATM   20  C16 UNL     1      21.984   1.663  48.827  1.00  0.00     0.378 C 
HETATM   21  O1  UNL     1      21.644   0.629  48.196  1.00  0.00    -0.406 OA
ENDBRANCH  19  20
ENDBRANCH  12  13
ENDBRANCH   1  12
TORSDOF 5
ENDMDL
