MODEL 1
REMARK VINA RESULT:      -7.8      0.000      0.000
REMARK  3 active torsions:
REMARK  status: ('A' for Active; 'I' for Inactive)
REMARK    1  A    between atoms: C3_4  and  C4_5 
REMARK    2  A    between atoms: C5_6  and  N1_7 
REMARK    3  A    between atoms: N1_7  and  C6_8 
ROOT
HETATM    1  C6  UNL     1      23.435   3.125  51.412  1.00  0.00     0.138 A 
HETATM    2  N2  UNL     1      22.547   3.646  52.256  1.00  0.00    -0.224 NA
HETATM    3  C7  UNL     1      22.525   4.963  52.433  1.00  0.00     0.235 A 
HETATM    4  N3  UNL     1      23.420   5.657  51.723  1.00  0.00    -0.243 NA
HETATM    5  C8  UNL     1      24.321   5.160  50.868  1.00  0.00     0.073 A 
HETATM    6  C9  UNL     1      24.354   3.805  50.679  1.00  0.00     0.026 A 
HETATM    7  C10 UNL     1      25.267   2.913  49.802  1.00  0.00     0.139 C 
HETATM    8  C11 UNL     1      26.339   3.725  49.372  1.00  0.00    -0.092 C 
HETATM    9  C12 UNL     1      27.170   4.380  49.043  1.00  0.00    -0.005 C 
HETATM   10  C13 UNL     1      28.192   5.214  48.642  1.00  0.00     0.297 C 
HETATM   11  O1  UNL     1      29.293   5.166  48.178  1.00  0.00    -0.258 OA
HETATM   12  N4  UNL     1      27.497   6.470  48.978  1.00  0.00    -0.336 N 
HETATM   13  C14 UNL     1      26.791   7.749  49.319  1.00  0.00     0.231 C 
HETATM   14  N5  UNL     1      25.453   7.374  49.807  1.00  0.00    -0.421 NA
HETATM   15  C15 UNL     1      25.134   6.247  50.279  1.00  0.00     0.350 C 
HETATM   16  H11 UNL     1      28.353   7.036  48.649  1.00  0.00     0.165 HD
ENDROOT
BRANCH   1  17
HETATM   17  N1  UNL     1      23.372   1.700  51.305  1.00  0.00    -0.350 N 
HETATM   18  H7  UNL     1      23.714   1.530  50.341  1.00  0.00     0.166 HD
BRANCH  17  19
HETATM   19  C5  UNL     1      22.889   1.049  52.481  1.00  0.00     0.090 C 
HETATM   20  C4  UNL     1      23.692   0.224  53.116  1.00  0.00     0.018 C 
BRANCH  20  21
HETATM   21  C3  UNL     1      25.037  -0.274  52.973  1.00  0.00     0.015 C 
HETATM   22  C2  UNL     1      26.260   0.213  53.072  1.00  0.00    -0.015 C 
HETATM   23  C1  UNL     1      27.396  -0.710  52.830  1.00  0.00     0.056 C 
HETATM   24 BR1  UNL     1      26.532   2.046  53.517  1.00  0.00    -0.056 Br
ENDBRANCH  20  21
ENDBRANCH  17  19
ENDBRANCH   1  17
TORSDOF 3
ENDMDL
MODEL 2
REMARK VINA RESULT:      -7.6      2.038      3.261
REMARK  3 active torsions:
REMARK  status: ('A' for Active; 'I' for Inactive)
REMARK    1  A    between atoms: C3_4  and  C4_5 
REMARK    2  A    between atoms: C5_6  and  N1_7 
REMARK    3  A    between atoms: N1_7  and  C6_8 
ROOT
HETATM    1  C6  UNL     1      24.204   0.360  52.962  1.00  0.00     0.138 A 
HETATM    2  N2  UNL     1      22.989   0.213  53.485  1.00  0.00    -0.224 NA
HETATM    3  C7  UNL     1      21.990   0.948  53.007  1.00  0.00     0.235 A 
HETATM    4  N3  UNL     1      22.311   1.787  52.018  1.00  0.00    -0.243 NA
HETATM    5  C8  UNL     1      23.521   1.954  51.473  1.00  0.00     0.073 A 
HETATM    6  C9  UNL     1      24.558   1.204  51.957  1.00  0.00     0.026 A 
HETATM    7  C10 UNL     1      26.060   1.164  51.582  1.00  0.00     0.139 C 
HETATM    8  C11 UNL     1      26.308   2.295  50.774  1.00  0.00    -0.092 C 
HETATM    9  C12 UNL     1      26.481   3.186  50.138  1.00  0.00    -0.005 C 
HETATM   10  C13 UNL     1      26.672   4.299  49.347  1.00  0.00     0.297 C 
HETATM   11  O1  UNL     1      27.552   4.988  48.921  1.00  0.00    -0.258 OA
HETATM   12  N4  UNL     1      25.243   4.526  49.064  1.00  0.00    -0.336 N 
HETATM   13  C14 UNL     1      23.789   4.758  48.776  1.00  0.00     0.231 C 
HETATM   14  N5  UNL     1      23.050   3.667  49.435  1.00  0.00    -0.421 NA
HETATM   15  C15 UNL     1      23.473   2.975  50.403  1.00  0.00     0.350 C 
HETATM   16  H11 UNL     1      25.493   5.390  48.471  1.00  0.00     0.165 HD
ENDROOT
BRANCH   1  17
HETATM   17  N1  UNL     1      25.201  -0.476  53.555  1.00  0.00    -0.350 N 
HETATM   18  H7  UNL     1      25.384  -1.174  52.810  1.00  0.00     0.166 HD
BRANCH  17  19
HETATM   19  C5  UNL     1      25.571  -0.090  54.880  1.00  0.00     0.090 C 
HETATM   20  C4  UNL     1      26.850  -0.027  55.180  1.00  0.00     0.018 C 
BRANCH  20  21
HETATM   21  C3  UNL     1      28.111  -0.252  54.520  1.00  0.00     0.015 C 
HETATM   22  C2  UNL     1      29.019   0.481  53.903  1.00  0.00    -0.015 C 
HETATM   23  C1  UNL     1      30.212  -0.210  53.355  1.00  0.00     0.056 C 
HETATM   24 BR1  UNL     1      28.783   2.365  53.734  1.00  0.00    -0.056 Br
ENDBRANCH  20  21
ENDBRANCH  17  19
ENDBRANCH   1  17
TORSDOF 3
ENDMDL
MODEL 3
REMARK VINA RESULT:      -7.5      4.720      7.876
REMARK  3 active torsions:
REMARK  status: ('A' for Active; 'I' for Inactive)
REMARK    1  A    between atoms: C3_4  and  C4_5 
REMARK    2  A    between atoms: C5_6  and  N1_7 
REMARK    3  A    between atoms: N1_7  and  C6_8 
ROOT
HETATM    1  C6  UNL     1      23.677  -0.350  53.516  1.00  0.00     0.138 A 
HETATM    2  N2  UNL     1      24.111  -0.818  54.684  1.00  0.00    -0.224 NA
HETATM    3  C7  UNL     1      23.247  -1.419  55.498  1.00  0.00     0.235 A 
HETATM    4  N3  UNL     1      21.991  -1.499  55.050  1.00  0.00    -0.243 NA
HETATM    5  C8  UNL     1      21.528  -1.039  53.881  1.00  0.00     0.073 A 
HETATM    6  C9  UNL     1      22.407  -0.418  53.036  1.00  0.00     0.026 A 
HETATM    7  C10 UNL     1      22.207   0.241  51.649  1.00  0.00     0.139 C 
HETATM    8  C11 UNL     1      20.815   0.363  51.453  1.00  0.00    -0.092 C 
HETATM    9  C12 UNL     1      19.718   0.447  51.318  1.00  0.00    -0.005 C 
HETATM   10  C13 UNL     1      18.350   0.538  51.169  1.00  0.00     0.297 C 
HETATM   11  O1  UNL     1      17.530   1.104  50.507  1.00  0.00    -0.258 OA
HETATM   12  N4  UNL     1      18.021  -0.423  52.237  1.00  0.00    -0.336 N 
HETATM   13  C14 UNL     1      17.686  -1.402  53.324  1.00  0.00     0.231 C 
HETATM   14  N5  UNL     1      18.967  -1.905  53.848  1.00  0.00    -0.421 NA
HETATM   15  C15 UNL     1      20.081  -1.318  53.750  1.00  0.00     0.350 C 
HETATM   16  H11 UNL     1      16.970  -0.276  52.052  1.00  0.00     0.165 HD
ENDROOT
BRANCH   1  17
HETATM   17  N1  UNL     1      24.689   0.280  52.727  1.00  0.00    -0.350 N 
HETATM   18  H7  UNL     1      24.545  -0.147  51.792  1.00  0.00     0.166 HD
BRANCH  17  19
HETATM   19  C5  UNL     1      25.495   1.212  53.451  1.00  0.00     0.090 C 
HETATM   20  C4  UNL     1      25.111   2.469  53.497  1.00  0.00     0.018 C 
BRANCH  20  21
HETATM   21  C3  UNL     1      24.024   3.270  52.993  1.00  0.00     0.015 C 
HETATM   22  C2  UNL     1      23.591   3.672  51.812  1.00  0.00    -0.015 C 
HETATM   23  C1  UNL     1      22.377   4.523  51.773  1.00  0.00     0.056 C 
HETATM   24 BR1  UNL     1      24.513   3.161  50.225  1.00  0.00    -0.056 Br
ENDBRANCH  20  21
ENDBRANCH  17  19
ENDBRANCH   1  17
TORSDOF 3
ENDMDL
MODEL 4
REMARK VINA RESULT:      -7.5      3.943      6.324
REMARK  3 active torsions:
REMARK  status: ('A' for Active; 'I' for Inactive)
REMARK    1  A    between atoms: C3_4  and  C4_5 
REMARK    2  A    between atoms: C5_6  and  N1_7 
REMARK    3  A    between atoms: N1_7  and  C6_8 
ROOT
HETATM    1  C6  UNL     1      24.361   2.782  50.583  1.00  0.00     0.138 A 
HETATM    2  N2  UNL     1      25.064   3.651  49.860  1.00  0.00    -0.224 NA
HETATM    3  C7  UNL     1      26.383   3.703  50.021  1.00  0.00     0.235 A 
HETATM    4  N3  UNL     1      26.890   2.853  50.919  1.00  0.00    -0.243 NA
HETATM    5  C8  UNL     1      26.208   1.969  51.657  1.00  0.00     0.073 A 
HETATM    6  C9  UNL     1      24.850   1.907  51.501  1.00  0.00     0.026 A 
HETATM    7  C10 UNL     1      23.775   1.038  52.199  1.00  0.00     0.139 C 
HETATM    8  C11 UNL     1      24.398   0.437  53.314  1.00  0.00    -0.092 C 
HETATM    9  C12 UNL     1      24.907  -0.028  54.182  1.00  0.00    -0.005 C 
HETATM   10  C13 UNL     1      25.561  -0.597  55.253  1.00  0.00     0.297 C 
HETATM   11  O1  UNL     1      25.329  -1.153  56.287  1.00  0.00    -0.258 OA
HETATM   12  N4  UNL     1      26.923  -0.319  54.760  1.00  0.00    -0.336 N 
HETATM   13  C14 UNL     1      28.308  -0.037  54.259  1.00  0.00     0.231 C 
HETATM   14  N5  UNL     1      28.156   0.605  52.942  1.00  0.00    -0.421 NA
HETATM   15  C15 UNL     1      27.125   1.208  52.534  1.00  0.00     0.350 C 
HETATM   16  H11 UNL     1      27.340  -0.777  55.642  1.00  0.00     0.165 HD
ENDROOT
BRANCH   1  17
HETATM   17  N1  UNL     1      22.954   2.817  50.332  1.00  0.00    -0.350 N 
HETATM   18  H7  UNL     1      22.585   3.291  51.178  1.00  0.00     0.166 HD
BRANCH  17  19
HETATM   19  C5  UNL     1      22.570   2.224  49.090  1.00  0.00     0.090 C 
HETATM   20  C4  UNL     1      21.604   1.332  49.094  1.00  0.00     0.018 C 
BRANCH  20  21
HETATM   21  C3  UNL     1      20.733   0.707  50.059  1.00  0.00     0.015 C 
HETATM   22  C2  UNL     1      19.794   1.095  50.902  1.00  0.00    -0.015 C 
HETATM   23  C1  UNL     1      19.139   0.057  51.734  1.00  0.00     0.056 C 
HETATM   24 BR1  UNL     1      19.312   2.935  51.024  1.00  0.00    -0.056 Br
ENDBRANCH  20  21
ENDBRANCH  17  19
ENDBRANCH   1  17
TORSDOF 3
ENDMDL
MODEL 5
REMARK VINA RESULT:      -7.5      4.187      6.082
REMARK  3 active torsions:
REMARK  status: ('A' for Active; 'I' for Inactive)
REMARK    1  A    between atoms: C3_4  and  C4_5 
REMARK    2  A    between atoms: C5_6  and  N1_7 
REMARK    3  A    between atoms: N1_7  and  C6_8 
ROOT
HETATM    1  C6  UNL     1      21.029   0.423  53.249  1.00  0.00     0.138 A 
HETATM    2  N2  UNL     1      20.458  -0.689  53.706  1.00  0.00    -0.224 NA
HETATM    3  C7  UNL     1      21.227  -1.635  54.238  1.00  0.00     0.235 A 
HETATM    4  N3  UNL     1      22.537  -1.369  54.263  1.00  0.00    -0.243 NA
HETATM    5  C8  UNL     1      23.136  -0.261  53.812  1.00  0.00     0.073 A 
HETATM    6  C9  UNL     1      22.355   0.719  53.263  1.00  0.00     0.026 A 
HETATM    7  C10 UNL     1      22.716   2.087  52.633  1.00  0.00     0.139 C 
HETATM    8  C11 UNL     1      24.115   2.092  52.442  1.00  0.00    -0.092 C 
HETATM    9  C12 UNL     1      25.214   2.076  52.304  1.00  0.00    -0.005 C 
HETATM   10  C13 UNL     1      26.583   2.036  52.145  1.00  0.00     0.297 C 
HETATM   11  O1  UNL     1      27.460   2.597  51.555  1.00  0.00    -0.258 OA
HETATM   12  N4  UNL     1      26.805   0.900  53.057  1.00  0.00    -0.336 N 
HETATM   13  C14 UNL     1      27.032  -0.257  53.986  1.00  0.00     0.231 C 
HETATM   14  N5  UNL     1      25.715  -0.614  54.541  1.00  0.00    -0.421 NA
HETATM   15  C15 UNL     1      24.599  -0.342  54.018  1.00  0.00     0.350 C 
HETATM   16  H11 UNL     1      27.863   0.942  52.860  1.00  0.00     0.165 HD
ENDROOT
BRANCH   1  17
HETATM   17  N1  UNL     1      20.108   1.366  52.696  1.00  0.00    -0.350 N 
HETATM   18  H7  UNL     1      20.381   2.250  53.166  1.00  0.00     0.166 HD
BRANCH  17  19
HETATM   19  C5  UNL     1      19.193   0.803  51.754  1.00  0.00     0.090 C 
HETATM   20  C4  UNL     1      19.540   0.770  50.486  1.00  0.00     0.018 C 
BRANCH  20  21
HETATM   21  C3  UNL     1      20.666   1.166  49.678  1.00  0.00     0.015 C 
HETATM   22  C2  UNL     1      21.252   2.297  49.332  1.00  0.00    -0.015 C 
HETATM   23  C1  UNL     1      22.436   2.220  48.443  1.00  0.00     0.056 C 
HETATM   24 BR1  UNL     1      20.580   3.963  49.970  1.00  0.00    -0.056 Br
ENDBRANCH  20  21
ENDBRANCH  17  19
ENDBRANCH   1  17
TORSDOF 3
ENDMDL
MODEL 6
REMARK VINA RESULT:      -7.5      3.547      6.359
REMARK  3 active torsions:
REMARK  status: ('A' for Active; 'I' for Inactive)
REMARK    1  A    between atoms: C3_4  and  C4_5 
REMARK    2  A    between atoms: C5_6  and  N1_7 
REMARK    3  A    between atoms: N1_7  and  C6_8 
ROOT
HETATM    1  C6  UNL     1      23.506   3.498  51.048  1.00  0.00     0.138 A 
HETATM    2  N2  UNL     1      23.117   4.110  49.932  1.00  0.00    -0.224 NA
HETATM    3  C7  UNL     1      21.909   3.847  49.442  1.00  0.00     0.235 A 
HETATM    4  N3  UNL     1      21.181   2.968  50.138  1.00  0.00    -0.243 NA
HETATM    5  C8  UNL     1      21.548   2.339  51.261  1.00  0.00     0.073 A 
HETATM    6  C9  UNL     1      22.789   2.601  51.775  1.00  0.00     0.026 A 
HETATM    7  C10 UNL     1      23.527   2.041  53.016  1.00  0.00     0.139 C 
HETATM    8  C11 UNL     1      22.789   0.922  53.457  1.00  0.00    -0.092 C 
HETATM    9  C12 UNL     1      22.194   0.047  53.789  1.00  0.00    -0.005 C 
HETATM   10  C13 UNL     1      21.436  -1.033  54.187  1.00  0.00     0.297 C 
HETATM   11  O1  UNL     1      21.511  -2.010  54.874  1.00  0.00    -0.258 OA
HETATM   12  N4  UNL     1      20.235  -0.663  53.416  1.00  0.00    -0.336 N 
HETATM   13  C14 UNL     1      19.011  -0.286  52.633  1.00  0.00     0.231 C 
HETATM   14  N5  UNL     1      19.312   0.997  51.975  1.00  0.00    -0.421 NA
HETATM   15  C15 UNL     1      20.468   1.443  51.731  1.00  0.00     0.350 C 
HETATM   16  H11 UNL     1      19.728  -1.543  53.775  1.00  0.00     0.165 HD
ENDROOT
BRANCH   1  17
HETATM   17  N1  UNL     1      24.823   3.852  51.479  1.00  0.00    -0.350 N 
HETATM   18  H7  UNL     1      24.657   4.216  52.436  1.00  0.00     0.166 HD
BRANCH  17  19
HETATM   19  C5  UNL     1      25.840   3.604  50.507  1.00  0.00     0.090 C 
HETATM   20  C4  UNL     1      26.532   2.489  50.595  1.00  0.00     0.018 C 
BRANCH  20  21
HETATM   21  C3  UNL     1      26.585   1.333  51.454  1.00  0.00     0.015 C 
HETATM   22  C2  UNL     1      27.176   1.001  52.586  1.00  0.00    -0.015 C 
HETATM   23  C1  UNL     1      26.930  -0.360  53.123  1.00  0.00     0.056 C 
HETATM   24 BR1  UNL     1      28.303   2.247  53.485  1.00  0.00    -0.056 Br
ENDBRANCH  20  21
ENDBRANCH  17  19
ENDBRANCH   1  17
TORSDOF 3
ENDMDL
MODEL 7
REMARK VINA RESULT:      -7.4      3.962      7.566
REMARK  3 active torsions:
REMARK  status: ('A' for Active; 'I' for Inactive)
REMARK    1  A    between atoms: C3_4  and  C4_5 
REMARK    2  A    between atoms: C5_6  and  N1_7 
REMARK    3  A    between atoms: N1_7  and  C6_8 
ROOT
HETATM    1  C6  UNL     1      26.456   2.426  52.070  1.00  0.00     0.138 A 
HETATM    2  N2  UNL     1      27.733   2.454  52.445  1.00  0.00    -0.224 NA
HETATM    3  C7  UNL     1      28.140   1.629  53.405  1.00  0.00     0.235 A 
HETATM    4  N3  UNL     1      27.200   0.827  53.915  1.00  0.00    -0.243 NA
HETATM    5  C8  UNL     1      25.912   0.778  53.557  1.00  0.00     0.073 A 
HETATM    6  C9  UNL     1      25.481   1.622  52.570  1.00  0.00     0.026 A 
HETATM    7  C10 UNL     1      24.082   1.842  51.944  1.00  0.00     0.139 C 
HETATM    8  C11 UNL     1      23.155   1.178  52.776  1.00  0.00    -0.092 C 
HETATM    9  C12 UNL     1      22.444   0.648  53.441  1.00  0.00    -0.005 C 
HETATM   10  C13 UNL     1      21.578  -0.022  54.279  1.00  0.00     0.297 C 
HETATM   11  O1  UNL     1      20.412  -0.090  54.538  1.00  0.00    -0.258 OA
HETATM   12  N4  UNL     1      22.616  -0.824  54.953  1.00  0.00    -0.336 N 
HETATM   13  C14 UNL     1      23.671  -1.641  55.638  1.00  0.00     0.231 C 
HETATM   14  N5  UNL     1      24.951  -1.300  54.995  1.00  0.00    -0.421 NA
HETATM   15  C15 UNL     1      25.190  -0.240  54.353  1.00  0.00     0.350 C 
HETATM   16  H11 UNL     1      21.864  -1.286  55.571  1.00  0.00     0.165 HD
ENDROOT
BRANCH   1  17
HETATM   17  N1  UNL     1      26.131   3.358  51.035  1.00  0.00    -0.350 N 
HETATM   18  H7  UNL     1      25.488   4.014  51.517  1.00  0.00     0.166 HD
BRANCH  17  19
HETATM   19  C5  UNL     1      26.759   3.079  49.783  1.00  0.00     0.090 C 
HETATM   20  C4  UNL     1      26.974   4.078  48.954  1.00  0.00     0.018 C 
BRANCH  20  21
HETATM   21  C3  UNL     1      26.747   5.501  48.918  1.00  0.00     0.015 C 
HETATM   22  C2  UNL     1      27.427   6.575  48.566  1.00  0.00    -0.015 C 
HETATM   23  C1  UNL     1      26.761   7.894  48.706  1.00  0.00     0.056 C 
HETATM   24 BR1  UNL     1      29.206   6.413  47.900  1.00  0.00    -0.056 Br
ENDBRANCH  20  21
ENDBRANCH  17  19
ENDBRANCH   1  17
TORSDOF 3
ENDMDL
MODEL 8
REMARK VINA RESULT:      -7.4      4.248      5.755
REMARK  3 active torsions:
REMARK  status: ('A' for Active; 'I' for Inactive)
REMARK    1  A    between atoms: C3_4  and  C4_5 
REMARK    2  A    between atoms: C5_6  and  N1_7 
REMARK    3  A    between atoms: N1_7  and  C6_8 
ROOT
HETATM    1  C6  UNL     1      23.107  -0.301  53.908  1.00  0.00     0.138 A 
HETATM    2  N2  UNL     1      22.446  -1.337  54.418  1.00  0.00    -0.224 NA
HETATM    3  C7  UNL     1      21.126  -1.397  54.262  1.00  0.00     0.235 A 
HETATM    4  N3  UNL     1      20.577  -0.382  53.588  1.00  0.00    -0.243 NA
HETATM    5  C8  UNL     1      21.218   0.670  53.065  1.00  0.00     0.073 A 
HETATM    6  C9  UNL     1      22.576   0.743  53.219  1.00  0.00     0.026 A 
HETATM    7  C10 UNL     1      23.604   1.811  52.773  1.00  0.00     0.139 C 
HETATM    8  C11 UNL     1      22.866   2.944  52.370  1.00  0.00    -0.092 C 
HETATM    9  C12 UNL     1      22.267   3.822  52.055  1.00  0.00    -0.005 C 
HETATM   10  C13 UNL     1      21.502   4.901  51.664  1.00  0.00     0.297 C 
HETATM   11  O1  UNL     1      21.605   6.072  51.443  1.00  0.00    -0.258 OA
HETATM   12  N4  UNL     1      20.238   4.151  51.549  1.00  0.00    -0.336 N 
HETATM   13  C14 UNL     1      18.951   3.389  51.430  1.00  0.00     0.231 C 
HETATM   14  N5  UNL     1      19.266   1.982  51.733  1.00  0.00    -0.421 NA
HETATM   15  C15 UNL     1      20.263   1.580  52.395  1.00  0.00     0.350 C 
HETATM   16  H11 UNL     1      19.725   5.053  51.260  1.00  0.00     0.165 HD
ENDROOT
BRANCH   1  17
HETATM   17  N1  UNL     1      24.518  -0.339  54.140  1.00  0.00    -0.350 N 
HETATM   18  H7  UNL     1      24.611   0.152  55.049  1.00  0.00     0.166 HD
BRANCH  17  19
HETATM   19  C5  UNL     1      25.260  -0.991  53.108  1.00  0.00     0.090 C 
HETATM   20  C4  UNL     1      26.386  -0.445  52.705  1.00  0.00     0.018 C 
BRANCH  20  21
HETATM   21  C3  UNL     1      27.174   0.723  53.012  1.00  0.00     0.015 C 
HETATM   22  C2  UNL     1      28.406   0.975  53.411  1.00  0.00    -0.015 C 
HETATM   23  C1  UNL     1      28.795   2.393  53.605  1.00  0.00     0.056 C 
HETATM   24 BR1  UNL     1      29.629  -0.454  53.719  1.00  0.00    -0.056 Br
ENDBRANCH  20  21
ENDBRANCH  17  19
ENDBRANCH   1  17
TORSDOF 3
ENDMDL
MODEL 9
REMARK VINA RESULT:      -7.1      3.162      6.198
REMARK  3 active torsions:
REMARK  status: ('A' for Active; 'I' for Inactive)
REMARK    1  A    between atoms: C3_4  and  C4_5 
REMARK    2  A    between atoms: C5_6  and  N1_7 
REMARK    3  A    between atoms: N1_7  and  C6_8 
ROOT
HETATM    1  C6  UNL     1      21.767   4.603  51.734  1.00  0.00     0.138 A 
HETATM    2  N2  UNL     1      20.532   4.780  51.270  1.00  0.00    -0.224 NA
HETATM    3  C7  UNL     1      19.674   3.766  51.324  1.00  0.00     0.235 A 
HETATM    4  N3  UNL     1      20.147   2.635  51.854  1.00  0.00    -0.243 NA
HETATM    5  C8  UNL     1      21.382   2.430  52.328  1.00  0.00     0.073 A 
HETATM    6  C9  UNL     1      22.274   3.466  52.278  1.00  0.00     0.026 A 
HETATM    7  C10 UNL     1      23.760   3.563  52.705  1.00  0.00     0.139 C 
HETATM    8  C11 UNL     1      24.203   2.244  52.941  1.00  0.00    -0.092 C 
HETATM    9  C12 UNL     1      24.530   1.200  53.125  1.00  0.00    -0.005 C 
HETATM   10  C13 UNL     1      24.913  -0.104  53.351  1.00  0.00     0.297 C 
HETATM   11  O1  UNL     1      25.902  -0.767  53.471  1.00  0.00    -0.258 OA
HETATM   12  N4  UNL     1      23.546  -0.648  53.433  1.00  0.00    -0.336 N 
HETATM   13  C14 UNL     1      22.154  -1.203  53.517  1.00  0.00     0.231 C 
HETATM   14  N5  UNL     1      21.236  -0.060  53.372  1.00  0.00    -0.421 NA
HETATM   15  C15 UNL     1      21.521   1.046  52.833  1.00  0.00     0.350 C 
HETATM   16  H11 UNL     1      23.944  -1.636  53.595  1.00  0.00     0.165 HD
ENDROOT
BRANCH   1  17
HETATM   17  N1  UNL     1      22.604   5.757  51.621  1.00  0.00    -0.350 N 
HETATM   18  H7  UNL     1      22.937   5.891  52.595  1.00  0.00     0.166 HD
BRANCH  17  19
HETATM   19  C5  UNL     1      22.684   6.291  50.299  1.00  0.00     0.090 C 
HETATM   20  C4  UNL     1      23.605   5.819  49.487  1.00  0.00     0.018 C 
BRANCH  20  21
HETATM   21  C3  UNL     1      24.660   4.838  49.527  1.00  0.00     0.015 C 
HETATM   22  C2  UNL     1      25.953   4.802  49.263  1.00  0.00    -0.015 C 
HETATM   23  C1  UNL     1      26.664   3.515  49.458  1.00  0.00     0.056 C 
HETATM   24 BR1  UNL     1      26.854   6.367  48.653  1.00  0.00    -0.056 Br
ENDBRANCH  20  21
ENDBRANCH  17  19
ENDBRANCH   1  17
TORSDOF 3
ENDMDL
