MODEL 1
REMARK VINA RESULT:      -8.6      0.000      0.000
REMARK  3 active torsions:
REMARK  status: ('A' for Active; 'I' for Inactive)
REMARK    1  A    between atoms: C2_2  and  C3_3 
REMARK    2  A    between atoms: C2_2  and  N4_28 
REMARK    3  A    between atoms: C4_4  and  C5_5 
REMARK       I    between atoms: C5_5  and  N1_7 
ROOT
HETATM    1  C5  UNL     1      24.599   0.793  53.315  1.00  0.00     0.244 C 
HETATM    2  O1  UNL     1      25.438   1.106  54.195  1.00  0.00    -0.268 OA
HETATM    3  N1  UNL     1      24.177   2.009  52.715  1.00  0.00    -0.320 N 
HETATM    4  C6  UNL     1      24.171   3.399  52.550  1.00  0.00     0.110 A 
HETATM    5  C7  UNL     1      23.920   4.676  52.227  1.00  0.00     0.012 C 
HETATM    6  C8  UNL     1      22.789   5.081  51.409  1.00  0.00     0.028 C 
HETATM    7  C9  UNL     1      22.481   6.306  50.979  1.00  0.00     0.033 C 
HETATM    8  C10 UNL     1      21.248   6.399  50.155  1.00  0.00     0.048 C 
HETATM    9  C11 UNL     1      21.593   5.925  48.897  1.00  0.00     0.119 C 
HETATM   10  N2  UNL     1      22.724   5.200  48.244  1.00  0.00    -0.260 NA
HETATM   11  C12 UNL     1      23.883   4.938  48.904  1.00  0.00     0.068 C 
HETATM   12  C13 UNL     1      24.010   3.494  49.274  1.00  0.00     0.030 C 
HETATM   13  C14 UNL     1      23.811   2.613  50.290  1.00  0.00     0.004 C 
HETATM   14  C15 UNL     1      23.316   2.620  51.704  1.00  0.00     0.147 A 
HETATM   15  C16 UNL     1      24.855   6.051  49.221  1.00  0.00     0.022 A 
HETATM   16  C17 UNL     1      25.974   6.111  48.450  1.00  0.00     0.060 A 
HETATM   17  C18 UNL     1      26.876   7.112  48.707  1.00  0.00     0.139 A 
HETATM   18  F1  UNL     1      27.958   7.057  47.859  1.00  0.00    -0.204 F 
HETATM   19  C19 UNL     1      26.679   8.037  49.706  1.00  0.00     0.074 A 
HETATM   20 CL1  UNL     1      27.906   9.254  49.922  1.00  0.00    -0.081 Cl
HETATM   21  C20 UNL     1      25.544   7.974  50.486  1.00  0.00     0.057 A 
HETATM   22  C21 UNL     1      24.598   6.992  50.278  1.00  0.00     0.047 A 
HETATM   23  N3  UNL     1      23.544   7.247  51.300  1.00  0.00    -0.355 N 
HETATM   24  H16 UNL     1      23.878   8.004  51.917  1.00  0.00     0.166 HD
ENDROOT
BRANCH   1  25
HETATM   25  C4  UNL     1      24.094  -0.511  52.911  1.00  0.00     0.072 C 
HETATM   26  C3  UNL     1      22.846  -0.884  53.106  1.00  0.00     0.013 C 
BRANCH  26  27
HETATM   27  C2  UNL     1      21.838  -0.011  53.755  1.00  0.00     0.241 C 
HETATM   28  C1  UNL     1      21.509  -0.471  55.160  1.00  0.00     0.047 C 
BRANCH  27  29
HETATM   29  N4  UNL     1      20.656  -0.014  52.906  1.00  0.00     0.087 N 
HETATM   30  C22 UNL     1      19.596  -0.830  53.417  1.00  0.00     0.310 C 
HETATM   31  C23 UNL     1      20.222   1.322  52.647  1.00  0.00     0.310 C 
ENDBRANCH  27  29
ENDBRANCH  26  27
ENDBRANCH   1  25
TORSDOF 3
ENDMDL
MODEL 2
REMARK VINA RESULT:      -8.2      3.793      5.857
REMARK  3 active torsions:
REMARK  status: ('A' for Active; 'I' for Inactive)
REMARK    1  A    between atoms: C2_2  and  C3_3 
REMARK    2  A    between atoms: C2_2  and  N4_28 
REMARK    3  A    between atoms: C4_4  and  C5_5 
REMARK       I    between atoms: C5_5  and  N1_7 
ROOT
HETATM    1  C5  UNL     1      25.308  -0.078  53.663  1.00  0.00     0.244 C 
HETATM    2  O1  UNL     1      24.798  -1.146  53.243  1.00  0.00    -0.268 OA
HETATM    3  N1  UNL     1      24.973   0.925  52.714  1.00  0.00    -0.320 N 
HETATM    4  C6  UNL     1      24.378   1.404  51.542  1.00  0.00     0.110 A 
HETATM    5  C7  UNL     1      23.975   2.106  50.473  1.00  0.00     0.012 C 
HETATM    6  C8  UNL     1      24.476   3.434  50.160  1.00  0.00     0.028 C 
HETATM    7  C9  UNL     1      24.103   4.241  49.164  1.00  0.00     0.033 C 
HETATM    8  C10 UNL     1      24.810   5.547  49.106  1.00  0.00     0.048 C 
HETATM    9  C11 UNL     1      24.244   6.331  50.102  1.00  0.00     0.119 C 
HETATM   10  N2  UNL     1      23.331   6.170  51.273  1.00  0.00    -0.260 NA
HETATM   11  C12 UNL     1      22.693   4.997  51.528  1.00  0.00     0.068 C 
HETATM   12  C13 UNL     1      23.282   4.274  52.698  1.00  0.00     0.030 C 
HETATM   13  C14 UNL     1      24.164   3.295  53.036  1.00  0.00     0.004 C 
HETATM   14  C15 UNL     1      25.095   2.338  52.359  1.00  0.00     0.147 A 
HETATM   15  C16 UNL     1      21.553   4.536  50.649  1.00  0.00     0.022 A 
HETATM   16  C17 UNL     1      20.302   4.670  51.166  1.00  0.00     0.060 A 
HETATM   17  C18 UNL     1      19.243   4.266  50.394  1.00  0.00     0.139 A 
HETATM   18  F1  UNL     1      18.040   4.455  51.033  1.00  0.00    -0.204 F 
HETATM   19  C19 UNL     1      19.414   3.739  49.133  1.00  0.00     0.074 A 
HETATM   20 CL1  UNL     1      17.981   3.268  48.263  1.00  0.00    -0.081 Cl
HETATM   21  C20 UNL     1      20.683   3.605  48.612  1.00  0.00     0.057 A 
HETATM   22  C21 UNL     1      21.789   3.993  49.339  1.00  0.00     0.047 A 
HETATM   23  N3  UNL     1      22.954   3.692  48.460  1.00  0.00    -0.355 N 
HETATM   24  H16 UNL     1      22.602   3.195  47.626  1.00  0.00     0.166 HD
ENDROOT
BRANCH   1  25
HETATM   25  C4  UNL     1      26.096   0.188  54.857  1.00  0.00     0.072 C 
HETATM   26  C3  UNL     1      27.409   0.282  54.840  1.00  0.00     0.013 C 
BRANCH  26  27
HETATM   27  C2  UNL     1      28.209   0.125  53.601  1.00  0.00     0.241 C 
HETATM   28  C1  UNL     1      29.057  -1.129  53.627  1.00  0.00     0.047 C 
BRANCH  27  29
HETATM   29  N4  UNL     1      29.032   1.318  53.467  1.00  0.00     0.087 N 
HETATM   30  C22 UNL     1      28.341   2.415  52.859  1.00  0.00     0.310 C 
HETATM   31  C23 UNL     1      29.600   1.680  54.727  1.00  0.00     0.310 C 
ENDBRANCH  27  29
ENDBRANCH  26  27
ENDBRANCH   1  25
TORSDOF 3
ENDMDL
MODEL 3
REMARK VINA RESULT:      -7.9      4.468      6.469
REMARK  3 active torsions:
REMARK  status: ('A' for Active; 'I' for Inactive)
REMARK    1  A    between atoms: C2_2  and  C3_3 
REMARK    2  A    between atoms: C2_2  and  N4_28 
REMARK    3  A    between atoms: C4_4  and  C5_5 
REMARK       I    between atoms: C5_5  and  N1_7 
ROOT
HETATM    1  C5  UNL     1      23.364  -0.524  53.524  1.00  0.00     0.244 C 
HETATM    2  O1  UNL     1      22.650  -1.557  53.556  1.00  0.00    -0.268 OA
HETATM    3  N1  UNL     1      22.898   0.250  52.428  1.00  0.00    -0.320 N 
HETATM    4  C6  UNL     1      22.069   0.514  51.333  1.00  0.00     0.110 A 
HETATM    5  C7  UNL     1      21.475   0.983  50.226  1.00  0.00     0.012 C 
HETATM    6  C8  UNL     1      22.013   2.081  49.439  1.00  0.00     0.028 C 
HETATM    7  C9  UNL     1      21.478   2.663  48.364  1.00  0.00     0.033 C 
HETATM    8  C10 UNL     1      22.279   3.767  47.775  1.00  0.00     0.048 C 
HETATM    9  C11 UNL     1      22.083   4.864  48.602  1.00  0.00     0.119 C 
HETATM   10  N2  UNL     1      21.500   5.166  49.945  1.00  0.00    -0.260 NA
HETATM   11  C12 UNL     1      20.831   4.225  50.663  1.00  0.00     0.068 C 
HETATM   12  C13 UNL     1      21.629   3.729  51.828  1.00  0.00     0.030 C 
HETATM   13  C14 UNL     1      22.460   2.729  52.226  1.00  0.00     0.004 C 
HETATM   14  C15 UNL     1      23.072   1.484  51.662  1.00  0.00     0.147 A 
HETATM   15  C16 UNL     1      19.458   3.764  50.235  1.00  0.00     0.022 A 
HETATM   16  C17 UNL     1      18.409   4.241  50.958  1.00  0.00     0.060 A 
HETATM   17  C18 UNL     1      17.147   3.847  50.594  1.00  0.00     0.139 A 
HETATM   18  F1  UNL     1      16.184   4.399  51.405  1.00  0.00    -0.204 F 
HETATM   19  C19 UNL     1      16.922   2.999  49.534  1.00  0.00     0.074 A 
HETATM   20 CL1  UNL     1      15.268   2.581  49.182  1.00  0.00    -0.081 Cl
HETATM   21  C20 UNL     1      17.986   2.517  48.802  1.00  0.00     0.057 A 
HETATM   22  C21 UNL     1      19.280   2.875  49.118  1.00  0.00     0.047 A 
HETATM   23  N3  UNL     1      20.132   2.164  48.124  1.00  0.00    -0.355 N 
HETATM   24  H16 UNL     1      19.521   1.542  47.571  1.00  0.00     0.166 HD
ENDROOT
BRANCH   1  25
HETATM   25  C4  UNL     1      24.463  -0.107  54.382  1.00  0.00     0.072 C 
HETATM   26  C3  UNL     1      25.714  -0.069  53.972  1.00  0.00     0.013 C 
BRANCH  26  27
HETATM   27  C2  UNL     1      26.120  -0.446  52.596  1.00  0.00     0.241 C 
HETATM   28  C1  UNL     1      26.646  -1.865  52.528  1.00  0.00     0.047 C 
BRANCH  27  29
HETATM   29  N4  UNL     1      27.126   0.513  52.166  1.00  0.00     0.087 N 
HETATM   30  C22 UNL     1      26.568   1.680  51.551  1.00  0.00     0.310 C 
HETATM   31  C23 UNL     1      27.997   0.847  53.249  1.00  0.00     0.310 C 
ENDBRANCH  27  29
ENDBRANCH  26  27
ENDBRANCH   1  25
TORSDOF 3
ENDMDL
MODEL 4
REMARK VINA RESULT:      -7.9      2.918      4.805
REMARK  3 active torsions:
REMARK  status: ('A' for Active; 'I' for Inactive)
REMARK    1  A    between atoms: C2_2  and  C3_3 
REMARK    2  A    between atoms: C2_2  and  N4_28 
REMARK    3  A    between atoms: C4_4  and  C5_5 
REMARK       I    between atoms: C5_5  and  N1_7 
ROOT
HETATM    1  C5  UNL     1      22.887   0.329  52.494  1.00  0.00     0.244 C 
HETATM    2  O1  UNL     1      22.045  -0.299  51.805  1.00  0.00    -0.268 OA
HETATM    3  N1  UNL     1      23.240   1.480  51.740  1.00  0.00    -0.320 N 
HETATM    4  C6  UNL     1      23.177   2.328  50.629  1.00  0.00     0.110 A 
HETATM    5  C7  UNL     1      23.361   3.265  49.688  1.00  0.00     0.012 C 
HETATM    6  C8  UNL     1      24.460   4.216  49.716  1.00  0.00     0.028 C 
HETATM    7  C9  UNL     1      24.702   5.220  48.872  1.00  0.00     0.033 C 
HETATM    8  C10 UNL     1      25.918   6.021  49.168  1.00  0.00     0.048 C 
HETATM    9  C11 UNL     1      25.580   6.849  50.230  1.00  0.00     0.119 C 
HETATM   10  N2  UNL     1      24.477   7.001  51.226  1.00  0.00    -0.260 NA
HETATM   11  C12 UNL     1      23.341   6.258  51.155  1.00  0.00     0.068 C 
HETATM   12  C13 UNL     1      23.289   5.201  52.213  1.00  0.00     0.030 C 
HETATM   13  C14 UNL     1      23.544   3.886  52.445  1.00  0.00     0.004 C 
HETATM   14  C15 UNL     1      24.057   2.691  51.700  1.00  0.00     0.147 A 
HETATM   15  C16 UNL     1      22.320   6.517  50.072  1.00  0.00     0.022 A 
HETATM   16  C17 UNL     1      21.189   7.170  50.453  1.00  0.00     0.060 A 
HETATM   17  C18 UNL     1      20.243   7.426  49.494  1.00  0.00     0.139 A 
HETATM   18  F1  UNL     1      19.154   8.088  50.011  1.00  0.00    -0.204 F 
HETATM   19  C19 UNL     1      20.408   7.044  48.182  1.00  0.00     0.074 A 
HETATM   20 CL1  UNL     1      19.126   7.433  47.069  1.00  0.00    -0.081 Cl
HETATM   21  C20 UNL     1      21.555   6.383  47.798  1.00  0.00     0.057 A 
HETATM   22  C21 UNL     1      22.545   6.096  48.715  1.00  0.00     0.047 A 
HETATM   23  N3  UNL     1      23.598   5.385  47.938  1.00  0.00    -0.355 N 
HETATM   24  H16 UNL     1      23.236   5.227  46.984  1.00  0.00     0.166 HD
ENDROOT
BRANCH   1  25
HETATM   25  C4  UNL     1      23.450   0.032  53.802  1.00  0.00     0.072 C 
HETATM   26  C3  UNL     1      24.738  -0.160  53.998  1.00  0.00     0.013 C 
BRANCH  26  27
HETATM   27  C2  UNL     1      25.736  -0.091  52.904  1.00  0.00     0.241 C 
HETATM   28  C1  UNL     1      26.298  -1.454  52.560  1.00  0.00     0.047 C 
BRANCH  27  29
HETATM   29  N4  UNL     1      26.784   0.822  53.335  1.00  0.00     0.087 N 
HETATM   30  C22 UNL     1      27.847   0.169  54.039  1.00  0.00     0.310 C 
HETATM   31  C23 UNL     1      27.269   1.587  52.230  1.00  0.00     0.310 C 
ENDBRANCH  27  29
ENDBRANCH  26  27
ENDBRANCH   1  25
TORSDOF 3
ENDMDL
MODEL 5
REMARK VINA RESULT:      -7.8      8.702     12.549
REMARK  3 active torsions:
REMARK  status: ('A' for Active; 'I' for Inactive)
REMARK    1  A    between atoms: C2_2  and  C3_3 
REMARK    2  A    between atoms: C2_2  and  N4_28 
REMARK    3  A    between atoms: C4_4  and  C5_5 
REMARK       I    between atoms: C5_5  and  N1_7 
ROOT
HETATM    1  C5  UNL     1      33.255   5.614  41.287  1.00  0.00     0.244 C 
HETATM    2  O1  UNL     1      32.407   6.341  40.713  1.00  0.00    -0.268 OA
HETATM    3  N1  UNL     1      33.243   5.989  42.657  1.00  0.00    -0.320 N 
HETATM    4  C6  UNL     1      32.805   6.736  43.756  1.00  0.00     0.110 A 
HETATM    5  C7  UNL     1      32.626   7.332  44.943  1.00  0.00     0.012 C 
HETATM    6  C8  UNL     1      33.529   7.151  46.068  1.00  0.00     0.028 C 
HETATM    7  C9  UNL     1      33.415   7.643  47.303  1.00  0.00     0.033 C 
HETATM    8  C10 UNL     1      34.513   7.279  48.236  1.00  0.00     0.048 C 
HETATM    9  C11 UNL     1      34.270   5.967  48.617  1.00  0.00     0.119 C 
HETATM   10  N2  UNL     1      33.391   4.827  48.216  1.00  0.00    -0.260 NA
HETATM   11  C12 UNL     1      32.408   4.973  47.288  1.00  0.00     0.068 C 
HETATM   12  C13 UNL     1      32.760   4.328  45.985  1.00  0.00     0.030 C 
HETATM   13  C14 UNL     1      33.276   4.582  44.753  1.00  0.00     0.004 C 
HETATM   14  C15 UNL     1      33.816   5.745  43.979  1.00  0.00     0.147 A 
HETATM   15  C16 UNL     1      31.154   5.750  47.614  1.00  0.00     0.022 A 
HETATM   16  C17 UNL     1      30.034   5.015  47.852  1.00  0.00     0.060 A 
HETATM   17  C18 UNL     1      28.878   5.687  48.156  1.00  0.00     0.139 A 
HETATM   18  F1  UNL     1      27.827   4.828  48.372  1.00  0.00    -0.204 F 
HETATM   19  C19 UNL     1      28.827   7.061  48.224  1.00  0.00     0.074 A 
HETATM   20 CL1  UNL     1      27.292   7.784  48.619  1.00  0.00    -0.081 Cl
HETATM   21  C20 UNL     1      29.963   7.804  47.982  1.00  0.00     0.057 A 
HETATM   22  C21 UNL     1      31.157   7.187  47.672  1.00  0.00     0.047 A 
HETATM   23  N3  UNL     1      32.128   8.300  47.479  1.00  0.00    -0.355 N 
HETATM   24  H16 UNL     1      31.606   9.189  47.529  1.00  0.00     0.166 HD
ENDROOT
BRANCH   1  25
HETATM   25  C4  UNL     1      34.123   4.573  40.755  1.00  0.00     0.072 C 
HETATM   26  C3  UNL     1      33.659   3.468  40.207  1.00  0.00     0.013 C 
BRANCH  26  27
HETATM   27  C2  UNL     1      32.210   3.182  40.081  1.00  0.00     0.241 C 
HETATM   28  C1  UNL     1      31.913   1.700  40.177  1.00  0.00     0.047 C 
BRANCH  27  29
HETATM   29  N4  UNL     1      31.773   3.728  38.805  1.00  0.00     0.087 N 
HETATM   30  C22 UNL     1      32.013   2.846  37.702  1.00  0.00     0.310 C 
HETATM   31  C23 UNL     1      30.405   4.134  38.874  1.00  0.00     0.310 C 
ENDBRANCH  27  29
ENDBRANCH  26  27
ENDBRANCH   1  25
TORSDOF 3
ENDMDL
MODEL 6
REMARK VINA RESULT:      -7.8      7.103      9.844
REMARK  3 active torsions:
REMARK  status: ('A' for Active; 'I' for Inactive)
REMARK    1  A    between atoms: C2_2  and  C3_3 
REMARK    2  A    between atoms: C2_2  and  N4_28 
REMARK    3  A    between atoms: C4_4  and  C5_5 
REMARK       I    between atoms: C5_5  and  N1_7 
ROOT
HETATM    1  C5  UNL     1      33.880   7.229  48.289  1.00  0.00     0.244 C 
HETATM    2  O1  UNL     1      34.538   8.139  47.728  1.00  0.00    -0.268 OA
HETATM    3  N1  UNL     1      32.565   7.737  48.467  1.00  0.00    -0.320 N 
HETATM    4  C6  UNL     1      31.565   8.710  48.366  1.00  0.00     0.110 A 
HETATM    5  C7  UNL     1      30.458   9.462  48.457  1.00  0.00     0.012 C 
HETATM    6  C8  UNL     1      29.319   9.102  49.285  1.00  0.00     0.028 C 
HETATM    7  C9  UNL     1      28.153   9.739  49.403  1.00  0.00     0.033 C 
HETATM    8  C10 UNL     1      27.181   9.118  50.340  1.00  0.00     0.048 C 
HETATM    9  C11 UNL     1      26.644   8.029  49.667  1.00  0.00     0.119 C 
HETATM   10  N2  UNL     1      26.906   7.237  48.427  1.00  0.00    -0.260 NA
HETATM   11  C12 UNL     1      27.846   7.616  47.521  1.00  0.00     0.068 C 
HETATM   12  C13 UNL     1      29.061   6.744  47.568  1.00  0.00     0.030 C 
HETATM   13  C14 UNL     1      30.314   6.658  48.090  1.00  0.00     0.004 C 
HETATM   14  C15 UNL     1      31.222   7.458  48.972  1.00  0.00     0.147 A 
HETATM   15  C16 UNL     1      27.618   8.818  46.635  1.00  0.00     0.022 A 
HETATM   16  C17 UNL     1      27.295   8.560  45.339  1.00  0.00     0.060 A 
HETATM   17  C18 UNL     1      27.076   9.629  44.508  1.00  0.00     0.139 A 
HETATM   18  F1  UNL     1      26.759   9.229  43.231  1.00  0.00    -0.204 F 
HETATM   19  C19 UNL     1      27.175  10.930  44.946  1.00  0.00     0.074 A 
HETATM   20 CL1  UNL     1      26.872  12.190  43.782  1.00  0.00    -0.081 Cl
HETATM   21  C20 UNL     1      27.503  11.189  46.259  1.00  0.00     0.057 A 
HETATM   22  C21 UNL     1      27.735  10.158  47.146  1.00  0.00     0.047 A 
HETATM   23  N3  UNL     1      28.060  10.824  48.438  1.00  0.00    -0.355 N 
HETATM   24  H16 UNL     1      28.118  11.840  48.264  1.00  0.00     0.166 HD
ENDROOT
BRANCH   1  25
HETATM   25  C4  UNL     1      34.281   5.895  48.712  1.00  0.00     0.072 C 
HETATM   26  C3  UNL     1      33.993   4.811  48.021  1.00  0.00     0.013 C 
BRANCH  26  27
HETATM   27  C2  UNL     1      33.233   4.848  46.748  1.00  0.00     0.241 C 
HETATM   28  C1  UNL     1      32.170   3.772  46.690  1.00  0.00     0.047 C 
BRANCH  27  29
HETATM   29  N4  UNL     1      34.197   4.700  45.668  1.00  0.00     0.087 N 
HETATM   30  C22 UNL     1      35.024   3.538  45.804  1.00  0.00     0.310 C 
HETATM   31  C23 UNL     1      33.540   4.740  44.400  1.00  0.00     0.310 C 
ENDBRANCH  27  29
ENDBRANCH  26  27
ENDBRANCH   1  25
TORSDOF 3
ENDMDL
MODEL 7
REMARK VINA RESULT:      -7.6      2.554      4.573
REMARK  3 active torsions:
REMARK  status: ('A' for Active; 'I' for Inactive)
REMARK    1  A    between atoms: C2_2  and  C3_3 
REMARK    2  A    between atoms: C2_2  and  N4_28 
REMARK    3  A    between atoms: C4_4  and  C5_5 
REMARK       I    between atoms: C5_5  and  N1_7 
ROOT
HETATM    1  C5  UNL     1      22.992   5.187  51.922  1.00  0.00     0.244 C 
HETATM    2  O1  UNL     1      23.646   4.948  52.968  1.00  0.00    -0.268 OA
HETATM    3  N1  UNL     1      23.710   6.196  51.225  1.00  0.00    -0.320 N 
HETATM    4  C6  UNL     1      24.764   7.099  51.045  1.00  0.00     0.110 A 
HETATM    5  C7  UNL     1      25.597   8.074  50.657  1.00  0.00     0.012 C 
HETATM    6  C8  UNL     1      25.279   9.016  49.595  1.00  0.00     0.028 C 
HETATM    7  C9  UNL     1      26.053   9.979  49.091  1.00  0.00     0.033 C 
HETATM    8  C10 UNL     1      25.437  10.784  48.004  1.00  0.00     0.048 C 
HETATM    9  C11 UNL     1      25.489   9.993  46.865  1.00  0.00     0.119 C 
HETATM   10  N2  UNL     1      25.781   8.574  46.499  1.00  0.00    -0.260 NA
HETATM   11  C12 UNL     1      26.247   7.680  47.411  1.00  0.00     0.068 C 
HETATM   12  C13 UNL     1      25.201   6.690  47.819  1.00  0.00     0.030 C 
HETATM   13  C14 UNL     1      24.269   6.428  48.773  1.00  0.00     0.004 C 
HETATM   14  C15 UNL     1      23.748   7.045  50.035  1.00  0.00     0.147 A 
HETATM   15  C16 UNL     1      27.663   7.776  47.928  1.00  0.00     0.022 A 
HETATM   16  C17 UNL     1      28.548   6.870  47.434  1.00  0.00     0.060 A 
HETATM   17  C18 UNL     1      29.845   6.931  47.878  1.00  0.00     0.139 A 
HETATM   18  F1  UNL     1      30.631   5.961  47.302  1.00  0.00    -0.204 F 
HETATM   19  C19 UNL     1      30.261   7.871  48.793  1.00  0.00     0.074 A 
HETATM   20 CL1  UNL     1      31.936   7.835  49.269  1.00  0.00    -0.081 Cl
HETATM   21  C20 UNL     1      29.362   8.789  49.292  1.00  0.00     0.057 A 
HETATM   22  C21 UNL     1      28.044   8.780  48.885  1.00  0.00     0.047 A 
HETATM   23  N3  UNL     1      27.400   9.895  49.634  1.00  0.00    -0.355 N 
HETATM   24  H16 UNL     1      28.093  10.270  50.302  1.00  0.00     0.166 HD
ENDROOT
BRANCH   1  25
HETATM   25  C4  UNL     1      21.750   4.610  51.430  1.00  0.00     0.072 C 
HETATM   26  C3  UNL     1      21.716   3.547  50.653  1.00  0.00     0.013 C 
BRANCH  26  27
HETATM   27  C2  UNL     1      22.940   2.838  50.208  1.00  0.00     0.241 C 
HETATM   28  C1  UNL     1      23.136   2.928  48.710  1.00  0.00     0.047 C 
BRANCH  27  29
HETATM   29  N4  UNL     1      22.818   1.455  50.644  1.00  0.00     0.087 N 
HETATM   30  C22 UNL     1      23.272   1.243  51.986  1.00  0.00     0.310 C 
HETATM   31  C23 UNL     1      21.483   0.984  50.454  1.00  0.00     0.310 C 
ENDBRANCH  27  29
ENDBRANCH  26  27
ENDBRANCH   1  25
TORSDOF 3
ENDMDL
MODEL 8
REMARK VINA RESULT:      -7.6      8.144     11.288
REMARK  3 active torsions:
REMARK  status: ('A' for Active; 'I' for Inactive)
REMARK    1  A    between atoms: C2_2  and  C3_3 
REMARK    2  A    between atoms: C2_2  and  N4_28 
REMARK    3  A    between atoms: C4_4  and  C5_5 
REMARK       I    between atoms: C5_5  and  N1_7 
ROOT
HETATM    1  C5  UNL     1      28.156   8.056  48.881  1.00  0.00     0.244 C 
HETATM    2  O1  UNL     1      27.323   7.357  48.252  1.00  0.00    -0.268 OA
HETATM    3  N1  UNL     1      29.426   7.460  48.660  1.00  0.00    -0.320 N 
HETATM    4  C6  UNL     1      30.294   6.504  48.120  1.00  0.00     0.110 A 
HETATM    5  C7  UNL     1      31.322   5.706  47.798  1.00  0.00     0.012 C 
HETATM    6  C8  UNL     1      32.621   5.783  48.445  1.00  0.00     0.028 C 
HETATM    7  C9  UNL     1      33.723   5.085  48.164  1.00  0.00     0.033 C 
HETATM    8  C10 UNL     1      34.903   5.391  49.014  1.00  0.00     0.048 C 
HETATM    9  C11 UNL     1      35.411   6.594  48.543  1.00  0.00     0.119 C 
HETATM   10  N2  UNL     1      35.007   7.697  47.619  1.00  0.00    -0.260 NA
HETATM   11  C12 UNL     1      33.887   7.614  46.853  1.00  0.00     0.068 C 
HETATM   12  C13 UNL     1      32.789   8.496  47.359  1.00  0.00     0.030 C 
HETATM   13  C14 UNL     1      31.665   8.498  48.125  1.00  0.00     0.004 C 
HETATM   14  C15 UNL     1      30.859   7.535  48.941  1.00  0.00     0.147 A 
HETATM   15  C16 UNL     1      33.834   6.681  45.667  1.00  0.00     0.022 A 
HETATM   16  C17 UNL     1      33.942   7.258  44.440  1.00  0.00     0.060 A 
HETATM   17  C18 UNL     1      33.903   6.439  43.340  1.00  0.00     0.139 A 
HETATM   18  F1  UNL     1      34.021   7.148  42.168  1.00  0.00    -0.204 F 
HETATM   19  C19 UNL     1      33.762   5.074  43.449  1.00  0.00     0.074 A 
HETATM   20 CL1  UNL     1      33.728   4.155  41.969  1.00  0.00    -0.081 Cl
HETATM   21  C20 UNL     1      33.653   4.491  44.693  1.00  0.00     0.057 A 
HETATM   22  C21 UNL     1      33.685   5.260  45.838  1.00  0.00     0.047 A 
HETATM   23  N3  UNL     1      33.537   4.291  46.959  1.00  0.00    -0.355 N 
HETATM   24  H16 UNL     1      33.352   3.360  46.551  1.00  0.00     0.166 HD
ENDROOT
BRANCH   1  25
HETATM   25  C4  UNL     1      27.967   9.247  49.696  1.00  0.00     0.072 C 
HETATM   26  C3  UNL     1      28.127  10.467  49.225  1.00  0.00     0.013 C 
BRANCH  26  27
HETATM   27  C2  UNL     1      28.512  10.741  47.820  1.00  0.00     0.241 C 
HETATM   28  C1  UNL     1      29.768  11.582  47.730  1.00  0.00     0.047 C 
BRANCH  27  29
HETATM   29  N4  UNL     1      27.383  11.404  47.186  1.00  0.00     0.087 N 
HETATM   30  C22 UNL     1      26.515  10.501  46.491  1.00  0.00     0.310 C 
HETATM   31  C23 UNL     1      26.672  12.202  48.134  1.00  0.00     0.310 C 
ENDBRANCH  27  29
ENDBRANCH  26  27
ENDBRANCH   1  25
TORSDOF 3
ENDMDL
MODEL 9
REMARK VINA RESULT:      -7.5      4.750      7.655
REMARK  3 active torsions:
REMARK  status: ('A' for Active; 'I' for Inactive)
REMARK    1  A    between atoms: C2_2  and  C3_3 
REMARK    2  A    between atoms: C2_2  and  N4_28 
REMARK    3  A    between atoms: C4_4  and  C5_5 
REMARK       I    between atoms: C5_5  and  N1_7 
ROOT
HETATM    1  C5  UNL     1      23.799   8.138  50.288  1.00  0.00     0.244 C 
HETATM    2  O1  UNL     1      23.986   7.390  51.279  1.00  0.00    -0.268 OA
HETATM    3  N1  UNL     1      25.067   8.686  49.957  1.00  0.00    -0.320 N 
HETATM    4  C6  UNL     1      26.445   8.866  50.120  1.00  0.00     0.110 A 
HETATM    5  C7  UNL     1      27.724   9.266  50.085  1.00  0.00     0.012 C 
HETATM    6  C8  UNL     1      28.181  10.401  49.299  1.00  0.00     0.028 C 
HETATM    7  C9  UNL     1      29.429  10.846  49.144  1.00  0.00     0.033 C 
HETATM    8  C10 UNL     1      29.574  12.040  48.272  1.00  0.00     0.048 C 
HETATM    9  C11 UNL     1      29.460  11.577  46.968  1.00  0.00     0.119 C 
HETATM   10  N2  UNL     1      29.050  10.330  46.254  1.00  0.00    -0.260 NA
HETATM   11  C12 UNL     1      28.772   9.180  46.922  1.00  0.00     0.068 C 
HETATM   12  C13 UNL     1      27.306   8.882  46.954  1.00  0.00     0.030 C 
HETATM   13  C14 UNL     1      26.190   9.012  47.718  1.00  0.00     0.004 C 
HETATM   14  C15 UNL     1      25.799   9.571  49.052  1.00  0.00     0.147 A 
HETATM   15  C16 UNL     1      29.881   8.377  47.563  1.00  0.00     0.022 A 
HETATM   16  C17 UNL     1      30.254   7.241  46.917  1.00  0.00     0.060 A 
HETATM   17  C18 UNL     1      31.261   6.490  47.468  1.00  0.00     0.139 A 
HETATM   18  F1  UNL     1      31.538   5.372  46.717  1.00  0.00    -0.204 F 
HETATM   19  C19 UNL     1      31.889   6.855  48.637  1.00  0.00     0.074 A 
HETATM   20 CL1  UNL     1      33.152   5.809  49.225  1.00  0.00    -0.081 Cl
HETATM   21  C20 UNL     1      31.510   8.007  49.291  1.00  0.00     0.057 A 
HETATM   22  C21 UNL     1      30.504   8.805  48.787  1.00  0.00     0.047 A 
HETATM   23  N3  UNL     1      30.381   9.931  49.756  1.00  0.00    -0.355 N 
HETATM   24  H16 UNL     1      31.001   9.728  50.556  1.00  0.00     0.166 HD
ENDROOT
BRANCH   1  25
HETATM   25  C4  UNL     1      22.581   8.449  49.554  1.00  0.00     0.072 C 
HETATM   26  C3  UNL     1      22.284   7.892  48.398  1.00  0.00     0.013 C 
BRANCH  26  27
HETATM   27  C2  UNL     1      23.160   6.896  47.737  1.00  0.00     0.241 C 
HETATM   28  C1  UNL     1      23.311   7.167  46.255  1.00  0.00     0.047 C 
BRANCH  27  29
HETATM   29  N4  UNL     1      22.579   5.583  47.979  1.00  0.00     0.087 N 
HETATM   30  C22 UNL     1      22.093   4.953  46.788  1.00  0.00     0.310 C 
HETATM   31  C23 UNL     1      23.500   4.750  48.685  1.00  0.00     0.310 C 
ENDBRANCH  27  29
ENDBRANCH  26  27
ENDBRANCH   1  25
TORSDOF 3
ENDMDL
