MODEL 1
REMARK VINA RESULT:      -8.1      0.000      0.000
REMARK  6 active torsions:
REMARK  status: ('A' for Active; 'I' for Inactive)
REMARK    1  A    between atoms: O1_2  and  C2_3 
REMARK    2  A    between atoms: C2_3  and  C3_4 
REMARK    3  A    between atoms: C8_10  and  N2_11 
REMARK    4  A    between atoms: N2_11  and  C9_12 
REMARK    5  A    between atoms: C9_12  and  C10_13 
REMARK    6  A    between atoms: C10_13  and  C11_14 
ROOT
HETATM    1  C3  UNL     1      21.579  -0.833  53.863  1.00  0.00    -0.013 C 
HETATM    2  C4  UNL     1      21.504  -0.049  52.668  1.00  0.00     0.011 C 
HETATM    3  C5  UNL     1      22.392   0.576  51.906  1.00  0.00    -0.007 C 
HETATM    4  C6  UNL     1      23.756   0.370  52.451  1.00  0.00     0.147 C 
HETATM    5  N1  UNL     1      24.369   1.529  53.020  1.00  0.00    -0.380 N 
HETATM    6  C7  UNL     1      25.569   0.986  53.624  1.00  0.00     0.128 A 
HETATM    7  C8  UNL     1      26.718   1.628  53.241  1.00  0.00     0.155 A 
HETATM    8  N3  UNL     1      27.918   1.248  53.706  1.00  0.00    -0.222 NA
HETATM    9  C17 UNL     1      28.031   0.221  54.567  1.00  0.00     0.238 A 
HETATM   10  N4  UNL     1      26.899  -0.398  54.934  1.00  0.00    -0.215 NA
HETATM   11  C18 UNL     1      25.670  -0.085  54.520  1.00  0.00     0.201 A 
HETATM   12  O2  UNL     1      25.009  -1.029  55.215  1.00  0.00    -0.302 OA
HETATM   13  C19 UNL     1      23.689  -1.318  55.285  1.00  0.00     0.145 C 
HETATM   14  C20 UNL     1      22.427  -1.318  54.906  1.00  0.00     0.038 C 
HETATM   15  H9  UNL     1      24.172   2.543  53.095  1.00  0.00     0.160 HD
ENDROOT
BRANCH   7  16
HETATM   16  N2  UNL     1      26.621   2.721  52.340  1.00  0.00    -0.372 N 
HETATM   17  H10 UNL     1      26.493   3.718  52.604  1.00  0.00     0.161 HD
BRANCH  16  18
HETATM   18  C9  UNL     1      26.704   2.452  50.912  1.00  0.00     0.126 C 
BRANCH  18  19
HETATM   19  C10 UNL     1      26.423   3.660  50.086  1.00  0.00     0.053 C 
BRANCH  19  20
HETATM   20  C11 UNL     1      24.947   3.957  50.145  1.00  0.00    -0.078 C 
HETATM   21  C12 UNL     1      23.987   3.141  49.665  1.00  0.00    -0.020 C 
HETATM   22  C13 UNL     1      22.612   3.715  49.872  1.00  0.00     0.054 C 
HETATM   23  C14 UNL     1      22.452   4.151  51.282  1.00  0.00    -0.027 C 
HETATM   24  C15 UNL     1      23.399   4.936  51.773  1.00  0.00    -0.026 C 
HETATM   25  C16 UNL     1      24.448   5.212  50.757  1.00  0.00     0.060 C 
ENDBRANCH  19  20
ENDBRANCH  18  19
ENDBRANCH  16  18
ENDBRANCH   7  16
BRANCH   1  26
HETATM   26  C2  UNL     1      20.332  -1.244  54.173  1.00  0.00     0.145 C 
BRANCH  26  27
HETATM   27  O1  UNL     1      19.146  -1.056  53.530  1.00  0.00    -0.367 OA
HETATM   28  C1  UNL     1      18.087  -1.970  53.523  1.00  0.00     0.208 C 
ENDBRANCH  26  27
ENDBRANCH   1  26
TORSDOF 6
ENDMDL
MODEL 2
REMARK VINA RESULT:      -7.7      3.904      8.463
REMARK  6 active torsions:
REMARK  status: ('A' for Active; 'I' for Inactive)
REMARK    1  A    between atoms: O1_2  and  C2_3 
REMARK    2  A    between atoms: C2_3  and  C3_4 
REMARK    3  A    between atoms: C8_10  and  N2_11 
REMARK    4  A    between atoms: N2_11  and  C9_12 
REMARK    5  A    between atoms: C9_12  and  C10_13 
REMARK    6  A    between atoms: C10_13  and  C11_14 
ROOT
HETATM    1  C3  UNL     1      27.008   7.223  49.060  1.00  0.00    -0.013 C 
HETATM    2  C4  UNL     1      27.636   6.018  48.612  1.00  0.00     0.011 C 
HETATM    3  C5  UNL     1      27.336   4.727  48.685  1.00  0.00    -0.007 C 
HETATM    4  C6  UNL     1      26.038   4.551  49.382  1.00  0.00     0.147 C 
HETATM    5  N1  UNL     1      26.118   3.959  50.680  1.00  0.00    -0.380 N 
HETATM    6  C7  UNL     1      24.762   4.095  51.171  1.00  0.00     0.128 A 
HETATM    7  C8  UNL     1      24.215   2.919  51.616  1.00  0.00     0.155 A 
HETATM    8  N3  UNL     1      22.965   2.870  52.101  1.00  0.00    -0.222 NA
HETATM    9  C17 UNL     1      22.206   3.979  52.166  1.00  0.00     0.238 A 
HETATM   10  N4  UNL     1      22.753   5.123  51.729  1.00  0.00    -0.215 NA
HETATM   11  C18 UNL     1      23.984   5.258  51.234  1.00  0.00     0.201 A 
HETATM   12  O2  UNL     1      23.927   6.580  50.991  1.00  0.00    -0.302 OA
HETATM   13  C19 UNL     1      24.845   7.428  50.471  1.00  0.00     0.145 C 
HETATM   14  C20 UNL     1      25.925   7.784  49.806  1.00  0.00     0.038 C 
HETATM   15  H9  UNL     1      26.837   3.514  51.279  1.00  0.00     0.160 HD
ENDROOT
BRANCH   7  16
HETATM   16  N2  UNL     1      25.002   1.739  51.564  1.00  0.00    -0.372 N 
HETATM   17  H10 UNL     1      25.613   1.450  50.775  1.00  0.00     0.161 HD
BRANCH  16  18
HETATM   18  C9  UNL     1      24.969   0.832  52.702  1.00  0.00     0.126 C 
BRANCH  18  19
HETATM   19  C10 UNL     1      25.987   1.173  53.734  1.00  0.00     0.053 C 
BRANCH  19  20
HETATM   20  C11 UNL     1      27.049   0.104  53.741  1.00  0.00    -0.078 C 
HETATM   21  C12 UNL     1      27.102  -0.921  52.868  1.00  0.00    -0.020 C 
HETATM   22  C13 UNL     1      28.278  -1.820  53.134  1.00  0.00     0.054 C 
HETATM   23  C14 UNL     1      29.516  -1.010  53.264  1.00  0.00    -0.027 C 
HETATM   24  C15 UNL     1      29.471   0.013  54.104  1.00  0.00    -0.026 C 
HETATM   25  C16 UNL     1      28.136   0.119  54.749  1.00  0.00     0.060 C 
ENDBRANCH  19  20
ENDBRANCH  18  19
ENDBRANCH  16  18
ENDBRANCH   7  16
BRANCH   1  26
HETATM   26  C2  UNL     1      27.771   8.264  48.668  1.00  0.00     0.145 C 
BRANCH  26  27
HETATM   27  O1  UNL     1      28.477   9.174  49.394  1.00  0.00    -0.367 OA
HETATM   28  C1  UNL     1      29.868   9.319  49.359  1.00  0.00     0.208 C 
ENDBRANCH  26  27
ENDBRANCH   1  26
TORSDOF 6
ENDMDL
MODEL 3
REMARK VINA RESULT:      -7.7      4.188      8.566
REMARK  6 active torsions:
REMARK  status: ('A' for Active; 'I' for Inactive)
REMARK    1  A    between atoms: O1_2  and  C2_3 
REMARK    2  A    between atoms: C2_3  and  C3_4 
REMARK    3  A    between atoms: C8_10  and  N2_11 
REMARK    4  A    between atoms: N2_11  and  C9_12 
REMARK    5  A    between atoms: C9_12  and  C10_13 
REMARK    6  A    between atoms: C10_13  and  C11_14 
ROOT
HETATM    1  C3  UNL     1      27.545   6.140  48.326  1.00  0.00    -0.013 C 
HETATM    2  C4  UNL     1      27.681   4.779  48.749  1.00  0.00     0.011 C 
HETATM    3  C5  UNL     1      26.877   3.900  49.335  1.00  0.00    -0.007 C 
HETATM    4  C6  UNL     1      25.546   4.512  49.565  1.00  0.00     0.147 C 
HETATM    5  N1  UNL     1      25.220   4.770  50.933  1.00  0.00    -0.380 N 
HETATM    6  C7  UNL     1      23.987   5.523  50.826  1.00  0.00     0.128 A 
HETATM    7  C8  UNL     1      22.961   5.012  51.578  1.00  0.00     0.155 A 
HETATM    8  N3  UNL     1      21.749   5.588  51.589  1.00  0.00    -0.222 NA
HETATM    9  C17 UNL     1      21.503   6.691  50.860  1.00  0.00     0.238 A 
HETATM   10  N4  UNL     1      22.514   7.181  50.129  1.00  0.00    -0.215 NA
HETATM   11  C18 UNL     1      23.745   6.671  50.061  1.00  0.00     0.201 A 
HETATM   12  O2  UNL     1      24.258   7.574  49.206  1.00  0.00    -0.302 OA
HETATM   13  C19 UNL     1      25.497   7.687  48.672  1.00  0.00     0.145 C 
HETATM   14  C20 UNL     1      26.700   7.293  48.310  1.00  0.00     0.038 C 
HETATM   15  H9  UNL     1      25.619   4.572  51.868  1.00  0.00     0.160 HD
ENDROOT
BRANCH   7  16
HETATM   16  N2  UNL     1      23.202   3.853  52.362  1.00  0.00    -0.372 N 
HETATM   17  H10 UNL     1      23.814   3.803  53.200  1.00  0.00     0.161 HD
BRANCH  16  18
HETATM   18  C9  UNL     1      22.548   2.610  51.982  1.00  0.00     0.126 C 
BRANCH  18  19
HETATM   19  C10 UNL     1      23.445   1.707  51.208  1.00  0.00     0.053 C 
BRANCH  19  20
HETATM   20  C11 UNL     1      24.431   1.072  52.154  1.00  0.00    -0.078 C 
HETATM   21  C12 UNL     1      24.087   0.328  53.224  1.00  0.00    -0.020 C 
HETATM   22  C13 UNL     1      25.296  -0.165  53.972  1.00  0.00     0.054 C 
HETATM   23  C14 UNL     1      26.257  -0.786  53.028  1.00  0.00    -0.027 C 
HETATM   24  C15 UNL     1      26.588  -0.073  51.961  1.00  0.00    -0.026 C 
HETATM   25  C16 UNL     1      25.891   1.239  51.955  1.00  0.00     0.060 C 
ENDBRANCH  19  20
ENDBRANCH  18  19
ENDBRANCH  16  18
ENDBRANCH   7  16
BRANCH   1  26
HETATM   26  C2  UNL     1      28.705   6.518  47.753  1.00  0.00     0.145 C 
BRANCH  26  27
HETATM   27  O1  UNL     1      29.941   6.718  48.290  1.00  0.00    -0.367 OA
HETATM   28  C1  UNL     1      30.590   7.955  48.363  1.00  0.00     0.208 C 
ENDBRANCH  26  27
ENDBRANCH   1  26
TORSDOF 6
ENDMDL
MODEL 4
REMARK VINA RESULT:      -7.6      2.739      5.512
REMARK  6 active torsions:
REMARK  status: ('A' for Active; 'I' for Inactive)
REMARK    1  A    between atoms: O1_2  and  C2_3 
REMARK    2  A    between atoms: C2_3  and  C3_4 
REMARK    3  A    between atoms: C8_10  and  N2_11 
REMARK    4  A    between atoms: N2_11  and  C9_12 
REMARK    5  A    between atoms: C9_12  and  C10_13 
REMARK    6  A    between atoms: C10_13  and  C11_14 
ROOT
HETATM    1  C3  UNL     1      26.075  -0.151  52.725  1.00  0.00    -0.013 C 
HETATM    2  C4  UNL     1      26.819   0.834  52.002  1.00  0.00     0.011 C 
HETATM    3  C5  UNL     1      26.546   2.037  51.514  1.00  0.00    -0.007 C 
HETATM    4  C6  UNL     1      25.144   2.403  51.834  1.00  0.00     0.147 C 
HETATM    5  N1  UNL     1      24.253   2.442  50.717  1.00  0.00    -0.380 N 
HETATM    6  C7  UNL     1      22.963   2.627  51.351  1.00  0.00     0.128 A 
HETATM    7  C8  UNL     1      22.251   3.688  50.854  1.00  0.00     0.155 A 
HETATM    8  N3  UNL     1      21.037   4.000  51.333  1.00  0.00    -0.222 NA
HETATM    9  C17 UNL     1      20.478   3.277  52.320  1.00  0.00     0.238 A 
HETATM   10  N4  UNL     1      21.184   2.241  52.797  1.00  0.00    -0.215 NA
HETATM   11  C18 UNL     1      22.394   1.865  52.379  1.00  0.00     0.201 A 
HETATM   12  O2  UNL     1      22.545   0.817  53.210  1.00  0.00    -0.302 OA
HETATM   13  C19 UNL     1      23.564  -0.062  53.354  1.00  0.00     0.145 C 
HETATM   14  C20 UNL     1      24.793  -0.519  53.242  1.00  0.00     0.038 C 
HETATM   15  H9  UNL     1      24.310   2.371  49.685  1.00  0.00     0.160 HD
ENDROOT
BRANCH   7  16
HETATM   16  N2  UNL     1      22.819   4.459  49.806  1.00  0.00    -0.372 N 
HETATM   17  H10 UNL     1      22.990   4.132  48.835  1.00  0.00     0.161 HD
BRANCH  16  18
HETATM   18  C9  UNL     1      23.205   5.834  50.087  1.00  0.00     0.126 C 
BRANCH  18  19
HETATM   19  C10 UNL     1      24.561   5.932  50.698  1.00  0.00     0.053 C 
BRANCH  19  20
HETATM   20  C11 UNL     1      25.587   5.986  49.596  1.00  0.00    -0.078 C 
HETATM   21  C12 UNL     1      26.197   7.113  49.179  1.00  0.00    -0.020 C 
HETATM   22  C13 UNL     1      27.170   6.843  48.064  1.00  0.00     0.054 C 
HETATM   23  C14 UNL     1      28.063   5.717  48.434  1.00  0.00    -0.027 C 
HETATM   24  C15 UNL     1      27.478   4.610  48.865  1.00  0.00    -0.026 C 
HETATM   25  C16 UNL     1      25.999   4.755  48.879  1.00  0.00     0.060 C 
ENDBRANCH  19  20
ENDBRANCH  18  19
ENDBRANCH  16  18
ENDBRANCH   7  16
BRANCH   1  26
HETATM   26  C2  UNL     1      26.896  -1.188  52.987  1.00  0.00     0.145 C 
BRANCH  26  27
HETATM   27  O1  UNL     1      27.964  -1.290  53.826  1.00  0.00    -0.367 OA
HETATM   28  C1  UNL     1      29.298  -1.373  53.414  1.00  0.00     0.208 C 
ENDBRANCH  26  27
ENDBRANCH   1  26
TORSDOF 6
ENDMDL
MODEL 5
REMARK VINA RESULT:      -7.5      3.478      7.848
REMARK  6 active torsions:
REMARK  status: ('A' for Active; 'I' for Inactive)
REMARK    1  A    between atoms: O1_2  and  C2_3 
REMARK    2  A    between atoms: C2_3  and  C3_4 
REMARK    3  A    between atoms: C8_10  and  N2_11 
REMARK    4  A    between atoms: N2_11  and  C9_12 
REMARK    5  A    between atoms: C9_12  and  C10_13 
REMARK    6  A    between atoms: C10_13  and  C11_14 
ROOT
HETATM    1  C3  UNL     1      25.550   6.097  48.786  1.00  0.00    -0.013 C 
HETATM    2  C4  UNL     1      26.663   5.203  48.886  1.00  0.00     0.011 C 
HETATM    3  C5  UNL     1      26.848   4.000  49.416  1.00  0.00    -0.007 C 
HETATM    4  C6  UNL     1      25.579   3.511  50.009  1.00  0.00     0.147 C 
HETATM    5  N1  UNL     1      25.559   3.442  51.437  1.00  0.00    -0.380 N 
HETATM    6  C7  UNL     1      24.172   3.130  51.717  1.00  0.00     0.128 A 
HETATM    7  C8  UNL     1      24.005   2.035  52.523  1.00  0.00     0.155 A 
HETATM    8  N3  UNL     1      22.783   1.608  52.877  1.00  0.00    -0.222 NA
HETATM    9  C17 UNL     1      21.679   2.247  52.450  1.00  0.00     0.238 A 
HETATM   10  N4  UNL     1      21.856   3.318  51.662  1.00  0.00    -0.215 NA
HETATM   11  C18 UNL     1      23.032   3.806  51.264  1.00  0.00     0.201 A 
HETATM   12  O2  UNL     1      22.555   4.830  50.534  1.00  0.00    -0.302 OA
HETATM   13  C19 UNL     1      23.194   5.782  49.816  1.00  0.00     0.145 C 
HETATM   14  C20 UNL     1      24.193   6.342  49.164  1.00  0.00     0.038 C 
HETATM   15  H9  UNL     1      26.227   3.556  52.221  1.00  0.00     0.160 HD
ENDROOT
BRANCH   7  16
HETATM   16  N2  UNL     1      25.157   1.351  52.993  1.00  0.00    -0.372 N 
HETATM   17  H10 UNL     1      26.128   1.721  52.988  1.00  0.00     0.161 HD
BRANCH  16  18
HETATM   18  C9  UNL     1      24.996   0.010  53.534  1.00  0.00     0.126 C 
BRANCH  18  19
HETATM   19  C10 UNL     1      25.965  -0.286  54.626  1.00  0.00     0.053 C 
BRANCH  19  20
HETATM   20  C11 UNL     1      27.361  -0.247  54.061  1.00  0.00    -0.078 C 
HETATM   21  C12 UNL     1      28.341   0.563  54.509  1.00  0.00    -0.020 C 
HETATM   22  C13 UNL     1      29.620   0.369  53.741  1.00  0.00     0.054 C 
HETATM   23  C14 UNL     1      29.951  -1.076  53.667  1.00  0.00    -0.027 C 
HETATM   24  C15 UNL     1      28.991  -1.885  53.247  1.00  0.00    -0.026 C 
HETATM   25  C16 UNL     1      27.750  -1.129  52.935  1.00  0.00     0.060 C 
ENDBRANCH  19  20
ENDBRANCH  18  19
ENDBRANCH  16  18
ENDBRANCH   7  16
BRANCH   1  26
HETATM   26  C2  UNL     1      25.949   7.186  48.099  1.00  0.00     0.145 C 
BRANCH  26  27
HETATM   27  O1  UNL     1      25.438   7.770  46.979  1.00  0.00    -0.367 OA
HETATM   28  C1  UNL     1      25.224   9.144  46.820  1.00  0.00     0.208 C 
ENDBRANCH  26  27
ENDBRANCH   1  26
TORSDOF 6
ENDMDL
MODEL 6
REMARK VINA RESULT:      -7.4      2.123      5.420
REMARK  6 active torsions:
REMARK  status: ('A' for Active; 'I' for Inactive)
REMARK    1  A    between atoms: O1_2  and  C2_3 
REMARK    2  A    between atoms: C2_3  and  C3_4 
REMARK    3  A    between atoms: C8_10  and  N2_11 
REMARK    4  A    between atoms: N2_11  and  C9_12 
REMARK    5  A    between atoms: C9_12  and  C10_13 
REMARK    6  A    between atoms: C10_13  and  C11_14 
ROOT
HETATM    1  C3  UNL     1      26.543   0.627  54.209  1.00  0.00    -0.013 C 
HETATM    2  C4  UNL     1      26.325   1.727  53.320  1.00  0.00     0.011 C 
HETATM    3  C5  UNL     1      25.253   2.278  52.764  1.00  0.00    -0.007 C 
HETATM    4  C6  UNL     1      24.032   1.566  53.213  1.00  0.00     0.147 C 
HETATM    5  N1  UNL     1      23.374   0.790  52.209  1.00  0.00    -0.380 N 
HETATM    6  C7  UNL     1      22.365   0.081  52.971  1.00  0.00     0.128 A 
HETATM    7  C8  UNL     1      21.097   0.218  52.470  1.00  0.00     0.155 A 
HETATM    8  N3  UNL     1      20.045  -0.372  53.059  1.00  0.00    -0.222 NA
HETATM    9  C17 UNL     1      20.205  -1.122  54.164  1.00  0.00     0.238 A 
HETATM   10  N4  UNL     1      21.451  -1.250  54.643  1.00  0.00    -0.215 NA
HETATM   11  C18 UNL     1      22.547  -0.698  54.121  1.00  0.00     0.201 A 
HETATM   12  O2  UNL     1      23.427  -1.181  55.017  1.00  0.00    -0.302 OA
HETATM   13  C19 UNL     1      24.768  -1.025  55.118  1.00  0.00     0.145 C 
HETATM   14  C20 UNL     1      25.942  -0.469  54.902  1.00  0.00     0.038 C 
HETATM   15  H9  UNL     1      23.448   0.633  51.188  1.00  0.00     0.160 HD
ENDROOT
BRANCH   7  16
HETATM   16  N2  UNL     1      20.907   0.999  51.299  1.00  0.00    -0.372 N 
HETATM   17  H10 UNL     1      21.339   0.818  50.372  1.00  0.00     0.161 HD
BRANCH  16  18
HETATM   18  C9  UNL     1      20.035   2.162  51.374  1.00  0.00     0.126 C 
BRANCH  18  19
HETATM   19  C10 UNL     1      20.517   3.174  52.355  1.00  0.00     0.053 C 
BRANCH  19  20
HETATM   20  C11 UNL     1      21.557   4.038  51.691  1.00  0.00    -0.078 C 
HETATM   21  C12 UNL     1      22.485   4.756  52.353  1.00  0.00    -0.020 C 
HETATM   22  C13 UNL     1      23.379   5.517  51.412  1.00  0.00     0.054 C 
HETATM   23  C14 UNL     1      23.890   4.609  50.355  1.00  0.00    -0.027 C 
HETATM   24  C15 UNL     1      22.990   3.882  49.710  1.00  0.00    -0.026 C 
HETATM   25  C16 UNL     1      21.619   4.154  50.214  1.00  0.00     0.060 C 
ENDBRANCH  19  20
ENDBRANCH  18  19
ENDBRANCH  16  18
ENDBRANCH   7  16
BRANCH   1  26
HETATM   26  C2  UNL     1      27.866   0.550  54.463  1.00  0.00     0.145 C 
BRANCH  26  27
HETATM   27  O1  UNL     1      28.684  -0.530  54.609  1.00  0.00    -0.367 OA
HETATM   28  C1  UNL     1      29.772  -0.825  53.781  1.00  0.00     0.208 C 
ENDBRANCH  26  27
ENDBRANCH   1  26
TORSDOF 6
ENDMDL
MODEL 7
REMARK VINA RESULT:      -7.2      3.462      5.786
REMARK  6 active torsions:
REMARK  status: ('A' for Active; 'I' for Inactive)
REMARK    1  A    between atoms: O1_2  and  C2_3 
REMARK    2  A    between atoms: C2_3  and  C3_4 
REMARK    3  A    between atoms: C8_10  and  N2_11 
REMARK    4  A    between atoms: N2_11  and  C9_12 
REMARK    5  A    between atoms: C9_12  and  C10_13 
REMARK    6  A    between atoms: C10_13  and  C11_14 
ROOT
HETATM    1  C3  UNL     1      23.171   0.998  52.931  1.00  0.00    -0.013 C 
HETATM    2  C4  UNL     1      24.445   1.423  53.426  1.00  0.00     0.011 C 
HETATM    3  C5  UNL     1      25.066   2.592  53.519  1.00  0.00    -0.007 C 
HETATM    4  C6  UNL     1      24.193   3.669  52.994  1.00  0.00     0.147 C 
HETATM    5  N1  UNL     1      24.620   4.255  51.762  1.00  0.00    -0.380 N 
HETATM    6  C7  UNL     1      23.500   5.107  51.414  1.00  0.00     0.128 A 
HETATM    7  C8  UNL     1      23.853   6.406  51.155  1.00  0.00     0.155 A 
HETATM    8  N3  UNL     1      22.936   7.326  50.821  1.00  0.00    -0.222 NA
HETATM    9  C17 UNL     1      21.634   7.000  50.728  1.00  0.00     0.238 A 
HETATM   10  N4  UNL     1      21.301   5.726  50.983  1.00  0.00    -0.215 NA
HETATM   11  C18 UNL     1      22.148   4.753  51.321  1.00  0.00     0.201 A 
HETATM   12  O2  UNL     1      21.240   3.766  51.433  1.00  0.00    -0.302 OA
HETATM   13  C19 UNL     1      21.383   2.460  51.757  1.00  0.00     0.145 C 
HETATM   14  C20 UNL     1      21.974   1.394  52.257  1.00  0.00     0.038 C 
HETATM   15  H9  UNL     1      25.443   4.211  51.135  1.00  0.00     0.160 HD
ENDROOT
BRANCH   7  16
HETATM   16  N2  UNL     1      25.224   6.769  51.239  1.00  0.00    -0.372 N 
HETATM   17  H10 UNL     1      25.844   6.617  52.058  1.00  0.00     0.161 HD
BRANCH  16  18
HETATM   18  C9  UNL     1      25.842   7.414  50.090  1.00  0.00     0.126 C 
BRANCH  18  19
HETATM   19  C10 UNL     1      26.113   6.461  48.978  1.00  0.00     0.053 C 
BRANCH  19  20
HETATM   20  C11 UNL     1      27.553   6.602  48.557  1.00  0.00    -0.078 C 
HETATM   21  C12 UNL     1      28.395   5.568  48.368  1.00  0.00    -0.020 C 
HETATM   22  C13 UNL     1      29.765   6.031  47.952  1.00  0.00     0.054 C 
HETATM   23  C14 UNL     1      29.654   6.994  46.829  1.00  0.00    -0.027 C 
HETATM   24  C15 UNL     1      28.814   8.005  46.994  1.00  0.00    -0.026 C 
HETATM   25  C16 UNL     1      28.148   7.939  48.320  1.00  0.00     0.060 C 
ENDBRANCH  19  20
ENDBRANCH  18  19
ENDBRANCH  16  18
ENDBRANCH   7  16
BRANCH   1  26
HETATM   26  C2  UNL     1      23.068  -0.332  53.127  1.00  0.00     0.145 C 
BRANCH  26  27
HETATM   27  O1  UNL     1      21.973  -1.132  53.254  1.00  0.00    -0.367 OA
HETATM   28  C1  UNL     1      21.361  -1.462  54.468  1.00  0.00     0.208 C 
ENDBRANCH  26  27
ENDBRANCH   1  26
TORSDOF 6
ENDMDL
MODEL 8
REMARK VINA RESULT:      -7.1      2.067      5.329
REMARK  6 active torsions:
REMARK  status: ('A' for Active; 'I' for Inactive)
REMARK    1  A    between atoms: O1_2  and  C2_3 
REMARK    2  A    between atoms: C2_3  and  C3_4 
REMARK    3  A    between atoms: C8_10  and  N2_11 
REMARK    4  A    between atoms: N2_11  and  C9_12 
REMARK    5  A    between atoms: C9_12  and  C10_13 
REMARK    6  A    between atoms: C10_13  and  C11_14 
ROOT
HETATM    1  C3  UNL     1      27.506   0.643  54.122  1.00  0.00    -0.013 C 
HETATM    2  C4  UNL     1      27.659   1.701  53.170  1.00  0.00     0.011 C 
HETATM    3  C5  UNL     1      26.825   2.402  52.413  1.00  0.00    -0.007 C 
HETATM    4  C6  UNL     1      25.430   1.963  52.662  1.00  0.00     0.147 C 
HETATM    5  N1  UNL     1      24.811   1.256  51.585  1.00  0.00    -0.380 N 
HETATM    6  C7  UNL     1      23.570   0.802  52.179  1.00  0.00     0.128 A 
HETATM    7  C8  UNL     1      22.456   1.139  51.456  1.00  0.00     0.155 A 
HETATM    8  N3  UNL     1      21.226   0.797  51.868  1.00  0.00    -0.222 NA
HETATM    9  C17 UNL     1      21.047   0.108  53.010  1.00  0.00     0.238 A 
HETATM   10  N4  UNL     1      22.146  -0.217  53.708  1.00  0.00    -0.215 NA
HETATM   11  C18 UNL     1      23.400   0.084  53.370  1.00  0.00     0.201 A 
HETATM   12  O2  UNL     1      24.005  -0.492  54.424  1.00  0.00    -0.302 OA
HETATM   13  C19 UNL     1      25.314  -0.583  54.757  1.00  0.00     0.145 C 
HETATM   14  C20 UNL     1      26.594  -0.271  54.735  1.00  0.00     0.038 C 
HETATM   15  H9  UNL     1      25.024   1.019  50.599  1.00  0.00     0.160 HD
ENDROOT
BRANCH   7  16
HETATM   16  N2  UNL     1      22.622   1.859  50.243  1.00  0.00    -0.372 N 
HETATM   17  H10 UNL     1      23.069   1.498  49.378  1.00  0.00     0.161 HD
BRANCH  16  18
HETATM   18  C9  UNL     1      22.133   3.228  50.177  1.00  0.00     0.126 C 
BRANCH  18  19
HETATM   19  C10 UNL     1      23.044   4.193  50.854  1.00  0.00     0.053 C 
BRANCH  19  20
HETATM   20  C11 UNL     1      23.957   4.804  49.823  1.00  0.00    -0.078 C 
HETATM   21  C12 UNL     1      23.793   6.032  49.293  1.00  0.00    -0.020 C 
HETATM   22  C13 UNL     1      24.867   6.356  48.291  1.00  0.00     0.054 C 
HETATM   23  C14 UNL     1      26.203   6.071  48.871  1.00  0.00    -0.027 C 
HETATM   24  C15 UNL     1      26.372   4.874  49.414  1.00  0.00    -0.026 C 
HETATM   25  C16 UNL     1      25.134   4.059  49.313  1.00  0.00     0.060 C 
ENDBRANCH  19  20
ENDBRANCH  18  19
ENDBRANCH  16  18
ENDBRANCH   7  16
BRANCH   1  26
HETATM   26  C2  UNL     1      28.726   0.338  54.609  1.00  0.00     0.145 C 
BRANCH  26  27
HETATM   27  O1  UNL     1      29.798  -0.257  54.017  1.00  0.00    -0.367 OA
HETATM   28  C1  UNL     1      29.792  -1.539  53.457  1.00  0.00     0.208 C 
ENDBRANCH  26  27
ENDBRANCH   1  26
TORSDOF 6
ENDMDL
MODEL 9
REMARK VINA RESULT:      -7.1      4.552      8.992
REMARK  6 active torsions:
REMARK  status: ('A' for Active; 'I' for Inactive)
REMARK    1  A    between atoms: O1_2  and  C2_3 
REMARK    2  A    between atoms: C2_3  and  C3_4 
REMARK    3  A    between atoms: C8_10  and  N2_11 
REMARK    4  A    between atoms: N2_11  and  C9_12 
REMARK    5  A    between atoms: C9_12  and  C10_13 
REMARK    6  A    between atoms: C10_13  and  C11_14 
ROOT
HETATM    1  C3  UNL     1      27.807   6.507  48.177  1.00  0.00    -0.013 C 
HETATM    2  C4  UNL     1      27.894   5.124  48.538  1.00  0.00     0.011 C 
HETATM    3  C5  UNL     1      27.058   4.248  49.080  1.00  0.00    -0.007 C 
HETATM    4  C6  UNL     1      25.747   4.895  49.335  1.00  0.00     0.147 C 
HETATM    5  N1  UNL     1      25.426   5.101  50.713  1.00  0.00    -0.380 N 
HETATM    6  C7  UNL     1      24.220   5.900  50.638  1.00  0.00     0.128 A 
HETATM    7  C8  UNL     1      23.174   5.392  51.363  1.00  0.00     0.155 A 
HETATM    8  N3  UNL     1      21.983   6.009  51.399  1.00  0.00    -0.222 NA
HETATM    9  C17 UNL     1      21.778   7.152  50.721  1.00  0.00     0.238 A 
HETATM   10  N4  UNL     1      22.809   7.640  50.015  1.00  0.00    -0.215 NA
HETATM   11  C18 UNL     1      24.021   7.091  49.927  1.00  0.00     0.201 A 
HETATM   12  O2  UNL     1      24.570   8.014  49.115  1.00  0.00    -0.302 OA
HETATM   13  C19 UNL     1      25.814   8.107  48.590  1.00  0.00     0.145 C 
HETATM   14  C20 UNL     1      27.004   7.688  48.213  1.00  0.00     0.038 C 
HETATM   15  H9  UNL     1      25.814   4.845  51.639  1.00  0.00     0.160 HD
ENDROOT
BRANCH   7  16
HETATM   16  N2  UNL     1      23.371   4.190  52.093  1.00  0.00    -0.372 N 
HETATM   17  H10 UNL     1      23.879   4.103  52.996  1.00  0.00     0.161 HD
BRANCH  16  18
HETATM   18  C9  UNL     1      22.826   2.953  51.555  1.00  0.00     0.126 C 
BRANCH  18  19
HETATM   19  C10 UNL     1      21.647   2.466  52.325  1.00  0.00     0.053 C 
BRANCH  19  20
HETATM   20  C11 UNL     1      21.944   1.083  52.844  1.00  0.00    -0.078 C 
HETATM   21  C12 UNL     1      23.163   0.510  52.828  1.00  0.00    -0.020 C 
HETATM   22  C13 UNL     1      23.137  -0.875  53.414  1.00  0.00     0.054 C 
HETATM   23  C14 UNL     1      22.443  -0.857  54.726  1.00  0.00    -0.027 C 
HETATM   24  C15 UNL     1      21.251  -0.279  54.759  1.00  0.00    -0.026 C 
HETATM   25  C16 UNL     1      20.869   0.241  53.421  1.00  0.00     0.060 C 
ENDBRANCH  19  20
ENDBRANCH  18  19
ENDBRANCH  16  18
ENDBRANCH   7  16
BRANCH   1  26
HETATM   26  C2  UNL     1      28.983   6.869  47.625  1.00  0.00     0.145 C 
BRANCH  26  27
HETATM   27  O1  UNL     1      29.361   8.027  47.014  1.00  0.00    -0.367 OA
HETATM   28  C1  UNL     1      30.654   8.304  46.557  1.00  0.00     0.208 C 
ENDBRANCH  26  27
ENDBRANCH   1  26
TORSDOF 6
ENDMDL
