MODEL 1
REMARK VINA RESULT:      -7.9      0.000      0.000
REMARK  7 active torsions:
REMARK  status: ('A' for Active; 'I' for Inactive)
REMARK    1  A    between atoms: N1_1  and  C1_2 
REMARK    2  A    between atoms: C1_2  and  C2_3 
REMARK    3  A    between atoms: C2_3  and  C3_4 
REMARK    4  A    between atoms: C12_17  and  C13_18 
REMARK    5  A    between atoms: C16_23  and  C17_24 
REMARK    6  A    between atoms: C17_24  and  O3_25 
REMARK    7  A    between atoms: O3_25  and  C18_26 
ROOT
HETATM    1  C3  UNL     1      21.032   0.846  52.831  1.00  0.00     0.120 A 
HETATM    2  N2  UNL     1      20.741   0.393  54.015  1.00  0.00    -0.233 NA
HETATM    3  C4  UNL     1      21.663  -0.150  54.803  1.00  0.00     0.235 A 
HETATM    4  N3  UNL     1      22.939  -0.207  54.308  1.00  0.00    -0.240 NA
HETATM    5  C5  UNL     1      23.162   0.292  53.053  1.00  0.00     0.084 A 
HETATM    6  C6  UNL     1      24.573   0.122  52.954  1.00  0.00    -0.004 A 
HETATM    7  C7  UNL     1      25.232  -1.083  52.661  1.00  0.00     0.017 A 
HETATM    8  C8  UNL     1      26.589  -1.262  52.678  1.00  0.00     0.045 A 
HETATM    9  C9  UNL     1      27.356  -0.166  53.011  1.00  0.00     0.138 A 
HETATM   10  F1  UNL     1      28.711  -0.348  53.029  1.00  0.00    -0.204 F 
HETATM   11  C10 UNL     1      26.773   1.038  53.308  1.00  0.00     0.073 A 
HETATM   12 CL1  UNL     1      27.786   2.405  53.725  1.00  0.00    -0.081 Cl
HETATM   13  C11 UNL     1      25.393   1.201  53.285  1.00  0.00     0.041 A 
HETATM   14  C12 UNL     1      22.253   0.842  52.232  1.00  0.00     0.067 A 
ENDROOT
BRANCH  14  15
HETATM   15  C13 UNL     1      22.398   1.339  51.064  1.00  0.00     0.117 C 
HETATM   16  O1  UNL     1      22.000   0.573  49.986  1.00  0.00    -0.345 OA
HETATM   17  C14 UNL     1      21.161   1.081  48.943  1.00  0.00     0.202 C 
HETATM   18  C15 UNL     1      21.890   2.153  48.166  1.00  0.00     0.202 C 
HETATM   19  O2  UNL     1      22.893   2.729  49.011  1.00  0.00    -0.346 OA
HETATM   20  C16 UNL     1      22.863   2.481  50.363  1.00  0.00     0.103 C 
BRANCH  20  21
HETATM   21  C17 UNL     1      23.340   3.424  51.133  1.00  0.00     0.042 C 
BRANCH  21  22
HETATM   22  O3  UNL     1      23.798   4.610  50.634  1.00  0.00     0.000 OA
BRANCH  22  23
HETATM   23  C18 UNL     1      25.203   4.898  50.515  1.00  0.00    -0.006 C 
HETATM   24  C19 UNL     1      25.397   5.452  49.140  1.00  0.00     0.031 C 
HETATM   25  C20 UNL     1      26.837   5.455  48.680  1.00  0.00     0.168 C 
HETATM   26  O4  UNL     1      27.522   4.318  49.096  1.00  0.00    -0.391 OA
HETATM   27  C21 UNL     1      26.640   3.261  49.379  1.00  0.00     0.168 C 
HETATM   28  C22 UNL     1      25.993   3.617  50.715  1.00  0.00     0.031 C 
ENDBRANCH  22  23
ENDBRANCH  21  22
ENDBRANCH  20  21
ENDBRANCH  14  15
BRANCH   1  29
HETATM   29  C2  UNL     1      19.984   1.350  52.193  1.00  0.00    -0.079 C 
BRANCH  29  30
HETATM   30  C1  UNL     1      18.844   1.909  51.813  1.00  0.00     0.139 C 
BRANCH  30  31
HETATM   31  N1  UNL     1      19.261   3.211  51.535  1.00  0.00    -0.402 N 
HETATM   32  H1  UNL     1      18.838   4.163  51.544  1.00  0.00     0.156 HD
HETATM   33  H2  UNL     1      20.235   3.463  51.222  1.00  0.00     0.156 HD
ENDBRANCH  30  31
ENDBRANCH  29  30
ENDBRANCH   1  29
TORSDOF 7
ENDMDL
MODEL 2
REMARK VINA RESULT:      -7.6      3.037      5.695
REMARK  7 active torsions:
REMARK  status: ('A' for Active; 'I' for Inactive)
REMARK    1  A    between atoms: N1_1  and  C1_2 
REMARK    2  A    between atoms: C1_2  and  C2_3 
REMARK    3  A    between atoms: C2_3  and  C3_4 
REMARK    4  A    between atoms: C12_17  and  C13_18 
REMARK    5  A    between atoms: C16_23  and  C17_24 
REMARK    6  A    between atoms: C17_24  and  O3_25 
REMARK    7  A    between atoms: O3_25  and  C18_26 
ROOT
HETATM    1  C3  UNL     1      24.874   4.370  49.621  1.00  0.00     0.120 A 
HETATM    2  N2  UNL     1      25.907   4.610  48.867  1.00  0.00    -0.233 NA
HETATM    3  C4  UNL     1      27.103   4.094  49.134  1.00  0.00     0.235 A 
HETATM    4  N3  UNL     1      27.194   3.295  50.242  1.00  0.00    -0.240 NA
HETATM    5  C5  UNL     1      26.060   3.092  50.981  1.00  0.00     0.084 A 
HETATM    6  C6  UNL     1      26.547   2.176  51.957  1.00  0.00    -0.004 A 
HETATM    7  C7  UNL     1      27.302   2.514  53.091  1.00  0.00     0.017 A 
HETATM    8  C8  UNL     1      27.860   1.617  53.962  1.00  0.00     0.045 A 
HETATM    9  C9  UNL     1      27.657   0.281  53.691  1.00  0.00     0.138 A 
HETATM   10  F1  UNL     1      28.217  -0.613  54.562  1.00  0.00    -0.204 F 
HETATM   11  C10 UNL     1      26.930  -0.115  52.600  1.00  0.00     0.073 A 
HETATM   12 CL1  UNL     1      26.697  -1.824  52.295  1.00  0.00    -0.081 Cl
HETATM   13  C11 UNL     1      26.370   0.810  51.727  1.00  0.00     0.041 A 
HETATM   14  C12 UNL     1      24.840   3.601  50.741  1.00  0.00     0.067 A 
ENDROOT
BRANCH  14  15
HETATM   15  C13 UNL     1      23.745   3.438  51.377  1.00  0.00     0.117 C 
HETATM   16  O1  UNL     1      23.264   4.504  52.112  1.00  0.00    -0.345 OA
HETATM   17  C14 UNL     1      21.911   4.962  52.018  1.00  0.00     0.202 C 
HETATM   18  C15 UNL     1      20.969   3.911  52.555  1.00  0.00     0.202 C 
HETATM   19  O2  UNL     1      21.599   2.629  52.443  1.00  0.00    -0.346 OA
HETATM   20  C16 UNL     1      22.725   2.495  51.664  1.00  0.00     0.103 C 
BRANCH  20  21
HETATM   21  C17 UNL     1      22.903   1.327  51.105  1.00  0.00     0.042 C 
BRANCH  21  22
HETATM   22  O3  UNL     1      22.760   0.159  51.797  1.00  0.00     0.000 OA
BRANCH  22  23
HETATM   23  C18 UNL     1      22.560   0.132  53.222  1.00  0.00    -0.006 C 
HETATM   24  C19 UNL     1      23.634  -0.750  53.774  1.00  0.00     0.031 C 
HETATM   25  C20 UNL     1      23.372  -1.218  55.188  1.00  0.00     0.168 C 
HETATM   26  O4  UNL     1      22.029  -1.505  55.405  1.00  0.00    -0.391 OA
HETATM   27  C21 UNL     1      21.359  -1.774  54.200  1.00  0.00     0.168 C 
HETATM   28  C22 UNL     1      21.178  -0.419  53.522  1.00  0.00     0.031 C 
ENDBRANCH  22  23
ENDBRANCH  21  22
ENDBRANCH  20  21
ENDBRANCH  14  15
BRANCH   1  29
HETATM   29  C2  UNL     1      23.769   4.971  49.196  1.00  0.00    -0.079 C 
BRANCH  29  30
HETATM   30  C1  UNL     1      22.839   5.701  48.598  1.00  0.00     0.139 C 
BRANCH  30  31
HETATM   31  N1  UNL     1      23.605   6.747  48.085  1.00  0.00    -0.402 N 
HETATM   32  H1  UNL     1      23.793   7.742  48.328  1.00  0.00     0.156 HD
HETATM   33  H2  UNL     1      24.212   6.667  47.227  1.00  0.00     0.156 HD
ENDBRANCH  30  31
ENDBRANCH  29  30
ENDBRANCH   1  29
TORSDOF 7
ENDMDL
MODEL 3
REMARK VINA RESULT:      -7.5      1.522      2.077
REMARK  7 active torsions:
REMARK  status: ('A' for Active; 'I' for Inactive)
REMARK    1  A    between atoms: N1_1  and  C1_2 
REMARK    2  A    between atoms: C1_2  and  C2_3 
REMARK    3  A    between atoms: C2_3  and  C3_4 
REMARK    4  A    between atoms: C12_17  and  C13_18 
REMARK    5  A    between atoms: C16_23  and  C17_24 
REMARK    6  A    between atoms: C17_24  and  O3_25 
REMARK    7  A    between atoms: O3_25  and  C18_26 
ROOT
HETATM    1  C3  UNL     1      21.186   0.809  52.917  1.00  0.00     0.120 A 
HETATM    2  N2  UNL     1      20.909   0.301  54.082  1.00  0.00    -0.233 NA
HETATM    3  C4  UNL     1      21.842  -0.273  54.835  1.00  0.00     0.235 A 
HETATM    4  N3  UNL     1      23.112  -0.300  54.325  1.00  0.00    -0.240 NA
HETATM    5  C5  UNL     1      23.320   0.258  53.093  1.00  0.00     0.084 A 
HETATM    6  C6  UNL     1      24.731   0.101  52.972  1.00  0.00    -0.004 A 
HETATM    7  C7  UNL     1      25.393  -1.086  52.617  1.00  0.00     0.017 A 
HETATM    8  C8  UNL     1      26.751  -1.257  52.613  1.00  0.00     0.045 A 
HETATM    9  C9  UNL     1      27.516  -0.173  52.988  1.00  0.00     0.138 A 
HETATM   10  F1  UNL     1      28.872  -0.348  52.984  1.00  0.00    -0.204 F 
HETATM   11  C10 UNL     1      26.929   1.012  53.346  1.00  0.00     0.073 A 
HETATM   12 CL1  UNL     1      27.940   2.364  53.816  1.00  0.00    -0.081 Cl
HETATM   13  C11 UNL     1      25.549   1.168  53.344  1.00  0.00     0.041 A 
HETATM   14  C12 UNL     1      22.400   0.840  52.307  1.00  0.00     0.067 A 
ENDROOT
BRANCH  14  15
HETATM   15  C13 UNL     1      22.531   1.391  51.162  1.00  0.00     0.117 C 
HETATM   16  O1  UNL     1      22.232   0.634  50.046  1.00  0.00    -0.345 OA
HETATM   17  C14 UNL     1      21.378   1.104  48.998  1.00  0.00     0.202 C 
HETATM   18  C15 UNL     1      22.028   2.264  48.280  1.00  0.00     0.202 C 
HETATM   19  O2  UNL     1      22.953   2.895  49.174  1.00  0.00    -0.346 OA
HETATM   20  C16 UNL     1      22.910   2.595  50.515  1.00  0.00     0.103 C 
BRANCH  20  21
HETATM   21  C17 UNL     1      23.280   3.548  51.331  1.00  0.00     0.042 C 
BRANCH  21  22
HETATM   22  O3  UNL     1      22.392   4.440  51.859  1.00  0.00     0.000 OA
BRANCH  22  23
HETATM   23  C18 UNL     1      22.564   5.863  51.721  1.00  0.00    -0.006 C 
HETATM   24  C19 UNL     1      21.448   6.331  50.841  1.00  0.00     0.031 C 
HETATM   25  C20 UNL     1      21.666   7.710  50.262  1.00  0.00     0.168 C 
HETATM   26  O4  UNL     1      22.994   7.927  49.909  1.00  0.00    -0.391 OA
HETATM   27  C21 UNL     1      23.675   6.716  49.703  1.00  0.00     0.168 C 
HETATM   28  C22 UNL     1      23.919   6.143  51.097  1.00  0.00     0.031 C 
ENDBRANCH  22  23
ENDBRANCH  21  22
ENDBRANCH  20  21
ENDBRANCH  14  15
BRANCH   1  29
HETATM   29  C2  UNL     1      20.128   1.336  52.314  1.00  0.00    -0.079 C 
BRANCH  29  30
HETATM   30  C1  UNL     1      19.244   2.074  51.659  1.00  0.00     0.139 C 
BRANCH  30  31
HETATM   31  N1  UNL     1      19.648   3.360  52.016  1.00  0.00    -0.402 N 
HETATM   32  H1  UNL     1      19.207   4.209  52.431  1.00  0.00     0.156 HD
HETATM   33  H2  UNL     1      20.630   3.723  51.898  1.00  0.00     0.156 HD
ENDBRANCH  30  31
ENDBRANCH  29  30
ENDBRANCH   1  29
TORSDOF 7
ENDMDL
MODEL 4
REMARK VINA RESULT:      -7.4      3.515      5.584
REMARK  7 active torsions:
REMARK  status: ('A' for Active; 'I' for Inactive)
REMARK    1  A    between atoms: N1_1  and  C1_2 
REMARK    2  A    between atoms: C1_2  and  C2_3 
REMARK    3  A    between atoms: C2_3  and  C3_4 
REMARK    4  A    between atoms: C12_17  and  C13_18 
REMARK    5  A    between atoms: C16_23  and  C17_24 
REMARK    6  A    between atoms: C17_24  and  O3_25 
REMARK    7  A    between atoms: O3_25  and  C18_26 
ROOT
HETATM    1  C3  UNL     1      21.342   4.837  50.556  1.00  0.00     0.120 A 
HETATM    2  N2  UNL     1      21.534   5.125  51.810  1.00  0.00    -0.233 NA
HETATM    3  C4  UNL     1      22.755   5.248  52.321  1.00  0.00     0.235 A 
HETATM    4  N3  UNL     1      23.803   5.060  51.459  1.00  0.00    -0.240 NA
HETATM    5  C5  UNL     1      23.515   4.762  50.155  1.00  0.00     0.084 A 
HETATM    6  C6  UNL     1      24.828   4.728  49.601  1.00  0.00    -0.004 A 
HETATM    7  C7  UNL     1      25.734   3.662  49.712  1.00  0.00     0.017 A 
HETATM    8  C8  UNL     1      27.031   3.682  49.274  1.00  0.00     0.045 A 
HETATM    9  C9  UNL     1      27.467   4.847  48.680  1.00  0.00     0.138 A 
HETATM   10  F1  UNL     1      28.764   4.865  48.245  1.00  0.00    -0.204 F 
HETATM   11  C10 UNL     1      26.631   5.924  48.543  1.00  0.00     0.073 A 
HETATM   12 CL1  UNL     1      27.229   7.385  47.782  1.00  0.00    -0.081 Cl
HETATM   13  C11 UNL     1      25.318   5.885  48.993  1.00  0.00     0.041 A 
HETATM   14  C12 UNL     1      22.295   4.626  49.610  1.00  0.00     0.067 A 
ENDROOT
BRANCH  14  15
HETATM   15  C13 UNL     1      21.960   4.368  48.405  1.00  0.00     0.117 C 
HETATM   16  O1  UNL     1      21.733   5.437  47.559  1.00  0.00    -0.345 OA
HETATM   17  C14 UNL     1      22.321   5.533  46.258  1.00  0.00     0.202 C 
HETATM   18  C15 UNL     1      21.772   4.449  45.359  1.00  0.00     0.202 C 
HETATM   19  O2  UNL     1      21.324   3.360  46.176  1.00  0.00    -0.346 OA
HETATM   20  C16 UNL     1      21.693   3.310  47.499  1.00  0.00     0.103 C 
BRANCH  20  21
HETATM   21  C17 UNL     1      21.811   2.117  48.020  1.00  0.00     0.042 C 
BRANCH  21  22
HETATM   22  O3  UNL     1      20.894   1.609  48.894  1.00  0.00     0.000 OA
BRANCH  22  23
HETATM   23  C18 UNL     1      21.262   0.697  49.945  1.00  0.00    -0.006 C 
HETATM   24  C19 UNL     1      20.106   0.673  50.895  1.00  0.00     0.031 C 
HETATM   25  C20 UNL     1      20.441   0.088  52.248  1.00  0.00     0.168 C 
HETATM   26  O4  UNL     1      21.712   0.454  52.678  1.00  0.00    -0.391 OA
HETATM   27  C21 UNL     1      22.154   1.624  52.038  1.00  0.00     0.168 C 
HETATM   28  C22 UNL     1      22.525   1.198  50.620  1.00  0.00     0.031 C 
ENDBRANCH  22  23
ENDBRANCH  21  22
ENDBRANCH  20  21
ENDBRANCH  14  15
BRANCH   1  29
HETATM   29  C2  UNL     1      20.058   4.755  50.231  1.00  0.00    -0.079 C 
BRANCH  29  30
HETATM   30  C1  UNL     1      18.738   4.656  50.182  1.00  0.00     0.139 C 
BRANCH  30  31
HETATM   31  N1  UNL     1      18.579   3.579  49.311  1.00  0.00    -0.402 N 
HETATM   32  H1  UNL     1      19.105   3.162  48.514  1.00  0.00     0.156 HD
HETATM   33  H2  UNL     1      17.763   2.914  49.339  1.00  0.00     0.156 HD
ENDBRANCH  30  31
ENDBRANCH  29  30
ENDBRANCH   1  29
TORSDOF 7
ENDMDL
MODEL 5
REMARK VINA RESULT:      -7.3      1.648      3.488
REMARK  7 active torsions:
REMARK  status: ('A' for Active; 'I' for Inactive)
REMARK    1  A    between atoms: N1_1  and  C1_2 
REMARK    2  A    between atoms: C1_2  and  C2_3 
REMARK    3  A    between atoms: C2_3  and  C3_4 
REMARK    4  A    between atoms: C12_17  and  C13_18 
REMARK    5  A    between atoms: C16_23  and  C17_24 
REMARK    6  A    between atoms: C17_24  and  O3_25 
REMARK    7  A    between atoms: O3_25  and  C18_26 
ROOT
HETATM    1  C3  UNL     1      22.124   1.127  53.120  1.00  0.00     0.120 A 
HETATM    2  N2  UNL     1      21.594   0.320  53.992  1.00  0.00    -0.233 NA
HETATM    3  C4  UNL     1      22.285  -0.680  54.530  1.00  0.00     0.235 A 
HETATM    4  N3  UNL     1      23.586  -0.817  54.124  1.00  0.00    -0.240 NA
HETATM    5  C5  UNL     1      24.068   0.075  53.205  1.00  0.00     0.084 A 
HETATM    6  C6  UNL     1      25.425  -0.349  53.119  1.00  0.00    -0.004 A 
HETATM    7  C7  UNL     1      25.891  -1.453  52.387  1.00  0.00     0.017 A 
HETATM    8  C8  UNL     1      27.178  -1.919  52.400  1.00  0.00     0.045 A 
HETATM    9  C9  UNL     1      28.076  -1.242  53.199  1.00  0.00     0.138 A 
HETATM   10  F1  UNL     1      29.361  -1.711  53.211  1.00  0.00    -0.204 F 
HETATM   11  C10 UNL     1      27.682  -0.157  53.938  1.00  0.00     0.073 A 
HETATM   12 CL1  UNL     1      28.857   0.673  54.938  1.00  0.00    -0.081 Cl
HETATM   13  C11 UNL     1      26.372   0.302  53.911  1.00  0.00     0.041 A 
HETATM   14  C12 UNL     1      23.395   1.090  52.639  1.00  0.00     0.067 A 
ENDROOT
BRANCH  14  15
HETATM   15  C13 UNL     1      23.789   1.964  51.793  1.00  0.00     0.117 C 
HETATM   16  O1  UNL     1      24.779   2.841  52.190  1.00  0.00    -0.345 OA
HETATM   17  C14 UNL     1      25.948   3.096  51.405  1.00  0.00     0.202 C 
HETATM   18  C15 UNL     1      25.567   3.796  50.121  1.00  0.00     0.202 C 
HETATM   19  O2  UNL     1      24.205   3.476  49.811  1.00  0.00    -0.346 OA
HETATM   20  C16 UNL     1      23.584   2.444  50.475  1.00  0.00     0.103 C 
BRANCH  20  21
HETATM   21  C17 UNL     1      22.658   1.806  49.809  1.00  0.00     0.042 C 
BRANCH  21  22
HETATM   22  O3  UNL     1      21.558   2.436  49.304  1.00  0.00     0.000 OA
BRANCH  22  23
HETATM   23  C18 UNL     1      21.200   2.353  47.913  1.00  0.00    -0.006 C 
HETATM   24  C19 UNL     1      22.126   3.280  47.191  1.00  0.00     0.031 C 
HETATM   25  C20 UNL     1      21.669   3.632  45.793  1.00  0.00     0.168 C 
HETATM   26  O4  UNL     1      20.290   3.796  45.717  1.00  0.00    -0.391 OA
HETATM   27  C21 UNL     1      19.738   4.090  46.975  1.00  0.00     0.168 C 
HETATM   28  C22 UNL     1      19.751   2.772  47.744  1.00  0.00     0.031 C 
ENDBRANCH  22  23
ENDBRANCH  21  22
ENDBRANCH  20  21
ENDBRANCH  14  15
BRANCH   1  29
HETATM   29  C2  UNL     1      21.282   2.060  52.695  1.00  0.00    -0.079 C 
BRANCH  29  30
HETATM   30  C1  UNL     1      20.252   2.844  52.411  1.00  0.00     0.139 C 
BRANCH  30  31
HETATM   31  N1  UNL     1      19.453   1.980  51.662  1.00  0.00    -0.402 N 
HETATM   32  H1  UNL     1      19.502   1.513  50.732  1.00  0.00     0.156 HD
HETATM   33  H2  UNL     1      18.522   1.609  51.987  1.00  0.00     0.156 HD
ENDBRANCH  30  31
ENDBRANCH  29  30
ENDBRANCH   1  29
TORSDOF 7
ENDMDL
MODEL 6
REMARK VINA RESULT:      -7.3      3.519      6.710
REMARK  7 active torsions:
REMARK  status: ('A' for Active; 'I' for Inactive)
REMARK    1  A    between atoms: N1_1  and  C1_2 
REMARK    2  A    between atoms: C1_2  and  C2_3 
REMARK    3  A    between atoms: C2_3  and  C3_4 
REMARK    4  A    between atoms: C12_17  and  C13_18 
REMARK    5  A    between atoms: C16_23  and  C17_24 
REMARK    6  A    between atoms: C17_24  and  O3_25 
REMARK    7  A    between atoms: O3_25  and  C18_26 
ROOT
HETATM    1  C3  UNL     1      22.763   3.454  48.552  1.00  0.00     0.120 A 
HETATM    2  N2  UNL     1      22.128   3.982  47.546  1.00  0.00    -0.233 NA
HETATM    3  C4  UNL     1      22.403   5.207  47.110  1.00  0.00     0.235 A 
HETATM    4  N3  UNL     1      23.391   5.887  47.771  1.00  0.00    -0.240 NA
HETATM    5  C5  UNL     1      24.011   5.260  48.818  1.00  0.00     0.084 A 
HETATM    6  C6  UNL     1      24.989   6.237  49.163  1.00  0.00    -0.004 A 
HETATM    7  C7  UNL     1      24.753   7.400  49.914  1.00  0.00     0.017 A 
HETATM    8  C8  UNL     1      25.673   8.388  50.145  1.00  0.00     0.045 A 
HETATM    9  C9  UNL     1      26.923   8.215  49.589  1.00  0.00     0.138 A 
HETATM   10  F1  UNL     1      27.839   9.204  49.820  1.00  0.00    -0.204 F 
HETATM   11  C10 UNL     1      27.215   7.102  48.845  1.00  0.00     0.073 A 
HETATM   12 CL1  UNL     1      28.817   6.924  48.158  1.00  0.00    -0.081 Cl
HETATM   13  C11 UNL     1      26.269   6.110  48.622  1.00  0.00     0.041 A 
HETATM   14  C12 UNL     1      23.753   4.028  49.285  1.00  0.00     0.067 A 
ENDROOT
BRANCH  14  15
HETATM   15  C13 UNL     1      24.304   3.383  50.241  1.00  0.00     0.117 C 
HETATM   16  O1  UNL     1      25.481   2.713  49.969  1.00  0.00    -0.345 OA
HETATM   17  C14 UNL     1      26.648   2.834  50.789  1.00  0.00     0.202 C 
HETATM   18  C15 UNL     1      26.389   2.234  52.151  1.00  0.00     0.202 C 
HETATM   19  O2  UNL     1      24.980   2.269  52.407  1.00  0.00    -0.346 OA
HETATM   20  C16 UNL     1      24.166   3.038  51.610  1.00  0.00     0.103 C 
BRANCH  20  21
HETATM   21  C17 UNL     1      23.095   3.526  52.179  1.00  0.00     0.042 C 
BRANCH  21  22
HETATM   22  O3  UNL     1      21.909   2.851  52.198  1.00  0.00     0.000 OA
BRANCH  22  23
HETATM   23  C18 UNL     1      20.643   3.532  52.285  1.00  0.00    -0.006 C 
HETATM   24  C19 UNL     1      19.604   2.523  51.913  1.00  0.00     0.031 C 
HETATM   25  C20 UNL     1      18.262   3.128  51.567  1.00  0.00     0.168 C 
HETATM   26  O4  UNL     1      18.390   4.317  50.858  1.00  0.00    -0.391 OA
HETATM   27  C21 UNL     1      19.638   4.402  50.219  1.00  0.00     0.168 C 
HETATM   28  C22 UNL     1      20.643   4.709  51.327  1.00  0.00     0.031 C 
ENDBRANCH  22  23
ENDBRANCH  21  22
ENDBRANCH  20  21
ENDBRANCH  14  15
BRANCH   1  29
HETATM   29  C2  UNL     1      22.351   2.227  48.842  1.00  0.00    -0.079 C 
BRANCH  29  30
HETATM   30  C1  UNL     1      21.688   1.102  49.070  1.00  0.00     0.139 C 
BRANCH  30  31
HETATM   31  N1  UNL     1      20.429   1.424  48.564  1.00  0.00    -0.402 N 
HETATM   32  H1  UNL     1      19.747   2.206  48.661  1.00  0.00     0.156 HD
HETATM   33  H2  UNL     1      19.892   0.816  47.891  1.00  0.00     0.156 HD
ENDBRANCH  30  31
ENDBRANCH  29  30
ENDBRANCH   1  29
TORSDOF 7
ENDMDL
MODEL 7
REMARK VINA RESULT:      -7.2      3.366      6.938
REMARK  7 active torsions:
REMARK  status: ('A' for Active; 'I' for Inactive)
REMARK    1  A    between atoms: N1_1  and  C1_2 
REMARK    2  A    between atoms: C1_2  and  C2_3 
REMARK    3  A    between atoms: C2_3  and  C3_4 
REMARK    4  A    between atoms: C12_17  and  C13_18 
REMARK    5  A    between atoms: C16_23  and  C17_24 
REMARK    6  A    between atoms: C17_24  and  O3_25 
REMARK    7  A    between atoms: O3_25  and  C18_26 
ROOT
HETATM    1  C3  UNL     1      22.763   3.745  48.299  1.00  0.00     0.120 A 
HETATM    2  N2  UNL     1      22.105   4.367  47.364  1.00  0.00    -0.233 NA
HETATM    3  C4  UNL     1      22.380   5.625  47.034  1.00  0.00     0.235 A 
HETATM    4  N3  UNL     1      23.393   6.234  47.724  1.00  0.00    -0.240 NA
HETATM    5  C5  UNL     1      24.036   5.510  48.691  1.00  0.00     0.084 A 
HETATM    6  C6  UNL     1      25.033   6.444  49.094  1.00  0.00    -0.004 A 
HETATM    7  C7  UNL     1      24.832   7.535  49.955  1.00  0.00     0.017 A 
HETATM    8  C8  UNL     1      25.767   8.490  50.248  1.00  0.00     0.045 A 
HETATM    9  C9  UNL     1      26.999   8.359  49.642  1.00  0.00     0.138 A 
HETATM   10  F1  UNL     1      27.931   9.316  49.935  1.00  0.00    -0.204 F 
HETATM   11  C10 UNL     1      27.258   7.317  48.791  1.00  0.00     0.073 A 
HETATM   12 CL1  UNL     1      28.838   7.190  48.044  1.00  0.00    -0.081 Cl
HETATM   13  C11 UNL     1      26.296   6.356  48.507  1.00  0.00     0.041 A 
HETATM   14  C12 UNL     1      23.779   4.242  49.052  1.00  0.00     0.067 A 
ENDROOT
BRANCH  14  15
HETATM   15  C13 UNL     1      24.350   3.508  49.928  1.00  0.00     0.117 C 
HETATM   16  O1  UNL     1      25.590   2.984  49.617  1.00  0.00    -0.345 OA
HETATM   17  C14 UNL     1      26.713   3.076  50.501  1.00  0.00     0.202 C 
HETATM   18  C15 UNL     1      26.460   2.260  51.747  1.00  0.00     0.202 C 
HETATM   19  O2  UNL     1      25.045   2.142  51.938  1.00  0.00    -0.346 OA
HETATM   20  C16 UNL     1      24.195   2.953  51.224  1.00  0.00     0.103 C 
BRANCH  20  21
HETATM   21  C17 UNL     1      23.067   3.261  51.807  1.00  0.00     0.042 C 
BRANCH  21  22
HETATM   22  O3  UNL     1      22.516   2.485  52.786  1.00  0.00     0.000 OA
BRANCH  22  23
HETATM   23  C18 UNL     1      21.877   1.228  52.497  1.00  0.00    -0.006 C 
HETATM   24  C19 UNL     1      20.406   1.488  52.560  1.00  0.00     0.031 C 
HETATM   25  C20 UNL     1      19.569   0.234  52.671  1.00  0.00     0.168 C 
HETATM   26  O4  UNL     1      20.162  -0.722  53.489  1.00  0.00    -0.391 OA
HETATM   27  C21 UNL     1      21.082  -0.139  54.376  1.00  0.00     0.168 C 
HETATM   28  C22 UNL     1      22.305   0.202  53.530  1.00  0.00     0.031 C 
ENDBRANCH  22  23
ENDBRANCH  21  22
ENDBRANCH  20  21
ENDBRANCH  14  15
BRANCH   1  29
HETATM   29  C2  UNL     1      22.346   2.499  48.488  1.00  0.00    -0.079 C 
BRANCH  29  30
HETATM   30  C1  UNL     1      21.678   1.370  48.671  1.00  0.00     0.139 C 
BRANCH  30  31
HETATM   31  N1  UNL     1      20.374   1.780  48.392  1.00  0.00    -0.402 N 
HETATM   32  H1  UNL     1      19.895   2.345  47.659  1.00  0.00     0.156 HD
HETATM   33  H2  UNL     1      19.539   1.533  48.985  1.00  0.00     0.156 HD
ENDBRANCH  30  31
ENDBRANCH  29  30
ENDBRANCH   1  29
TORSDOF 7
ENDMDL
MODEL 8
REMARK VINA RESULT:      -7.0      2.941      4.930
REMARK  7 active torsions:
REMARK  status: ('A' for Active; 'I' for Inactive)
REMARK    1  A    between atoms: N1_1  and  C1_2 
REMARK    2  A    between atoms: C1_2  and  C2_3 
REMARK    3  A    between atoms: C2_3  and  C3_4 
REMARK    4  A    between atoms: C12_17  and  C13_18 
REMARK    5  A    between atoms: C16_23  and  C17_24 
REMARK    6  A    between atoms: C17_24  and  O3_25 
REMARK    7  A    between atoms: O3_25  and  C18_26 
ROOT
HETATM    1  C3  UNL     1      23.200   0.399  53.055  1.00  0.00     0.120 A 
HETATM    2  N2  UNL     1      24.367   0.124  53.559  1.00  0.00    -0.233 NA
HETATM    3  C4  UNL     1      25.455   0.807  53.217  1.00  0.00     0.235 A 
HETATM    4  N3  UNL     1      25.286   1.819  52.311  1.00  0.00    -0.240 NA
HETATM    5  C5  UNL     1      24.025   2.045  51.830  1.00  0.00     0.084 A 
HETATM    6  C6  UNL     1      24.260   3.186  51.011  1.00  0.00    -0.004 A 
HETATM    7  C7  UNL     1      24.817   3.167  49.722  1.00  0.00     0.017 A 
HETATM    8  C8  UNL     1      25.143   4.275  48.988  1.00  0.00     0.045 A 
HETATM    9  C9  UNL     1      24.900   5.500  49.573  1.00  0.00     0.138 A 
HETATM   10  F1  UNL     1      25.228   6.606  48.838  1.00  0.00    -0.204 F 
HETATM   11  C10 UNL     1      24.359   5.587  50.829  1.00  0.00     0.073 A 
HETATM   12 CL1  UNL     1      24.068   7.164  51.533  1.00  0.00    -0.081 Cl
HETATM   13  C11 UNL     1      24.034   4.450  51.558  1.00  0.00     0.041 A 
HETATM   14  C12 UNL     1      22.908   1.371  52.150  1.00  0.00     0.067 A 
ENDROOT
BRANCH  14  15
HETATM   15  C13 UNL     1      21.706   1.542  51.754  1.00  0.00     0.117 C 
HETATM   16  O1  UNL     1      20.806   2.086  52.650  1.00  0.00    -0.345 OA
HETATM   17  C14 UNL     1      19.951   3.185  52.317  1.00  0.00     0.202 C 
HETATM   18  C15 UNL     1      18.952   2.765  51.264  1.00  0.00     0.202 C 
HETATM   19  O2  UNL     1      19.500   1.666  50.525  1.00  0.00    -0.346 OA
HETATM   20  C16 UNL     1      20.837   1.368  50.647  1.00  0.00     0.103 C 
BRANCH  20  21
HETATM   21  C17 UNL     1      21.406   0.835  49.598  1.00  0.00     0.042 C 
BRANCH  21  22
HETATM   22  O3  UNL     1      21.232   1.337  48.340  1.00  0.00     0.000 OA
BRANCH  22  23
HETATM   23  C18 UNL     1      21.193   2.752  48.080  1.00  0.00    -0.006 C 
HETATM   24  C19 UNL     1      19.860   3.022  47.458  1.00  0.00     0.031 C 
HETATM   25  C20 UNL     1      19.772   4.360  46.760  1.00  0.00     0.168 C 
HETATM   26  O4  UNL     1      20.951   4.684  46.096  1.00  0.00    -0.391 OA
HETATM   27  C21 UNL     1      21.711   3.538  45.811  1.00  0.00     0.168 C 
HETATM   28  C22 UNL     1      22.329   3.117  47.141  1.00  0.00     0.031 C 
ENDBRANCH  22  23
ENDBRANCH  21  22
ENDBRANCH  20  21
ENDBRANCH  14  15
BRANCH   1  29
HETATM   29  C2  UNL     1      22.236  -0.389  53.514  1.00  0.00    -0.079 C 
BRANCH  29  30
HETATM   30  C1  UNL     1      21.294  -1.020  54.200  1.00  0.00     0.139 C 
BRANCH  30  31
HETATM   31  N1  UNL     1      20.720   0.037  54.905  1.00  0.00    -0.402 N 
HETATM   32  H1  UNL     1      20.439   0.232  55.890  1.00  0.00     0.156 HD
HETATM   33  H2  UNL     1      20.437   0.953  54.467  1.00  0.00     0.156 HD
ENDBRANCH  30  31
ENDBRANCH  29  30
ENDBRANCH   1  29
TORSDOF 7
ENDMDL
MODEL 9
REMARK VINA RESULT:      -6.9      4.326      6.299
REMARK  7 active torsions:
REMARK  status: ('A' for Active; 'I' for Inactive)
REMARK    1  A    between atoms: N1_1  and  C1_2 
REMARK    2  A    between atoms: C1_2  and  C2_3 
REMARK    3  A    between atoms: C2_3  and  C3_4 
REMARK    4  A    between atoms: C12_17  and  C13_18 
REMARK    5  A    between atoms: C16_23  and  C17_24 
REMARK    6  A    between atoms: C17_24  and  O3_25 
REMARK    7  A    between atoms: O3_25  and  C18_26 
ROOT
HETATM    1  C3  UNL     1      26.161   3.861  49.903  1.00  0.00     0.120 A 
HETATM    2  N2  UNL     1      26.791   2.984  50.630  1.00  0.00    -0.233 NA
HETATM    3  C4  UNL     1      26.154   2.214  51.506  1.00  0.00     0.235 A 
HETATM    4  N3  UNL     1      24.799   2.385  51.604  1.00  0.00    -0.240 NA
HETATM    5  C5  UNL     1      24.212   3.328  50.803  1.00  0.00     0.084 A 
HETATM    6  C6  UNL     1      22.842   3.139  51.143  1.00  0.00    -0.004 A 
HETATM    7  C7  UNL     1      22.209   3.633  52.296  1.00  0.00     0.017 A 
HETATM    8  C8  UNL     1      20.923   3.352  52.669  1.00  0.00     0.045 A 
HETATM    9  C9  UNL     1      20.203   2.519  51.839  1.00  0.00     0.138 A 
HETATM   10  F1  UNL     1      18.918   2.240  52.215  1.00  0.00    -0.204 F 
HETATM   11  C10 UNL     1      20.763   2.004  50.699  1.00  0.00     0.073 A 
HETATM   12 CL1  UNL     1      19.811   0.950  49.674  1.00  0.00    -0.081 Cl
HETATM   13  C11 UNL     1      22.071   2.300  50.337  1.00  0.00     0.041 A 
HETATM   14  C12 UNL     1      24.827   4.124  49.914  1.00  0.00     0.067 A 
ENDROOT
BRANCH  14  15
HETATM   15  C13 UNL     1      24.339   5.005  49.129  1.00  0.00     0.117 C 
HETATM   16  O1  UNL     1      23.736   4.565  47.966  1.00  0.00    -0.345 OA
HETATM   17  C14 UNL     1      22.438   5.007  47.552  1.00  0.00     0.202 C 
HETATM   18  C15 UNL     1      22.475   6.478  47.211  1.00  0.00     0.202 C 
HETATM   19  O2  UNL     1      23.556   7.088  47.927  1.00  0.00    -0.346 OA
HETATM   20  C16 UNL     1      24.160   6.402  48.955  1.00  0.00     0.103 C 
BRANCH  20  21
HETATM   21  C17 UNL     1      24.656   7.129  49.920  1.00  0.00     0.042 C 
BRANCH  21  22
HETATM   22  O3  UNL     1      25.880   7.726  49.827  1.00  0.00     0.000 OA
BRANCH  22  23
HETATM   23  C18 UNL     1      26.050   9.150  49.962  1.00  0.00    -0.006 C 
HETATM   24  C19 UNL     1      25.703   9.736  48.630  1.00  0.00     0.031 C 
HETATM   25  C20 UNL     1      26.184  11.157  48.446  1.00  0.00     0.168 C 
HETATM   26  O4  UNL     1      27.435  11.366  49.015  1.00  0.00    -0.391 OA
HETATM   27  C21 UNL     1      28.141  10.160  49.161  1.00  0.00     0.168 C 
HETATM   28  C22 UNL     1      27.488   9.447  50.343  1.00  0.00     0.031 C 
ENDBRANCH  22  23
ENDBRANCH  21  22
ENDBRANCH  20  21
ENDBRANCH  14  15
BRANCH   1  29
HETATM   29  C2  UNL     1      26.962   4.536  49.089  1.00  0.00    -0.079 C 
BRANCH  29  30
HETATM   30  C1  UNL     1      27.963   5.056  48.394  1.00  0.00     0.139 C 
BRANCH  30  31
HETATM   31  N1  UNL     1      28.166   6.258  49.071  1.00  0.00    -0.402 N 
HETATM   32  H1  UNL     1      28.950   6.930  49.210  1.00  0.00     0.156 HD
HETATM   33  H2  UNL     1      27.425   6.747  49.639  1.00  0.00     0.156 HD
ENDBRANCH  30  31
ENDBRANCH  29  30
ENDBRANCH   1  29
TORSDOF 7
ENDMDL
