MODEL 1
REMARK VINA RESULT:      -7.9      0.000      0.000
REMARK  4 active torsions:
REMARK  status: ('A' for Active; 'I' for Inactive)
REMARK    1  A    between atoms: C5_5  and  S1_6 
REMARK    2  A    between atoms: S1_6  and  N1_8 
REMARK       I    between atoms: N1_8  and  C6_9 
REMARK    3  A    between atoms: C6_9  and  C7_11 
REMARK    4  A    between atoms: C7_11  and  C8_12 
ROOT
HETATM    1  N1  UNL     1      23.787   1.248  51.760  1.00  0.00    -0.272 N 
HETATM    2  C6  UNL     1      23.865   2.643  51.647  1.00  0.00     0.233 C 
HETATM    3  O2  UNL     1      24.180   3.373  52.640  1.00  0.00    -0.272 OA
HETATM    4  H6  UNL     1      23.535   0.570  50.994  1.00  0.00     0.179 HD
ENDROOT
BRANCH   1   5
HETATM    5  S1  UNL     1      24.091   0.337  53.198  1.00  0.00     0.153 S 
HETATM    6  O1  UNL     1      23.246  -0.901  53.342  1.00  0.00    -0.230 OA
BRANCH   5   7
HETATM    7  C5  UNL     1      25.809   0.055  53.488  1.00  0.00     0.052 A 
HETATM    8  C4  UNL     1      26.581   0.668  54.453  1.00  0.00     0.023 A 
HETATM    9  C3  UNL     1      27.922   0.373  54.595  1.00  0.00     0.008 A 
HETATM   10  C2  UNL     1      28.546  -0.561  53.763  1.00  0.00    -0.062 A 
HETATM   11  C1  UNL     1      29.986  -0.910  53.878  1.00  0.00     0.048 C 
HETATM   12  C15 UNL     1      27.753  -1.167  52.798  1.00  0.00     0.008 A 
HETATM   13  C14 UNL     1      26.405  -0.884  52.641  1.00  0.00     0.023 A 
ENDBRANCH   5   7
ENDBRANCH   1   5
BRANCH   2  14
HETATM   14  C7  UNL     1      23.546   3.129  50.280  1.00  0.00     0.142 C 
BRANCH  14  15
HETATM   15  C8  UNL     1      24.632   3.992  49.743  1.00  0.00    -0.049 A 
HETATM   16  C9  UNL     1      25.909   3.434  49.714  1.00  0.00     0.009 A 
HETATM   17  C10 UNL     1      27.045   4.100  49.244  1.00  0.00     0.019 A 
HETATM   18  C11 UNL     1      26.858   5.385  48.788  1.00  0.00     0.011 A 
HETATM   19 BR1  UNL     1      28.353   6.374  48.125  1.00  0.00    -0.051 Br
HETATM   20  C12 UNL     1      25.598   5.957  48.807  1.00  0.00     0.019 A 
HETATM   21  C13 UNL     1      24.486   5.293  49.272  1.00  0.00     0.009 A 
ENDBRANCH  14  15
ENDBRANCH   2  14
TORSDOF 4
ENDMDL
MODEL 2
REMARK VINA RESULT:      -7.9      0.317      1.114
REMARK  4 active torsions:
REMARK  status: ('A' for Active; 'I' for Inactive)
REMARK    1  A    between atoms: C5_5  and  S1_6 
REMARK    2  A    between atoms: S1_6  and  N1_8 
REMARK       I    between atoms: N1_8  and  C6_9 
REMARK    3  A    between atoms: C6_9  and  C7_11 
REMARK    4  A    between atoms: C7_11  and  C8_12 
ROOT
HETATM    1  N1  UNL     1      23.893   1.526  51.593  1.00  0.00    -0.272 N 
HETATM    2  C6  UNL     1      23.950   2.923  51.493  1.00  0.00     0.233 C 
HETATM    3  O2  UNL     1      24.156   3.655  52.514  1.00  0.00    -0.272 OA
HETATM    4  H6  UNL     1      23.728   0.847  50.805  1.00  0.00     0.179 HD
ENDROOT
BRANCH   1   5
HETATM    5  S1  UNL     1      24.085   0.615  53.051  1.00  0.00     0.153 S 
HETATM    6  O1  UNL     1      23.152  -0.561  53.176  1.00  0.00    -0.230 OA
BRANCH   5   7
HETATM    7  C5  UNL     1      25.769   0.219  53.402  1.00  0.00     0.052 A 
HETATM    8  C4  UNL     1      26.508   0.690  54.469  1.00  0.00     0.023 A 
HETATM    9  C3  UNL     1      27.823   0.315  54.652  1.00  0.00     0.008 A 
HETATM   10  C2  UNL     1      28.455  -0.556  53.762  1.00  0.00    -0.062 A 
HETATM   11  C1  UNL     1      29.869  -0.986  53.918  1.00  0.00     0.048 C 
HETATM   12  C15 UNL     1      27.696  -1.019  52.694  1.00  0.00     0.008 A 
HETATM   13  C14 UNL     1      26.373  -0.654  52.495  1.00  0.00     0.023 A 
ENDBRANCH   5   7
ENDBRANCH   1   5
BRANCH   2  14
HETATM   14  C7  UNL     1      23.747   3.410  50.104  1.00  0.00     0.142 C 
BRANCH  14  15
HETATM   15  C8  UNL     1      24.950   4.120  49.596  1.00  0.00    -0.049 A 
HETATM   16  C9  UNL     1      24.762   5.438  49.182  1.00  0.00     0.009 A 
HETATM   17  C10 UNL     1      25.780   6.254  48.677  1.00  0.00     0.019 A 
HETATM   18  C11 UNL     1      27.034   5.692  48.596  1.00  0.00     0.011 A 
HETATM   19 BR1  UNL     1      28.487   6.731  47.920  1.00  0.00    -0.051 Br
HETATM   20  C12 UNL     1      27.242   4.385  49.003  1.00  0.00     0.019 A 
HETATM   21  C13 UNL     1      26.233   3.591  49.498  1.00  0.00     0.009 A 
ENDBRANCH  14  15
ENDBRANCH   2  14
TORSDOF 4
ENDMDL
MODEL 3
REMARK VINA RESULT:      -7.9      2.460      6.065
REMARK  4 active torsions:
REMARK  status: ('A' for Active; 'I' for Inactive)
REMARK    1  A    between atoms: C5_5  and  S1_6 
REMARK    2  A    between atoms: S1_6  and  N1_8 
REMARK       I    between atoms: N1_8  and  C6_9 
REMARK    3  A    between atoms: C6_9  and  C7_11 
REMARK    4  A    between atoms: C7_11  and  C8_12 
ROOT
HETATM    1  N1  UNL     1      23.543   1.952  52.999  1.00  0.00    -0.272 N 
HETATM    2  C6  UNL     1      23.163   0.612  52.843  1.00  0.00     0.233 C 
HETATM    3  O2  UNL     1      22.428   0.239  51.873  1.00  0.00    -0.272 OA
HETATM    4  H6  UNL     1      24.146   2.347  53.768  1.00  0.00     0.179 HD
ENDROOT
BRANCH   1   5
HETATM    5  S1  UNL     1      23.096   3.253  51.951  1.00  0.00     0.153 S 
HETATM    6  O1  UNL     1      22.333   4.362  52.626  1.00  0.00    -0.230 OA
BRANCH   5   7
HETATM    7  C5  UNL     1      24.432   3.825  50.949  1.00  0.00     0.052 A 
HETATM    8  C4  UNL     1      24.563   5.091  50.417  1.00  0.00     0.023 A 
HETATM    9  C3  UNL     1      25.652   5.436  49.644  1.00  0.00     0.008 A 
HETATM   10  C2  UNL     1      26.665   4.511  49.372  1.00  0.00    -0.062 A 
HETATM   11  C1  UNL     1      27.855   4.837  48.544  1.00  0.00     0.048 C 
HETATM   12  C15 UNL     1      26.515   3.242  49.916  1.00  0.00     0.008 A 
HETATM   13  C14 UNL     1      25.428   2.878  50.695  1.00  0.00     0.023 A 
ENDBRANCH   5   7
ENDBRANCH   1   5
BRANCH   2  14
HETATM   14  C7  UNL     1      23.707  -0.270  53.908  1.00  0.00     0.142 C 
BRANCH  14  15
HETATM   15  C8  UNL     1      25.194  -0.269  53.907  1.00  0.00    -0.049 A 
HETATM   16  C9  UNL     1      25.812  -0.863  52.807  1.00  0.00     0.009 A 
HETATM   17  C10 UNL     1      27.198  -0.953  52.641  1.00  0.00     0.019 A 
HETATM   18  C11 UNL     1      27.972  -0.412  53.642  1.00  0.00     0.011 A 
HETATM   19 BR1  UNL     1      29.876  -0.487  53.501  1.00  0.00    -0.051 Br
HETATM   20  C12 UNL     1      27.378   0.182  54.742  1.00  0.00     0.019 A 
HETATM   21  C13 UNL     1      26.014   0.265  54.896  1.00  0.00     0.009 A 
ENDBRANCH  14  15
ENDBRANCH   2  14
TORSDOF 4
ENDMDL
MODEL 4
REMARK VINA RESULT:      -7.8      2.664      6.352
REMARK  4 active torsions:
REMARK  status: ('A' for Active; 'I' for Inactive)
REMARK    1  A    between atoms: C5_5  and  S1_6 
REMARK    2  A    between atoms: S1_6  and  N1_8 
REMARK       I    between atoms: N1_8  and  C6_9 
REMARK    3  A    between atoms: C6_9  and  C7_11 
REMARK    4  A    between atoms: C7_11  and  C8_12 
ROOT
HETATM    1  N1  UNL     1      23.574   2.209  51.054  1.00  0.00    -0.272 N 
HETATM    2  C6  UNL     1      23.836   2.362  52.422  1.00  0.00     0.233 C 
HETATM    3  O2  UNL     1      23.945   3.513  52.953  1.00  0.00    -0.272 OA
HETATM    4  H6  UNL     1      23.469   1.299  50.533  1.00  0.00     0.179 HD
ENDROOT
BRANCH   1   5
HETATM    5  S1  UNL     1      23.367   3.499  49.920  1.00  0.00     0.153 S 
HETATM    6  O1  UNL     1      22.309   4.500  50.303  1.00  0.00    -0.230 OA
BRANCH   5   7
HETATM    7  C5  UNL     1      24.892   4.239  49.428  1.00  0.00     0.052 A 
HETATM    8  C4  UNL     1      26.133   3.638  49.458  1.00  0.00     0.023 A 
HETATM    9  C3  UNL     1      27.267   4.309  49.049  1.00  0.00     0.008 A 
HETATM   10  C2  UNL     1      27.197   5.626  48.588  1.00  0.00    -0.062 A 
HETATM   11  C1  UNL     1      28.390   6.390  48.138  1.00  0.00     0.048 C 
HETATM   12  C15 UNL     1      25.939   6.215  48.566  1.00  0.00     0.008 A 
HETATM   13  C14 UNL     1      24.790   5.556  48.972  1.00  0.00     0.023 A 
ENDBRANCH   5   7
ENDBRANCH   1   5
BRANCH   2  14
HETATM   14  C7  UNL     1      23.963   1.063  53.133  1.00  0.00     0.142 C 
BRANCH  14  15
HETATM   15  C8  UNL     1      25.388   0.676  53.307  1.00  0.00    -0.049 A 
HETATM   16  C9  UNL     1      25.785  -0.515  52.700  1.00  0.00     0.009 A 
HETATM   17  C10 UNL     1      27.083  -1.031  52.759  1.00  0.00     0.019 A 
HETATM   18  C11 UNL     1      28.004  -0.294  53.470  1.00  0.00     0.011 A 
HETATM   19 BR1  UNL     1      29.804  -0.920  53.606  1.00  0.00    -0.051 Br
HETATM   20  C12 UNL     1      27.631   0.891  54.079  1.00  0.00     0.019 A 
HETATM   21  C13 UNL     1      26.350   1.390  54.014  1.00  0.00     0.009 A 
ENDBRANCH  14  15
ENDBRANCH   2  14
TORSDOF 4
ENDMDL
MODEL 5
REMARK VINA RESULT:      -7.4      1.475      2.039
REMARK  4 active torsions:
REMARK  status: ('A' for Active; 'I' for Inactive)
REMARK    1  A    between atoms: C5_5  and  S1_6 
REMARK    2  A    between atoms: S1_6  and  N1_8 
REMARK       I    between atoms: N1_8  and  C6_9 
REMARK    3  A    between atoms: C6_9  and  C7_11 
REMARK    4  A    between atoms: C7_11  and  C8_12 
ROOT
HETATM    1  N1  UNL     1      24.585   3.134  51.035  1.00  0.00    -0.272 N 
HETATM    2  C6  UNL     1      24.317   4.476  50.733  1.00  0.00     0.233 C 
HETATM    3  O2  UNL     1      24.095   5.332  51.647  1.00  0.00    -0.272 OA
HETATM    4  H6  UNL     1      24.779   2.362  50.345  1.00  0.00     0.179 HD
ENDROOT
BRANCH   1   5
HETATM    5  S1  UNL     1      24.652   2.456  52.625  1.00  0.00     0.153 S 
HETATM    6  O1  UNL     1      23.354   1.858  53.102  1.00  0.00    -0.230 OA
BRANCH   5   7
HETATM    7  C5  UNL     1      26.045   1.402  52.870  1.00  0.00     0.052 A 
HETATM    8  C4  UNL     1      26.149   0.087  52.465  1.00  0.00     0.023 A 
HETATM    9  C3  UNL     1      27.290  -0.651  52.708  1.00  0.00     0.008 A 
HETATM   10  C2  UNL     1      28.383  -0.090  53.373  1.00  0.00    -0.062 A 
HETATM   11  C1  UNL     1      29.630  -0.847  53.657  1.00  0.00     0.048 C 
HETATM   12  C15 UNL     1      28.260   1.234  53.773  1.00  0.00     0.008 A 
HETATM   13  C14 UNL     1      27.123   1.991  53.537  1.00  0.00     0.023 A 
ENDBRANCH   5   7
ENDBRANCH   1   5
BRANCH   2  14
HETATM   14  C7  UNL     1      24.328   4.751  49.272  1.00  0.00     0.142 C 
BRANCH  14  15
HETATM   15  C8  UNL     1      25.588   5.422  48.855  1.00  0.00    -0.049 A 
HETATM   16  C9  UNL     1      26.753   4.662  48.946  1.00  0.00     0.009 A 
HETATM   17  C10 UNL     1      28.024   5.131  48.597  1.00  0.00     0.019 A 
HETATM   18  C11 UNL     1      28.095   6.427  48.140  1.00  0.00     0.011 A 
HETATM   19 BR1  UNL     1      29.790   7.154  47.639  1.00  0.00    -0.051 Br
HETATM   20  C12 UNL     1      26.950   7.198  48.041  1.00  0.00     0.019 A 
HETATM   21  C13 UNL     1      25.704   6.727  48.387  1.00  0.00     0.009 A 
ENDBRANCH  14  15
ENDBRANCH   2  14
TORSDOF 4
ENDMDL
MODEL 6
REMARK VINA RESULT:      -7.2      2.736      4.096
REMARK  4 active torsions:
REMARK  status: ('A' for Active; 'I' for Inactive)
REMARK    1  A    between atoms: C5_5  and  S1_6 
REMARK    2  A    between atoms: S1_6  and  N1_8 
REMARK       I    between atoms: N1_8  and  C6_9 
REMARK    3  A    between atoms: C6_9  and  C7_11 
REMARK    4  A    between atoms: C7_11  and  C8_12 
ROOT
HETATM    1  N1  UNL     1      26.097   3.568  50.998  1.00  0.00    -0.272 N 
HETATM    2  C6  UNL     1      26.396   4.024  49.706  1.00  0.00     0.233 C 
HETATM    3  O2  UNL     1      27.242   3.425  48.969  1.00  0.00    -0.272 OA
HETATM    4  H6  UNL     1      25.414   4.001  51.673  1.00  0.00     0.179 HD
ENDROOT
BRANCH   1   5
HETATM    5  S1  UNL     1      26.798   2.184  51.761  1.00  0.00     0.153 S 
HETATM    6  O1  UNL     1      28.005   2.485  52.609  1.00  0.00    -0.230 OA
BRANCH   5   7
HETATM    7  C5  UNL     1      25.607   1.162  52.569  1.00  0.00     0.052 A 
HETATM    8  C4  UNL     1      25.881   0.137  53.451  1.00  0.00     0.023 A 
HETATM    9  C3  UNL     1      24.870  -0.603  54.029  1.00  0.00     0.008 A 
HETATM   10  C2  UNL     1      23.528  -0.338  53.742  1.00  0.00    -0.062 A 
HETATM   11  C1  UNL     1      22.407  -1.109  54.339  1.00  0.00     0.048 C 
HETATM   12  C15 UNL     1      23.272   0.697  52.852  1.00  0.00     0.008 A 
HETATM   13  C14 UNL     1      24.274   1.451  52.262  1.00  0.00     0.023 A 
ENDBRANCH   5   7
ENDBRANCH   1   5
BRANCH   2  14
HETATM   14  C7  UNL     1      25.629   5.241  49.333  1.00  0.00     0.142 C 
BRANCH  14  15
HETATM   15  C8  UNL     1      26.525   6.415  49.157  1.00  0.00    -0.049 A 
HETATM   16  C9  UNL     1      26.250   7.528  49.949  1.00  0.00     0.009 A 
HETATM   17  C10 UNL     1      26.987   8.717  49.915  1.00  0.00     0.019 A 
HETATM   18  C11 UNL     1      28.043   8.758  49.034  1.00  0.00     0.011 A 
HETATM   19 BR1  UNL     1      29.108  10.340  48.918  1.00  0.00    -0.051 Br
HETATM   20  C12 UNL     1      28.334   7.663  48.239  1.00  0.00     0.019 A 
HETATM   21  C13 UNL     1      27.602   6.498  48.280  1.00  0.00     0.009 A 
ENDBRANCH  14  15
ENDBRANCH   2  14
TORSDOF 4
ENDMDL
MODEL 7
REMARK VINA RESULT:      -7.2      3.174      4.181
REMARK  4 active torsions:
REMARK  status: ('A' for Active; 'I' for Inactive)
REMARK    1  A    between atoms: C5_5  and  S1_6 
REMARK    2  A    between atoms: S1_6  and  N1_8 
REMARK       I    between atoms: N1_8  and  C6_9 
REMARK    3  A    between atoms: C6_9  and  C7_11 
REMARK    4  A    between atoms: C7_11  and  C8_12 
ROOT
HETATM    1  N1  UNL     1      25.003   3.765  51.314  1.00  0.00    -0.272 N 
HETATM    2  C6  UNL     1      25.249   3.485  49.964  1.00  0.00     0.233 C 
HETATM    3  O2  UNL     1      24.314   3.127  49.178  1.00  0.00    -0.272 OA
HETATM    4  H6  UNL     1      25.713   4.065  52.032  1.00  0.00     0.179 HD
ENDROOT
BRANCH   1   5
HETATM    5  S1  UNL     1      23.462   3.676  52.094  1.00  0.00     0.153 S 
HETATM    6  O1  UNL     1      22.333   4.299  51.315  1.00  0.00    -0.230 OA
BRANCH   5   7
HETATM    7  C5  UNL     1      23.089   2.064  52.707  1.00  0.00     0.052 A 
HETATM    8  C4  UNL     1      24.005   1.071  52.990  1.00  0.00     0.023 A 
HETATM    9  C3  UNL     1      23.605  -0.160  53.468  1.00  0.00     0.008 A 
HETATM   10  C2  UNL     1      22.254  -0.445  53.684  1.00  0.00    -0.062 A 
HETATM   11  C1  UNL     1      21.777  -1.756  54.196  1.00  0.00     0.048 C 
HETATM   12  C15 UNL     1      21.347   0.567  53.394  1.00  0.00     0.008 A 
HETATM   13  C14 UNL     1      21.731   1.809  52.914  1.00  0.00     0.023 A 
ENDBRANCH   5   7
ENDBRANCH   1   5
BRANCH   2  14
HETATM   14  C7  UNL     1      26.678   3.651  49.592  1.00  0.00     0.142 C 
BRANCH  14  15
HETATM   15  C8  UNL     1      26.923   4.972  48.954  1.00  0.00    -0.049 A 
HETATM   16  C9  UNL     1      28.208   5.194  48.462  1.00  0.00     0.009 A 
HETATM   17  C10 UNL     1      28.615   6.375  47.834  1.00  0.00     0.019 A 
HETATM   18  C11 UNL     1      27.663   7.362  47.709  1.00  0.00     0.011 A 
HETATM   19 BR1  UNL     1      28.127   9.012  46.864  1.00  0.00    -0.051 Br
HETATM   20  C12 UNL     1      26.381   7.162  48.190  1.00  0.00     0.019 A 
HETATM   21  C13 UNL     1      25.991   5.996  48.807  1.00  0.00     0.009 A 
ENDBRANCH  14  15
ENDBRANCH   2  14
TORSDOF 4
ENDMDL
MODEL 8
REMARK VINA RESULT:      -7.0      4.668      6.291
REMARK  4 active torsions:
REMARK  status: ('A' for Active; 'I' for Inactive)
REMARK    1  A    between atoms: C5_5  and  S1_6 
REMARK    2  A    between atoms: S1_6  and  N1_8 
REMARK       I    between atoms: N1_8  and  C6_9 
REMARK    3  A    between atoms: C6_9  and  C7_11 
REMARK    4  A    between atoms: C7_11  and  C8_12 
ROOT
HETATM    1  N1  UNL     1      23.794   2.681  51.859  1.00  0.00    -0.272 N 
HETATM    2  C6  UNL     1      22.606   2.037  51.487  1.00  0.00     0.233 C 
HETATM    3  O2  UNL     1      22.560   1.257  50.482  1.00  0.00    -0.272 OA
HETATM    4  H6  UNL     1      23.923   3.339  52.671  1.00  0.00     0.179 HD
ENDROOT
BRANCH   1   5
HETATM    5  S1  UNL     1      25.316   2.526  51.052  1.00  0.00     0.153 S 
HETATM    6  O1  UNL     1      25.914   3.831  50.596  1.00  0.00    -0.230 OA
BRANCH   5   7
HETATM    7  C5  UNL     1      26.456   1.493  51.917  1.00  0.00     0.052 A 
HETATM    8  C4  UNL     1      26.413   0.116  51.986  1.00  0.00     0.023 A 
HETATM    9  C3  UNL     1      27.359  -0.598  52.693  1.00  0.00     0.008 A 
HETATM   10  C2  UNL     1      28.397   0.051  53.366  1.00  0.00    -0.062 A 
HETATM   11  C1  UNL     1      29.436  -0.675  54.141  1.00  0.00     0.048 C 
HETATM   12  C15 UNL     1      28.423   1.438  53.286  1.00  0.00     0.008 A 
HETATM   13  C14 UNL     1      27.483   2.171  52.580  1.00  0.00     0.023 A 
ENDBRANCH   5   7
ENDBRANCH   1   5
BRANCH   2  14
HETATM   14  C7  UNL     1      21.466   2.372  52.378  1.00  0.00     0.142 C 
BRANCH  14  15
HETATM   15  C8  UNL     1      20.690   1.158  52.747  1.00  0.00    -0.049 A 
HETATM   16  C9  UNL     1      19.475   0.976  52.089  1.00  0.00     0.009 A 
HETATM   17  C10 UNL     1      18.617  -0.106  52.311  1.00  0.00     0.019 A 
HETATM   18  C11 UNL     1      19.027  -1.032  53.244  1.00  0.00     0.011 A 
HETATM   19 BR1  UNL     1      17.920  -2.545  53.614  1.00  0.00    -0.051 Br
HETATM   20  C12 UNL     1      20.230  -0.870  53.908  1.00  0.00     0.019 A 
HETATM   21  C13 UNL     1      21.067   0.199  53.682  1.00  0.00     0.009 A 
ENDBRANCH  14  15
ENDBRANCH   2  14
TORSDOF 4
ENDMDL
MODEL 9
REMARK VINA RESULT:      -7.0      2.554      3.705
REMARK  4 active torsions:
REMARK  status: ('A' for Active; 'I' for Inactive)
REMARK    1  A    between atoms: C5_5  and  S1_6 
REMARK    2  A    between atoms: S1_6  and  N1_8 
REMARK       I    between atoms: N1_8  and  C6_9 
REMARK    3  A    between atoms: C6_9  and  C7_11 
REMARK    4  A    between atoms: C7_11  and  C8_12 
ROOT
HETATM    1  N1  UNL     1      25.688   2.618  50.640  1.00  0.00    -0.272 N 
HETATM    2  C6  UNL     1      25.030   3.856  50.614  1.00  0.00     0.233 C 
HETATM    3  O2  UNL     1      24.571   4.386  51.676  1.00  0.00    -0.272 OA
HETATM    4  H6  UNL     1      26.097   2.109  49.813  1.00  0.00     0.179 HD
ENDROOT
BRANCH   1   5
HETATM    5  S1  UNL     1      25.969   1.658  52.051  1.00  0.00     0.153 S 
HETATM    6  O1  UNL     1      26.721   2.367  53.146  1.00  0.00    -0.230 OA
BRANCH   5   7
HETATM    7  C5  UNL     1      24.522   0.821  52.617  1.00  0.00     0.052 A 
HETATM    8  C4  UNL     1      23.249   0.964  52.105  1.00  0.00     0.023 A 
HETATM    9  C3  UNL     1      22.183   0.258  52.623  1.00  0.00     0.008 A 
HETATM   10  C2  UNL     1      22.356  -0.628  53.689  1.00  0.00    -0.062 A 
HETATM   11  C1  UNL     1      21.238  -1.408  54.282  1.00  0.00     0.048 C 
HETATM   12  C15 UNL     1      23.644  -0.758  54.192  1.00  0.00     0.008 A 
HETATM   13  C14 UNL     1      24.727  -0.058  53.683  1.00  0.00     0.023 A 
ENDBRANCH   5   7
ENDBRANCH   1   5
BRANCH   2  14
HETATM   14  C7  UNL     1      24.945   4.435  49.249  1.00  0.00     0.142 C 
BRANCH  14  15
HETATM   15  C8  UNL     1      26.101   5.327  48.964  1.00  0.00    -0.049 A 
HETATM   16  C9  UNL     1      27.319   4.699  48.706  1.00  0.00     0.009 A 
HETATM   17  C10 UNL     1      28.507   5.379  48.420  1.00  0.00     0.019 A 
HETATM   18  C11 UNL     1      28.437   6.753  48.400  1.00  0.00     0.011 A 
HETATM   19 BR1  UNL     1      30.010   7.769  48.018  1.00  0.00    -0.051 Br
HETATM   20  C12 UNL     1      27.237   7.397  48.653  1.00  0.00     0.019 A 
HETATM   21  C13 UNL     1      26.074   6.718  48.933  1.00  0.00     0.009 A 
ENDBRANCH  14  15
ENDBRANCH   2  14
TORSDOF 4
ENDMDL
