MODEL 1
REMARK VINA RESULT:      -7.8      0.000      0.000
REMARK  7 active torsions:
REMARK  status: ('A' for Active; 'I' for Inactive)
REMARK       I    between atoms: C1_2  and  N1_3 
REMARK    1  A    between atoms: C1_2  and  C11_13 
REMARK    2  A    between atoms: N1_3  and  C2_4 
REMARK    3  A    between atoms: C14_16  and  N2_17 
REMARK    4  A    between atoms: N2_17  and  C15_18 
REMARK    5  A    between atoms: N2_17  and  C17_21 
REMARK    6  A    between atoms: C15_18  and  C16_19 
REMARK    7  A    between atoms: C17_21  and  C18_22 
ROOT
HETATM    1  C11 UNL     1      22.423  -0.265  53.221  1.00  0.00     0.032 A 
HETATM    2  C12 UNL     1      22.179   0.009  51.891  1.00  0.00     0.019 A 
HETATM    3  C13 UNL     1      20.898   0.299  51.522  1.00  0.00     0.030 A 
HETATM    4  C14 UNL     1      19.787   0.357  52.314  1.00  0.00     0.030 A 
HETATM    5  C19 UNL     1      20.116   0.074  53.609  1.00  0.00     0.030 A 
HETATM    6  C20 UNL     1      21.363  -0.231  54.098  1.00  0.00     0.019 A 
ENDROOT
BRANCH   1   7
HETATM    7  C1  UNL     1      23.777  -0.592  53.641  1.00  0.00     0.251 C 
HETATM    8  O1  UNL     1      24.008  -0.937  54.835  1.00  0.00    -0.268 OA
HETATM    9  N1  UNL     1      24.925  -0.562  52.823  1.00  0.00    -0.353 N 
HETATM   10  H1  UNL     1      24.833  -0.295  51.833  1.00  0.00     0.163 HD
BRANCH   9  11
HETATM   11  C2  UNL     1      26.228  -0.878  53.266  1.00  0.00     0.080 A 
HETATM   12  C3  UNL     1      26.784  -2.085  52.517  1.00  0.00     0.001 A 
HETATM   13  C4  UNL     1      27.104  -0.809  52.601  1.00  0.00     0.047 A 
HETATM   14  C5  UNL     1      27.604   0.722  52.763  1.00  0.00    -0.015 A 
HETATM   15  C8  UNL     1      28.560  -0.642  53.515  1.00  0.00     0.005 A 
HETATM   16  C6  UNL     1      28.804   0.901  53.325  1.00  0.00     0.034 A 
HETATM   17  C10 UNL     1      26.543   1.073  52.150  1.00  0.00     0.013 A 
HETATM   18  C9  UNL     1      27.381   0.158  52.758  1.00  0.00    -0.009 A 
HETATM   19  C7  UNL     1      29.765   0.216  53.952  1.00  0.00    -0.017 A 
ENDBRANCH   9  11
ENDBRANCH   1   7
BRANCH   4  20
HETATM   20  N2  UNL     1      18.438   0.622  51.908  1.00  0.00    -0.379 N 
BRANCH  20  21
HETATM   21  C15 UNL     1      17.691   1.796  51.678  1.00  0.00     0.138 C 
BRANCH  21  22
HETATM   22  C16 UNL     1      18.173   2.822  50.714  1.00  0.00     0.134 C 
HETATM   23 CL1  UNL     1      19.421   3.795  51.630  1.00  0.00    -0.129 Cl
ENDBRANCH  21  22
ENDBRANCH  20  21
BRANCH  20  24
HETATM   24  C17 UNL     1      17.664  -0.577  51.692  1.00  0.00     0.138 C 
BRANCH  24  25
HETATM   25  C18 UNL     1      16.976  -1.186  52.847  1.00  0.00     0.134 C 
HETATM   26 CL2  UNL     1      17.695  -2.578  53.610  1.00  0.00    -0.129 Cl
ENDBRANCH  24  25
ENDBRANCH  20  24
ENDBRANCH   4  20
TORSDOF 7
ENDMDL
MODEL 2
REMARK VINA RESULT:      -7.8      0.697      2.375
REMARK  7 active torsions:
REMARK  status: ('A' for Active; 'I' for Inactive)
REMARK       I    between atoms: C1_2  and  N1_3 
REMARK    1  A    between atoms: C1_2  and  C11_13 
REMARK    2  A    between atoms: N1_3  and  C2_4 
REMARK    3  A    between atoms: C14_16  and  N2_17 
REMARK    4  A    between atoms: N2_17  and  C15_18 
REMARK    5  A    between atoms: N2_17  and  C17_21 
REMARK    6  A    between atoms: C15_18  and  C16_19 
REMARK    7  A    between atoms: C17_21  and  C18_22 
ROOT
HETATM    1  C11 UNL     1      22.228  -0.468  53.242  1.00  0.00     0.032 A 
HETATM    2  C12 UNL     1      21.964   0.042  51.987  1.00  0.00     0.019 A 
HETATM    3  C13 UNL     1      20.660   0.182  51.613  1.00  0.00     0.030 A 
HETATM    4  C14 UNL     1      19.541  -0.123  52.335  1.00  0.00     0.030 A 
HETATM    5  C19 UNL     1      19.890  -0.620  53.558  1.00  0.00     0.030 A 
HETATM    6  C20 UNL     1      21.161  -0.806  54.043  1.00  0.00     0.019 A 
ENDROOT
BRANCH   1   7
HETATM    7  C1  UNL     1      23.610  -0.642  53.661  1.00  0.00     0.251 C 
HETATM    8  O1  UNL     1      23.878  -0.958  54.856  1.00  0.00    -0.268 OA
HETATM    9  N1  UNL     1      24.747  -0.486  52.843  1.00  0.00    -0.353 N 
HETATM   10  H1  UNL     1      24.626  -0.232  51.852  1.00  0.00     0.163 HD
BRANCH   9  11
HETATM   11  C2  UNL     1      26.077  -0.655  53.286  1.00  0.00     0.080 A 
HETATM   12  C3  UNL     1      26.737  -1.844  52.596  1.00  0.00     0.001 A 
HETATM   13  C4  UNL     1      26.938  -0.541  52.607  1.00  0.00     0.047 A 
HETATM   14  C5  UNL     1      27.294   1.036  52.678  1.00  0.00    -0.015 A 
HETATM   15  C8  UNL     1      28.379  -0.190  53.491  1.00  0.00     0.005 A 
HETATM   16  C6  UNL     1      28.476   1.356  53.215  1.00  0.00     0.034 A 
HETATM   17  C10 UNL     1      26.200   1.253  52.061  1.00  0.00     0.013 A 
HETATM   18  C9  UNL     1      27.125   0.454  52.707  1.00  0.00    -0.009 A 
HETATM   19  C7  UNL     1      29.501   0.798  53.866  1.00  0.00    -0.017 A 
ENDBRANCH   9  11
ENDBRANCH   1   7
BRANCH   4  20
HETATM   20  N2  UNL     1      18.175  -0.011  51.915  1.00  0.00    -0.379 N 
BRANCH  20  21
HETATM   21  C15 UNL     1      16.933  -0.304  52.518  1.00  0.00     0.138 C 
BRANCH  21  22
HETATM   22  C16 UNL     1      16.272  -1.617  52.289  1.00  0.00     0.134 C 
HETATM   23 CL1  UNL     1      17.198  -2.809  53.320  1.00  0.00    -0.129 Cl
ENDBRANCH  21  22
ENDBRANCH  20  21
BRANCH  20  24
HETATM   24  C17 UNL     1      18.031   0.509  50.577  1.00  0.00     0.138 C 
BRANCH  24  25
HETATM   25  C18 UNL     1      17.613   1.915  50.412  1.00  0.00     0.134 C 
HETATM   26 CL2  UNL     1      18.064   3.071  51.636  1.00  0.00    -0.129 Cl
ENDBRANCH  24  25
ENDBRANCH  20  24
ENDBRANCH   4  20
TORSDOF 7
ENDMDL
MODEL 3
REMARK VINA RESULT:      -7.4      5.997      8.006
REMARK  7 active torsions:
REMARK  status: ('A' for Active; 'I' for Inactive)
REMARK       I    between atoms: C1_2  and  N1_3 
REMARK    1  A    between atoms: C1_2  and  C11_13 
REMARK    2  A    between atoms: N1_3  and  C2_4 
REMARK    3  A    between atoms: C14_16  and  N2_17 
REMARK    4  A    between atoms: N2_17  and  C15_18 
REMARK    5  A    between atoms: N2_17  and  C17_21 
REMARK    6  A    between atoms: C15_18  and  C16_19 
REMARK    7  A    between atoms: C17_21  and  C18_22 
ROOT
HETATM    1  C11 UNL     1      25.496   3.692  50.336  1.00  0.00     0.032 A 
HETATM    2  C12 UNL     1      26.609   2.966  50.709  1.00  0.00     0.019 A 
HETATM    3  C13 UNL     1      26.424   1.878  51.510  1.00  0.00     0.030 A 
HETATM    4  C14 UNL     1      25.249   1.391  52.010  1.00  0.00     0.030 A 
HETATM    5  C19 UNL     1      24.203   2.165  51.594  1.00  0.00     0.030 A 
HETATM    6  C20 UNL     1      24.265   3.278  50.792  1.00  0.00     0.019 A 
ENDROOT
BRANCH   1   7
HETATM    7  C1  UNL     1      25.665   4.866  49.493  1.00  0.00     0.251 C 
HETATM    8  O1  UNL     1      24.725   5.251  48.741  1.00  0.00    -0.268 OA
HETATM    9  N1  UNL     1      26.823   5.666  49.414  1.00  0.00    -0.353 N 
HETATM   10  H1  UNL     1      27.641   5.430  49.995  1.00  0.00     0.163 HD
BRANCH   9  11
HETATM   11  C2  UNL     1      26.956   6.796  48.578  1.00  0.00     0.080 A 
HETATM   12  C3  UNL     1      27.009   8.081  49.398  1.00  0.00     0.001 A 
HETATM   13  C4  UNL     1      27.848   7.442  48.607  1.00  0.00     0.047 A 
HETATM   14  C5  UNL     1      28.870   6.756  47.555  1.00  0.00    -0.015 A 
HETATM   15  C8  UNL     1      28.023   8.319  47.129  1.00  0.00     0.005 A 
HETATM   16  C6  UNL     1      29.164   7.466  46.461  1.00  0.00     0.034 A 
HETATM   17  C10 UNL     1      28.984   5.792  48.382  1.00  0.00     0.013 A 
HETATM   18  C9  UNL     1      28.439   6.977  47.921  1.00  0.00    -0.009 A 
HETATM   19  C7  UNL     1      28.799   8.582  45.823  1.00  0.00    -0.017 A 
ENDBRANCH   9  11
ENDBRANCH   1   7
BRANCH   4  20
HETATM   20  N2  UNL     1      25.071   0.271  52.886  1.00  0.00    -0.379 N 
BRANCH  20  21
HETATM   21  C15 UNL     1      25.949  -0.644  53.506  1.00  0.00     0.138 C 
BRANCH  21  22
HETATM   22  C16 UNL     1      26.778  -1.569  52.687  1.00  0.00     0.134 C 
HETATM   23 CL1  UNL     1      28.506  -1.232  53.180  1.00  0.00    -0.129 Cl
ENDBRANCH  21  22
ENDBRANCH  20  21
BRANCH  20  24
HETATM   24  C17 UNL     1      23.687   0.011  53.204  1.00  0.00     0.138 C 
BRANCH  24  25
HETATM   25  C18 UNL     1      23.383  -0.805  54.395  1.00  0.00     0.134 C 
HETATM   26 CL2  UNL     1      21.734  -1.295  54.675  1.00  0.00    -0.129 Cl
ENDBRANCH  24  25
ENDBRANCH  20  24
ENDBRANCH   4  20
TORSDOF 7
ENDMDL
MODEL 4
REMARK VINA RESULT:      -7.3      6.016      8.318
REMARK  7 active torsions:
REMARK  status: ('A' for Active; 'I' for Inactive)
REMARK       I    between atoms: C1_2  and  N1_3 
REMARK    1  A    between atoms: C1_2  and  C11_13 
REMARK    2  A    between atoms: N1_3  and  C2_4 
REMARK    3  A    between atoms: C14_16  and  N2_17 
REMARK    4  A    between atoms: N2_17  and  C15_18 
REMARK    5  A    between atoms: N2_17  and  C17_21 
REMARK    6  A    between atoms: C15_18  and  C16_19 
REMARK    7  A    between atoms: C17_21  and  C18_22 
ROOT
HETATM    1  C11 UNL     1      25.597   3.720  50.543  1.00  0.00     0.032 A 
HETATM    2  C12 UNL     1      26.599   2.776  50.448  1.00  0.00     0.019 A 
HETATM    3  C13 UNL     1      26.528   1.684  51.262  1.00  0.00     0.030 A 
HETATM    4  C14 UNL     1      25.571   1.387  52.189  1.00  0.00     0.030 A 
HETATM    5  C19 UNL     1      24.622   2.369  52.219  1.00  0.00     0.030 A 
HETATM    6  C20 UNL     1      24.586   3.507  51.452  1.00  0.00     0.019 A 
ENDROOT
BRANCH   1   7
HETATM    7  C1  UNL     1      25.654   4.902  49.696  1.00  0.00     0.251 C 
HETATM    8  O1  UNL     1      24.665   5.216  48.973  1.00  0.00    -0.268 OA
HETATM    9  N1  UNL     1      26.747   5.785  49.582  1.00  0.00    -0.353 N 
HETATM   10  H1  UNL     1      27.597   5.611  50.138  1.00  0.00     0.163 HD
BRANCH   9  11
HETATM   11  C2  UNL     1      26.771   6.920  48.744  1.00  0.00     0.080 A 
HETATM   12  C3  UNL     1      26.886   8.203  49.561  1.00  0.00     0.001 A 
HETATM   13  C4  UNL     1      27.650   7.584  48.683  1.00  0.00     0.047 A 
HETATM   14  C5  UNL     1      28.568   6.921  47.528  1.00  0.00    -0.015 A 
HETATM   15  C8  UNL     1      27.654   8.469  47.201  1.00  0.00     0.005 A 
HETATM   16  C6  UNL     1      28.734   7.640  46.413  1.00  0.00     0.034 A 
HETATM   17  C10 UNL     1      28.786   5.956  48.333  1.00  0.00     0.013 A 
HETATM   18  C9  UNL     1      28.174   7.132  47.938  1.00  0.00    -0.009 A 
HETATM   19  C7  UNL     1      28.284   8.751  45.822  1.00  0.00    -0.017 A 
ENDBRANCH   9  11
ENDBRANCH   1   7
BRANCH   4  20
HETATM   20  N2  UNL     1      25.530   0.256  53.070  1.00  0.00    -0.379 N 
BRANCH  20  21
HETATM   21  C15 UNL     1      24.549  -0.291  53.924  1.00  0.00     0.138 C 
BRANCH  21  22
HETATM   22  C16 UNL     1      23.203  -0.647  53.400  1.00  0.00     0.134 C 
HETATM   23 CL1  UNL     1      22.168  -0.927  54.880  1.00  0.00    -0.129 Cl
ENDBRANCH  21  22
ENDBRANCH  20  21
BRANCH  20  24
HETATM   24  C17 UNL     1      26.767  -0.488  53.100  1.00  0.00     0.138 C 
BRANCH  24  25
HETATM   25  C18 UNL     1      27.772  -0.135  54.121  1.00  0.00     0.134 C 
HETATM   26 CL2  UNL     1      29.278   0.573  53.603  1.00  0.00    -0.129 Cl
ENDBRANCH  24  25
ENDBRANCH  20  24
ENDBRANCH   4  20
TORSDOF 7
ENDMDL
MODEL 5
REMARK VINA RESULT:      -7.2      6.121      9.592
REMARK  7 active torsions:
REMARK  status: ('A' for Active; 'I' for Inactive)
REMARK       I    between atoms: C1_2  and  N1_3 
REMARK    1  A    between atoms: C1_2  and  C11_13 
REMARK    2  A    between atoms: N1_3  and  C2_4 
REMARK    3  A    between atoms: C14_16  and  N2_17 
REMARK    4  A    between atoms: N2_17  and  C15_18 
REMARK    5  A    between atoms: N2_17  and  C17_21 
REMARK    6  A    between atoms: C15_18  and  C16_19 
REMARK    7  A    between atoms: C17_21  and  C18_22 
ROOT
HETATM    1  C11 UNL     1      25.312   4.704  49.751  1.00  0.00     0.032 A 
HETATM    2  C12 UNL     1      26.384   3.902  49.419  1.00  0.00     0.019 A 
HETATM    3  C13 UNL     1      27.469   4.490  48.839  1.00  0.00     0.030 A 
HETATM    4  C14 UNL     1      27.646   5.809  48.531  1.00  0.00     0.030 A 
HETATM    5  C19 UNL     1      26.543   6.530  48.891  1.00  0.00     0.030 A 
HETATM    6  C20 UNL     1      25.397   6.051  49.478  1.00  0.00     0.019 A 
ENDROOT
BRANCH   1   7
HETATM    7  C1  UNL     1      24.135   4.101  50.358  1.00  0.00     0.251 C 
HETATM    8  O1  UNL     1      23.150   4.821  50.692  1.00  0.00    -0.268 OA
HETATM    9  N1  UNL     1      23.960   2.730  50.636  1.00  0.00    -0.353 N 
HETATM   10  H1  UNL     1      24.710   2.066  50.395  1.00  0.00     0.163 HD
BRANCH   9  11
HETATM   11  C2  UNL     1      22.806   2.179  51.234  1.00  0.00     0.080 A 
HETATM   12  C3  UNL     1      22.024   1.329  50.237  1.00  0.00     0.001 A 
HETATM   13  C4  UNL     1      22.675   1.091  51.358  1.00  0.00     0.047 A 
HETATM   14  C5  UNL     1      23.363   0.770  52.787  1.00  0.00    -0.015 A 
HETATM   15  C8  UNL     1      21.544   0.746  52.616  1.00  0.00     0.005 A 
HETATM   16  C6  UNL     1      22.548   0.345  53.759  1.00  0.00     0.034 A 
HETATM   17  C10 UNL     1      24.486   1.030  52.242  1.00  0.00     0.013 A 
HETATM   18  C9  UNL     1      23.106   0.954  52.270  1.00  0.00    -0.009 A 
HETATM   19  C7  UNL     1      21.248   0.184  54.021  1.00  0.00    -0.017 A 
ENDBRANCH   9  11
ENDBRANCH   1   7
BRANCH   4  20
HETATM   20  N2  UNL     1      28.774   6.411  47.882  1.00  0.00    -0.379 N 
BRANCH  20  21
HETATM   21  C15 UNL     1      30.141   6.078  47.776  1.00  0.00     0.138 C 
BRANCH  21  22
HETATM   22  C16 UNL     1      30.990   5.972  48.993  1.00  0.00     0.134 C 
HETATM   23 CL1  UNL     1      32.084   7.436  48.947  1.00  0.00    -0.129 Cl
ENDBRANCH  21  22
ENDBRANCH  20  21
BRANCH  20  24
HETATM   24  C17 UNL     1      28.446   7.633  47.187  1.00  0.00     0.138 C 
BRANCH  24  25
HETATM   25  C18 UNL     1      29.015   8.899  47.689  1.00  0.00     0.134 C 
HETATM   26 CL2  UNL     1      28.981   9.210  49.403  1.00  0.00    -0.129 Cl
ENDBRANCH  24  25
ENDBRANCH  20  24
ENDBRANCH   4  20
TORSDOF 7
ENDMDL
MODEL 6
REMARK VINA RESULT:      -7.2      2.109      2.599
REMARK  7 active torsions:
REMARK  status: ('A' for Active; 'I' for Inactive)
REMARK       I    between atoms: C1_2  and  N1_3 
REMARK    1  A    between atoms: C1_2  and  C11_13 
REMARK    2  A    between atoms: N1_3  and  C2_4 
REMARK    3  A    between atoms: C14_16  and  N2_17 
REMARK    4  A    between atoms: N2_17  and  C15_18 
REMARK    5  A    between atoms: N2_17  and  C17_21 
REMARK    6  A    between atoms: C15_18  and  C16_19 
REMARK    7  A    between atoms: C17_21  and  C18_22 
ROOT
HETATM    1  C11 UNL     1      22.512   0.710  52.678  1.00  0.00     0.032 A 
HETATM    2  C12 UNL     1      22.486   2.088  52.609  1.00  0.00     0.019 A 
HETATM    3  C13 UNL     1      21.350   2.685  52.147  1.00  0.00     0.030 A 
HETATM    4  C14 UNL     1      20.195   2.085  51.729  1.00  0.00     0.030 A 
HETATM    5  C19 UNL     1      20.306   0.728  51.829  1.00  0.00     0.030 A 
HETATM    6  C20 UNL     1      21.392   0.017  52.277  1.00  0.00     0.019 A 
ENDROOT
BRANCH   1   7
HETATM    7  C1  UNL     1      23.716   0.047  53.154  1.00  0.00     0.251 C 
HETATM    8  O1  UNL     1      23.670  -0.704  54.171  1.00  0.00    -0.268 OA
HETATM    9  N1  UNL     1      24.999   0.153  52.581  1.00  0.00    -0.353 N 
HETATM   10  H1  UNL     1      25.132   0.741  51.745  1.00  0.00     0.163 HD
BRANCH   9  11
HETATM   11  C2  UNL     1      26.150  -0.500  53.074  1.00  0.00     0.080 A 
HETATM   12  C3  UNL     1      26.502  -1.712  52.217  1.00  0.00     0.001 A 
HETATM   13  C4  UNL     1      27.083  -0.560  52.491  1.00  0.00     0.047 A 
HETATM   14  C5  UNL     1      27.886   0.788  52.887  1.00  0.00    -0.015 A 
HETATM   15  C8  UNL     1      28.440  -0.833  53.523  1.00  0.00     0.005 A 
HETATM   16  C6  UNL     1      29.032   0.624  53.555  1.00  0.00     0.034 A 
HETATM   17  C10 UNL     1      26.995   1.439  52.248  1.00  0.00     0.013 A 
HETATM   18  C9  UNL     1      27.547   0.294  52.792  1.00  0.00    -0.009 A 
HETATM   19  C7  UNL     1      29.752  -0.328  54.157  1.00  0.00    -0.017 A 
ENDBRANCH   9  11
ENDBRANCH   1   7
BRANCH   4  20
HETATM   20  N2  UNL     1      19.022   2.721  51.205  1.00  0.00    -0.379 N 
BRANCH  20  21
HETATM   21  C15 UNL     1      17.677   2.803  51.622  1.00  0.00     0.138 C 
BRANCH  21  22
HETATM   22  C16 UNL     1      16.853   3.995  51.286  1.00  0.00     0.134 C 
HETATM   23 CL1  UNL     1      15.708   4.203  52.696  1.00  0.00    -0.129 Cl
ENDBRANCH  21  22
ENDBRANCH  20  21
BRANCH  20  24
HETATM   24  C17 UNL     1      19.263   3.431  49.971  1.00  0.00     0.138 C 
BRANCH  24  25
HETATM   25  C18 UNL     1      19.348   2.652  48.720  1.00  0.00     0.134 C 
HETATM   26 CL2  UNL     1      20.871   1.921  48.291  1.00  0.00    -0.129 Cl
ENDBRANCH  24  25
ENDBRANCH  20  24
ENDBRANCH   4  20
TORSDOF 7
ENDMDL
MODEL 7
REMARK VINA RESULT:      -7.2      6.646      9.395
REMARK  7 active torsions:
REMARK  status: ('A' for Active; 'I' for Inactive)
REMARK       I    between atoms: C1_2  and  N1_3 
REMARK    1  A    between atoms: C1_2  and  C11_13 
REMARK    2  A    between atoms: N1_3  and  C2_4 
REMARK    3  A    between atoms: C14_16  and  N2_17 
REMARK    4  A    between atoms: N2_17  and  C15_18 
REMARK    5  A    between atoms: N2_17  and  C17_21 
REMARK    6  A    between atoms: C15_18  and  C16_19 
REMARK    7  A    between atoms: C17_21  and  C18_22 
ROOT
HETATM    1  C11 UNL     1      26.511   4.641  49.527  1.00  0.00     0.032 A 
HETATM    2  C12 UNL     1      25.555   5.634  49.590  1.00  0.00     0.019 A 
HETATM    3  C13 UNL     1      25.795   6.796  48.918  1.00  0.00     0.030 A 
HETATM    4  C14 UNL     1      26.887   7.123  48.166  1.00  0.00     0.030 A 
HETATM    5  C19 UNL     1      27.780   6.089  48.156  1.00  0.00     0.030 A 
HETATM    6  C20 UNL     1      27.649   4.878  48.791  1.00  0.00     0.019 A 
ENDROOT
BRANCH   1   7
HETATM    7  C1  UNL     1      26.288   3.395  50.245  1.00  0.00     0.251 C 
HETATM    8  O1  UNL     1      26.655   2.295  49.742  1.00  0.00    -0.268 OA
HETATM    9  N1  UNL     1      25.673   3.269  51.507  1.00  0.00    -0.353 N 
HETATM   10  H1  UNL     1      25.344   4.114  51.996  1.00  0.00     0.163 HD
BRANCH   9  11
HETATM   11  C2  UNL     1      25.465   2.042  52.173  1.00  0.00     0.080 A 
HETATM   12  C3  UNL     1      26.089   2.061  53.565  1.00  0.00     0.001 A 
HETATM   13  C4  UNL     1      24.862   1.971  53.093  1.00  0.00     0.047 A 
HETATM   14  C5  UNL     1      23.351   1.742  52.560  1.00  0.00    -0.015 A 
HETATM   15  C8  UNL     1      24.275   0.363  53.324  1.00  0.00     0.005 A 
HETATM   16  C6  UNL     1      22.788   0.564  52.850  1.00  0.00     0.034 A 
HETATM   17  C10 UNL     1      23.381   2.942  52.131  1.00  0.00     0.013 A 
HETATM   18  C9  UNL     1      23.937   1.811  52.699  1.00  0.00    -0.009 A 
HETATM   19  C7  UNL     1      23.095  -0.628  53.370  1.00  0.00    -0.017 A 
ENDBRANCH   9  11
ENDBRANCH   1   7
BRANCH   4  20
HETATM   20  N2  UNL     1      27.148   8.365  47.499  1.00  0.00    -0.379 N 
BRANCH  20  21
HETATM   21  C15 UNL     1      27.365   8.734  46.154  1.00  0.00     0.138 C 
BRANCH  21  22
HETATM   22  C16 UNL     1      28.653   9.351  45.738  1.00  0.00     0.134 C 
HETATM   23 CL1  UNL     1      29.894   8.015  45.875  1.00  0.00    -0.129 Cl
ENDBRANCH  21  22
ENDBRANCH  20  21
BRANCH  20  24
HETATM   24  C17 UNL     1      27.211   9.492  48.398  1.00  0.00     0.138 C 
BRANCH  24  25
HETATM   25  C18 UNL     1      28.111   9.409  49.565  1.00  0.00     0.134 C 
HETATM   26 CL2  UNL     1      29.781   8.983  49.304  1.00  0.00    -0.129 Cl
ENDBRANCH  24  25
ENDBRANCH  20  24
ENDBRANCH   4  20
TORSDOF 7
ENDMDL
MODEL 8
REMARK VINA RESULT:      -7.1      5.561      8.542
REMARK  7 active torsions:
REMARK  status: ('A' for Active; 'I' for Inactive)
REMARK       I    between atoms: C1_2  and  N1_3 
REMARK    1  A    between atoms: C1_2  and  C11_13 
REMARK    2  A    between atoms: N1_3  and  C2_4 
REMARK    3  A    between atoms: C14_16  and  N2_17 
REMARK    4  A    between atoms: N2_17  and  C15_18 
REMARK    5  A    between atoms: N2_17  and  C17_21 
REMARK    6  A    between atoms: C15_18  and  C16_19 
REMARK    7  A    between atoms: C17_21  and  C18_22 
ROOT
HETATM    1  C11 UNL     1      23.929   4.692  51.055  1.00  0.00     0.032 A 
HETATM    2  C12 UNL     1      24.857   4.237  50.141  1.00  0.00     0.019 A 
HETATM    3  C13 UNL     1      25.705   5.147  49.583  1.00  0.00     0.030 A 
HETATM    4  C14 UNL     1      25.765   6.492  49.812  1.00  0.00     0.030 A 
HETATM    5  C19 UNL     1      24.817   6.858  50.725  1.00  0.00     0.030 A 
HETATM    6  C20 UNL     1      23.912   6.036  51.351  1.00  0.00     0.019 A 
ENDROOT
BRANCH   1   7
HETATM    7  C1  UNL     1      23.002   3.745  51.656  1.00  0.00     0.251 C 
HETATM    8  O1  UNL     1      22.017   4.160  52.332  1.00  0.00    -0.268 OA
HETATM    9  N1  UNL     1      23.084   2.341  51.569  1.00  0.00    -0.353 N 
HETATM   10  H1  UNL     1      23.853   1.911  51.035  1.00  0.00     0.163 HD
BRANCH   9  11
HETATM   11  C2  UNL     1      22.170   1.450  52.173  1.00  0.00     0.080 A 
HETATM   12  C3  UNL     1      21.441   0.617  51.122  1.00  0.00     0.001 A 
HETATM   13  C4  UNL     1      22.286   0.356  52.101  1.00  0.00     0.047 A 
HETATM   14  C5  UNL     1      23.228  -0.026  53.360  1.00  0.00    -0.015 A 
HETATM   15  C8  UNL     1      21.448  -0.439  53.384  1.00  0.00     0.005 A 
HETATM   16  C6  UNL     1      22.670  -0.779  54.314  1.00  0.00     0.034 A 
HETATM   17  C10 UNL     1      24.180   0.569  52.756  1.00  0.00     0.013 A 
HETATM   18  C9  UNL     1      22.864   0.175  52.918  1.00  0.00    -0.009 A 
HETATM   19  C7  UNL     1      21.484  -1.273  54.680  1.00  0.00    -0.017 A 
ENDBRANCH   9  11
ENDBRANCH   1   7
BRANCH   4  20
HETATM   20  N2  UNL     1      26.633   7.447  49.187  1.00  0.00    -0.379 N 
BRANCH  20  21
HETATM   21  C15 UNL     1      27.462   7.424  48.046  1.00  0.00     0.138 C 
BRANCH  21  22
HETATM   22  C16 UNL     1      28.918   7.147  48.174  1.00  0.00     0.134 C 
HETATM   23 CL1  UNL     1      29.062   5.325  48.204  1.00  0.00    -0.129 Cl
ENDBRANCH  21  22
ENDBRANCH  20  21
BRANCH  20  24
HETATM   24  C17 UNL     1      26.680   8.713  49.879  1.00  0.00     0.138 C 
BRANCH  24  25
HETATM   25  C18 UNL     1      26.243   9.923  49.157  1.00  0.00     0.134 C 
HETATM   26 CL2  UNL     1      24.738   9.877  48.279  1.00  0.00    -0.129 Cl
ENDBRANCH  24  25
ENDBRANCH  20  24
ENDBRANCH   4  20
TORSDOF 7
ENDMDL
MODEL 9
REMARK VINA RESULT:      -7.1      7.209      8.889
REMARK  7 active torsions:
REMARK  status: ('A' for Active; 'I' for Inactive)
REMARK       I    between atoms: C1_2  and  N1_3 
REMARK    1  A    between atoms: C1_2  and  C11_13 
REMARK    2  A    between atoms: N1_3  and  C2_4 
REMARK    3  A    between atoms: C14_16  and  N2_17 
REMARK    4  A    between atoms: N2_17  and  C15_18 
REMARK    5  A    between atoms: N2_17  and  C17_21 
REMARK    6  A    between atoms: C15_18  and  C16_19 
REMARK    7  A    between atoms: C17_21  and  C18_22 
ROOT
HETATM    1  C11 UNL     1      27.348   5.881  48.563  1.00  0.00     0.032 A 
HETATM    2  C12 UNL     1      27.474   4.564  48.956  1.00  0.00     0.019 A 
HETATM    3  C13 UNL     1      26.346   3.896  49.328  1.00  0.00     0.030 A 
HETATM    4  C14 UNL     1      25.064   4.366  49.365  1.00  0.00     0.030 A 
HETATM    5  C19 UNL     1      25.028   5.670  48.963  1.00  0.00     0.030 A 
HETATM    6  C20 UNL     1      26.092   6.444  48.569  1.00  0.00     0.019 A 
ENDROOT
BRANCH   1   7
HETATM    7  C1  UNL     1      28.537   6.623  48.175  1.00  0.00     0.251 C 
HETATM    8  O1  UNL     1      28.627   7.122  47.016  1.00  0.00    -0.268 OA
HETATM    9  N1  UNL     1      29.665   6.859  48.987  1.00  0.00    -0.353 N 
HETATM   10  H1  UNL     1      29.680   6.493  49.950  1.00  0.00     0.163 HD
BRANCH   9  11
HETATM   11  C2  UNL     1      30.808   7.578  48.575  1.00  0.00     0.080 A 
HETATM   12  C3  UNL     1      30.945   8.883  49.353  1.00  0.00     0.001 A 
HETATM   13  C4  UNL     1      31.652   7.774  49.256  1.00  0.00     0.047 A 
HETATM   14  C5  UNL     1      32.611   6.483  49.082  1.00  0.00    -0.015 A 
HETATM   15  C8  UNL     1      33.099   8.093  48.369  1.00  0.00     0.005 A 
HETATM   16  C6  UNL     1      33.814   6.702  48.541  1.00  0.00     0.034 A 
HETATM   17  C10 UNL     1      31.706   5.802  49.668  1.00  0.00     0.013 A 
HETATM   18  C9  UNL     1      32.222   6.947  49.091  1.00  0.00    -0.009 A 
HETATM   19  C7  UNL     1      34.519   7.667  47.943  1.00  0.00    -0.017 A 
ENDBRANCH   9  11
ENDBRANCH   1   7
BRANCH   4  20
HETATM   20  N2  UNL     1      23.889   3.666  49.799  1.00  0.00    -0.379 N 
BRANCH  20  21
HETATM   21  C15 UNL     1      22.664   3.328  49.188  1.00  0.00     0.138 C 
BRANCH  21  22
HETATM   22  C16 UNL     1      22.621   2.344  48.073  1.00  0.00     0.134 C 
HETATM   23 CL1  UNL     1      21.542   0.991  48.664  1.00  0.00    -0.129 Cl
ENDBRANCH  21  22
ENDBRANCH  20  21
BRANCH  20  24
HETATM   24  C17 UNL     1      23.971   3.211  51.166  1.00  0.00     0.138 C 
BRANCH  24  25
HETATM   25  C18 UNL     1      24.050   1.758  51.418  1.00  0.00     0.134 C 
HETATM   26 CL2  UNL     1      25.578   1.075  51.903  1.00  0.00    -0.129 Cl
ENDBRANCH  24  25
ENDBRANCH  20  24
ENDBRANCH   4  20
TORSDOF 7
ENDMDL
