MODEL 1
REMARK VINA RESULT:      -7.2      0.000      0.000
REMARK  1 active torsions:
REMARK  status: ('A' for Active; 'I' for Inactive)
REMARK    1  A    between atoms: O1_2  and  C2_3 
ROOT
HETATM    1  C2  UNL     1      24.251   3.206  50.155  1.00  0.00     0.069 C 
HETATM    2  C3  UNL     1      22.977   3.195  49.701  1.00  0.00     0.147 C 
HETATM    3  C4  UNL     1      21.771   2.360  49.979  1.00  0.00     0.099 C 
HETATM    4  N1  UNL     1      20.989   1.423  50.516  1.00  0.00    -0.258 NA
HETATM    5  C5  UNL     1      21.544   0.564  51.508  1.00  0.00     0.226 C 
HETATM    6  N2  UNL     1      21.559   0.218  52.792  1.00  0.00    -0.277 NA
HETATM    7  C6  UNL     1      22.513  -0.892  53.116  1.00  0.00     0.203 C 
HETATM    8  C7  UNL     1      23.882  -0.279  53.162  1.00  0.00     0.011 C 
HETATM    9  C8  UNL     1      23.156   0.862  53.082  1.00  0.00     0.070 C 
HETATM   10  C9  UNL     1      23.277   2.312  53.025  1.00  0.00     0.011 C 
HETATM   11  C10 UNL     1      24.087   3.396  52.984  1.00  0.00     0.157 C 
HETATM   12  O2  UNL     1      25.140   2.527  53.011  1.00  0.00    -0.273 OA
HETATM   13  N3  UNL     1      25.606   1.931  51.783  1.00  0.00    -0.181 NA
HETATM   14  C11 UNL     1      26.931   1.448  52.081  1.00  0.00     0.084 C 
HETATM   15  C12 UNL     1      27.628   2.482  52.935  1.00  0.00     0.029 C 
HETATM   16  C13 UNL     1      27.168   0.048  52.387  1.00  0.00     0.041 C 
HETATM   17  C14 UNL     1      26.466  -0.696  53.448  1.00  0.00     0.121 C 
HETATM   18  N4  UNL     1      25.088  -1.028  53.239  1.00  0.00    -0.394 N 
HETATM   19  C15 UNL     1      25.590   3.000  50.821  1.00  0.00     0.113 C 
HETATM   20  C16 UNL     1      26.595   2.858  49.708  1.00  0.00     0.031 C 
HETATM   21  H20 UNL     1      24.828  -2.052  53.099  1.00  0.00     0.159 HD
ENDROOT
BRANCH   1  22
HETATM   22  O1  UNL     1      24.399   4.304  49.263  1.00  0.00    -0.388 OA
HETATM   23  C1  UNL     1      24.008   5.605  49.559  1.00  0.00     0.202 C 
ENDBRANCH   1  22
TORSDOF 1
ENDMDL
MODEL 2
REMARK VINA RESULT:      -6.9      1.861      4.449
REMARK  1 active torsions:
REMARK  status: ('A' for Active; 'I' for Inactive)
REMARK    1  A    between atoms: O1_2  and  C2_3 
ROOT
HETATM    1  C2  UNL     1      21.976   0.940  51.146  1.00  0.00     0.069 C 
HETATM    2  C3  UNL     1      21.955  -0.062  52.055  1.00  0.00     0.147 C 
HETATM    3  C4  UNL     1      22.918  -0.572  53.075  1.00  0.00     0.099 C 
HETATM    4  N1  UNL     1      24.018  -0.679  53.821  1.00  0.00    -0.258 NA
HETATM    5  C5  UNL     1      25.070   0.259  53.615  1.00  0.00     0.226 C 
HETATM    6  N2  UNL     1      25.746   1.292  54.109  1.00  0.00    -0.277 NA
HETATM    7  C6  UNL     1      26.831   1.801  53.209  1.00  0.00     0.203 C 
HETATM    8  C7  UNL     1      26.156   2.622  52.150  1.00  0.00     0.011 C 
HETATM    9  C8  UNL     1      25.091   2.437  52.966  1.00  0.00     0.070 C 
HETATM   10  C9  UNL     1      23.674   2.741  53.110  1.00  0.00     0.011 C 
HETATM   11  C10 UNL     1      22.564   3.314  52.589  1.00  0.00     0.157 C 
HETATM   12  O2  UNL     1      23.330   3.666  51.515  1.00  0.00    -0.273 OA
HETATM   13  N3  UNL     1      23.540   2.721  50.446  1.00  0.00    -0.181 NA
HETATM   14  C11 UNL     1      23.989   3.514  49.329  1.00  0.00     0.084 C 
HETATM   15  C12 UNL     1      23.175   4.787  49.298  1.00  0.00     0.029 C 
HETATM   16  C13 UNL     1      25.399   3.604  48.993  1.00  0.00     0.041 C 
HETATM   17  C14 UNL     1      26.449   4.022  49.938  1.00  0.00     0.121 C 
HETATM   18  N4  UNL     1      26.810   3.115  50.987  1.00  0.00    -0.394 N 
HETATM   19  C15 UNL     1      22.256   2.109  50.233  1.00  0.00     0.113 C 
HETATM   20  C16 UNL     1      22.022   1.613  48.831  1.00  0.00     0.031 C 
HETATM   21  H20 UNL     1      27.775   2.663  50.957  1.00  0.00     0.159 HD
ENDROOT
BRANCH   1  22
HETATM   22  O1  UNL     1      20.670   0.472  50.827  1.00  0.00    -0.388 OA
HETATM   23  C1  UNL     1      19.595   0.508  51.706  1.00  0.00     0.202 C 
ENDBRANCH   1  22
TORSDOF 1
ENDMDL
MODEL 3
REMARK VINA RESULT:      -6.8      1.382      1.820
REMARK  1 active torsions:
REMARK  status: ('A' for Active; 'I' for Inactive)
REMARK    1  A    between atoms: O1_2  and  C2_3 
ROOT
HETATM    1  C2  UNL     1      24.403   3.474  49.900  1.00  0.00     0.069 C 
HETATM    2  C3  UNL     1      23.495   3.745  48.936  1.00  0.00     0.147 C 
HETATM    3  C4  UNL     1      22.108   3.279  48.641  1.00  0.00     0.099 C 
HETATM    4  N1  UNL     1      20.948   2.631  48.760  1.00  0.00    -0.258 NA
HETATM    5  C5  UNL     1      20.771   1.760  49.872  1.00  0.00     0.226 C 
HETATM    6  N2  UNL     1      20.143   1.549  51.026  1.00  0.00    -0.277 NA
HETATM    7  C6  UNL     1      20.525   0.269  51.706  1.00  0.00     0.203 C 
HETATM    8  C7  UNL     1      21.854   0.513  52.359  1.00  0.00     0.011 C 
HETATM    9  C8  UNL     1      21.573   1.788  51.999  1.00  0.00     0.070 C 
HETATM   10  C9  UNL     1      22.098   3.146  52.036  1.00  0.00     0.011 C 
HETATM   11  C10 UNL     1      23.110   3.976  52.378  1.00  0.00     0.157 C 
HETATM   12  O2  UNL     1      23.770   2.873  52.840  1.00  0.00    -0.273 OA
HETATM   13  N3  UNL     1      24.531   2.060  51.924  1.00  0.00    -0.181 NA
HETATM   14  C11 UNL     1      25.416   1.285  52.759  1.00  0.00     0.084 C 
HETATM   15  C12 UNL     1      25.936   2.185  53.855  1.00  0.00     0.029 C 
HETATM   16  C13 UNL     1      25.107  -0.092  53.102  1.00  0.00     0.041 C 
HETATM   17  C14 UNL     1      23.847  -0.524  53.733  1.00  0.00     0.121 C 
HETATM   18  N4  UNL     1      22.656  -0.509  52.936  1.00  0.00    -0.394 N 
HETATM   19  C15 UNL     1      25.219   2.998  51.078  1.00  0.00     0.113 C 
HETATM   20  C16 UNL     1      26.521   2.495  50.511  1.00  0.00     0.031 C 
HETATM   21  H20 UNL     1      22.212  -1.441  52.672  1.00  0.00     0.159 HD
ENDROOT
BRANCH   1  22
HETATM   22  O1  UNL     1      25.211   4.404  49.189  1.00  0.00    -0.388 OA
HETATM   23  C1  UNL     1      25.059   5.784  49.266  1.00  0.00     0.202 C 
ENDBRANCH   1  22
TORSDOF 1
ENDMDL
MODEL 4
REMARK VINA RESULT:      -6.8      1.702      4.758
REMARK  1 active torsions:
REMARK  status: ('A' for Active; 'I' for Inactive)
REMARK    1  A    between atoms: O1_2  and  C2_3 
ROOT
HETATM    1  C2  UNL     1      26.034   1.612  52.094  1.00  0.00     0.069 C 
HETATM    2  C3  UNL     1      26.833   2.404  51.343  1.00  0.00     0.147 C 
HETATM    3  C4  UNL     1      26.604   3.373  50.231  1.00  0.00     0.099 C 
HETATM    4  N1  UNL     1      25.969   4.115  49.323  1.00  0.00    -0.258 NA
HETATM    5  C5  UNL     1      24.549   4.028  49.249  1.00  0.00     0.226 C 
HETATM    6  N2  UNL     1      23.389   4.642  49.459  1.00  0.00    -0.277 NA
HETATM    7  C6  UNL     1      22.186   3.817  49.109  1.00  0.00     0.203 C 
HETATM    8  C7  UNL     1      21.992   2.847  50.237  1.00  0.00     0.011 C 
HETATM    9  C8  UNL     1      22.943   3.625  50.806  1.00  0.00     0.070 C 
HETATM   10  C9  UNL     1      23.741   3.785  52.015  1.00  0.00     0.011 C 
HETATM   11  C10 UNL     1      24.073   3.317  53.240  1.00  0.00     0.157 C 
HETATM   12  O2  UNL     1      23.192   2.299  53.018  1.00  0.00    -0.273 OA
HETATM   13  N3  UNL     1      23.616   1.134  52.281  1.00  0.00    -0.181 NA
HETATM   14  C11 UNL     1      22.644   0.117  52.597  1.00  0.00     0.084 C 
HETATM   15  C12 UNL     1      22.318   0.217  54.069  1.00  0.00     0.029 C 
HETATM   16  C13 UNL     1      21.557  -0.190  51.683  1.00  0.00     0.041 C 
HETATM   17  C14 UNL     1      20.606   0.809  51.165  1.00  0.00     0.121 C 
HETATM   18  N4  UNL     1      21.082   1.755  50.200  1.00  0.00    -0.394 N 
HETATM   19  C15 UNL     1      24.933   0.839  52.778  1.00  0.00     0.113 C 
HETATM   20  C16 UNL     1      25.325  -0.613  52.695  1.00  0.00     0.031 C 
HETATM   21  H20 UNL     1      20.718   1.687  49.200  1.00  0.00     0.159 HD
ENDROOT
BRANCH   1  22
HETATM   22  O1  UNL     1      27.255   1.227  52.714  1.00  0.00    -0.388 OA
HETATM   23  C1  UNL     1      28.035   2.076  53.491  1.00  0.00     0.202 C 
ENDBRANCH   1  22
TORSDOF 1
ENDMDL
MODEL 5
REMARK VINA RESULT:      -6.7      1.726      5.592
REMARK  1 active torsions:
REMARK  status: ('A' for Active; 'I' for Inactive)
REMARK    1  A    between atoms: O1_2  and  C2_3 
ROOT
HETATM    1  C2  UNL     1      23.016   0.189  52.688  1.00  0.00     0.069 C 
HETATM    2  C3  UNL     1      24.123  -0.442  53.140  1.00  0.00     0.147 C 
HETATM    3  C4  UNL     1      25.589  -0.288  52.903  1.00  0.00     0.099 C 
HETATM    4  N1  UNL     1      26.741   0.188  52.431  1.00  0.00    -0.258 NA
HETATM    5  C5  UNL     1      26.701   1.300  51.541  1.00  0.00     0.226 C 
HETATM    6  N2  UNL     1      26.966   2.592  51.369  1.00  0.00    -0.277 NA
HETATM    7  C6  UNL     1      26.600   3.118  50.013  1.00  0.00     0.203 C 
HETATM    8  C7  UNL     1      25.113   3.321  50.023  1.00  0.00     0.011 C 
HETATM    9  C8  UNL     1      25.287   3.068  51.342  1.00  0.00     0.070 C 
HETATM   10  C9  UNL     1      24.568   2.939  52.602  1.00  0.00     0.011 C 
HETATM   11  C10 UNL     1      23.382   2.947  53.253  1.00  0.00     0.157 C 
HETATM   12  O2  UNL     1      22.795   3.179  52.043  1.00  0.00    -0.273 OA
HETATM   13  N3  UNL     1      22.492   2.069  51.172  1.00  0.00    -0.181 NA
HETATM   14  C11 UNL     1      21.527   2.584  50.232  1.00  0.00     0.084 C 
HETATM   15  C12 UNL     1      20.557   3.463  50.988  1.00  0.00     0.029 C 
HETATM   16  C13 UNL     1      21.928   3.007  48.901  1.00  0.00     0.041 C 
HETATM   17  C14 UNL     1      22.982   4.000  48.632  1.00  0.00     0.121 C 
HETATM   18  N4  UNL     1      24.343   3.617  48.864  1.00  0.00    -0.394 N 
HETATM   19  C15 UNL     1      21.961   1.051  52.037  1.00  0.00     0.113 C 
HETATM   20  C16 UNL     1      20.995   0.104  51.373  1.00  0.00     0.031 C 
HETATM   21  H20 UNL     1      24.989   3.505  48.024  1.00  0.00     0.159 HD
ENDROOT
BRANCH   1  22
HETATM   22  O1  UNL     1      22.331  -0.739  53.521  1.00  0.00    -0.388 OA
HETATM   23  C1  UNL     1      21.998  -0.494  54.848  1.00  0.00     0.202 C 
ENDBRANCH   1  22
TORSDOF 1
ENDMDL
MODEL 6
REMARK VINA RESULT:      -6.4      1.813      3.097
REMARK  1 active torsions:
REMARK  status: ('A' for Active; 'I' for Inactive)
REMARK    1  A    between atoms: O1_2  and  C2_3 
ROOT
HETATM    1  C2  UNL     1      21.384   3.334  49.858  1.00  0.00     0.069 C 
HETATM    2  C3  UNL     1      20.405   2.480  50.235  1.00  0.00     0.147 C 
HETATM    3  C4  UNL     1      20.346   1.273  51.110  1.00  0.00     0.099 C 
HETATM    4  N1  UNL     1      20.732   0.303  51.940  1.00  0.00    -0.258 NA
HETATM    5  C5  UNL     1      22.093   0.273  52.360  1.00  0.00     0.226 C 
HETATM    6  N2  UNL     1      22.946   0.441  53.367  1.00  0.00    -0.277 NA
HETATM    7  C6  UNL     1      24.381   0.214  52.998  1.00  0.00     0.203 C 
HETATM    8  C7  UNL     1      24.836   1.448  52.275  1.00  0.00     0.011 C 
HETATM    9  C8  UNL     1      23.637   1.903  52.711  1.00  0.00     0.070 C 
HETATM   10  C9  UNL     1      22.762   3.067  52.689  1.00  0.00     0.011 C 
HETATM   11  C10 UNL     1      22.540   4.329  52.253  1.00  0.00     0.157 C 
HETATM   12  O2  UNL     1      23.737   4.243  51.602  1.00  0.00    -0.273 OA
HETATM   13  N3  UNL     1      23.798   3.631  50.297  1.00  0.00    -0.181 NA
HETATM   14  C11 UNL     1      25.046   4.081  49.731  1.00  0.00     0.084 C 
HETATM   15  C12 UNL     1      25.223   5.540  50.082  1.00  0.00     0.029 C 
HETATM   16  C13 UNL     1      26.225   3.233  49.748  1.00  0.00     0.041 C 
HETATM   17  C14 UNL     1      26.792   2.630  50.967  1.00  0.00     0.121 C 
HETATM   18  N4  UNL     1      26.073   1.554  51.582  1.00  0.00    -0.394 N 
HETATM   19  C15 UNL     1      22.642   4.126  49.599  1.00  0.00     0.113 C 
HETATM   20  C16 UNL     1      22.795   4.196  48.102  1.00  0.00     0.031 C 
HETATM   21  H20 UNL     1      26.500   0.578  51.554  1.00  0.00     0.159 HD
ENDROOT
BRANCH   1  22
HETATM   22  O1  UNL     1      20.342   3.964  49.122  1.00  0.00    -0.388 OA
HETATM   23  C1  UNL     1      19.456   4.888  49.665  1.00  0.00     0.202 C 
ENDBRANCH   1  22
TORSDOF 1
ENDMDL
MODEL 7
REMARK VINA RESULT:      -6.3      2.322      5.167
REMARK  1 active torsions:
REMARK  status: ('A' for Active; 'I' for Inactive)
REMARK    1  A    between atoms: O1_2  and  C2_3 
ROOT
HETATM    1  C2  UNL     1      22.784   1.868  52.326  1.00  0.00     0.069 C 
HETATM    2  C3  UNL     1      21.537   1.650  52.800  1.00  0.00     0.147 C 
HETATM    3  C4  UNL     1      20.210   2.305  52.603  1.00  0.00     0.099 C 
HETATM    4  N1  UNL     1      19.279   3.145  52.149  1.00  0.00    -0.258 NA
HETATM    5  C5  UNL     1      19.669   4.147  51.214  1.00  0.00     0.226 C 
HETATM    6  N2  UNL     1      19.596   4.579  49.959  1.00  0.00    -0.277 NA
HETATM    7  C6  UNL     1      20.359   5.844  49.701  1.00  0.00     0.203 C 
HETATM    8  C7  UNL     1      21.804   5.454  49.589  1.00  0.00     0.011 C 
HETATM    9  C8  UNL     1      21.264   4.212  49.596  1.00  0.00     0.070 C 
HETATM   10  C9  UNL     1      21.607   2.798  49.545  1.00  0.00     0.011 C 
HETATM   11  C10 UNL     1      22.575   1.853  49.494  1.00  0.00     0.157 C 
HETATM   12  O2  UNL     1      23.481   2.874  49.514  1.00  0.00    -0.273 OA
HETATM   13  N3  UNL     1      23.883   3.448  50.774  1.00  0.00    -0.181 NA
HETATM   14  C11 UNL     1      25.110   4.150  50.490  1.00  0.00     0.084 C 
HETATM   15  C12 UNL     1      25.934   3.298  49.552  1.00  0.00     0.029 C 
HETATM   16  C13 UNL     1      25.121   5.588  50.284  1.00  0.00     0.041 C 
HETATM   17  C14 UNL     1      24.285   6.287  49.292  1.00  0.00     0.121 C 
HETATM   18  N4  UNL     1      22.878   6.385  49.547  1.00  0.00    -0.394 N 
HETATM   19  C15 UNL     1      24.058   2.325  51.656  1.00  0.00     0.113 C 
HETATM   20  C16 UNL     1      25.059   2.543  52.759  1.00  0.00     0.031 C 
HETATM   21  H20 UNL     1      22.469   7.344  49.765  1.00  0.00     0.159 HD
ENDROOT
BRANCH   1  22
HETATM   22  O1  UNL     1      23.124   0.747  53.133  1.00  0.00    -0.388 OA
HETATM   23  C1  UNL     1      22.582  -0.522  52.968  1.00  0.00     0.202 C 
ENDBRANCH   1  22
TORSDOF 1
ENDMDL
MODEL 8
REMARK VINA RESULT:      -6.3      2.079      5.893
REMARK  1 active torsions:
REMARK  status: ('A' for Active; 'I' for Inactive)
REMARK    1  A    between atoms: O1_2  and  C2_3 
ROOT
HETATM    1  C2  UNL     1      24.169   1.545  52.272  1.00  0.00     0.069 C 
HETATM    2  C3  UNL     1      25.514   1.569  52.133  1.00  0.00     0.147 C 
HETATM    3  C4  UNL     1      26.468   2.360  51.302  1.00  0.00     0.099 C 
HETATM    4  N1  UNL     1      26.929   3.258  50.430  1.00  0.00    -0.258 NA
HETATM    5  C5  UNL     1      25.992   4.099  49.765  1.00  0.00     0.226 C 
HETATM    6  N2  UNL     1      25.510   5.331  49.629  1.00  0.00    -0.277 NA
HETATM    7  C6  UNL     1      24.401   5.449  48.627  1.00  0.00     0.203 C 
HETATM    8  C7  UNL     1      23.163   4.931  49.300  1.00  0.00     0.011 C 
HETATM    9  C8  UNL     1      23.979   4.958  50.380  1.00  0.00     0.070 C 
HETATM   10  C9  UNL     1      24.025   4.667  51.807  1.00  0.00     0.011 C 
HETATM   11  C10 UNL     1      23.384   4.200  52.904  1.00  0.00     0.157 C 
HETATM   12  O2  UNL     1      22.306   3.975  52.098  1.00  0.00    -0.273 OA
HETATM   13  N3  UNL     1      22.228   2.754  51.334  1.00  0.00    -0.181 NA
HETATM   14  C11 UNL     1      20.839   2.633  50.963  1.00  0.00     0.084 C 
HETATM   15  C12 UNL     1      19.998   3.043  52.150  1.00  0.00     0.029 C 
HETATM   16  C13 UNL     1      20.380   3.023  49.641  1.00  0.00     0.041 C 
HETATM   17  C14 UNL     1      20.607   4.352  49.046  1.00  0.00     0.121 C 
HETATM   18  N4  UNL     1      21.936   4.683  48.626  1.00  0.00    -0.394 N 
HETATM   19  C15 UNL     1      22.670   1.723  52.234  1.00  0.00     0.113 C 
HETATM   20  C16 UNL     1      22.092   0.359  51.960  1.00  0.00     0.031 C 
HETATM   21  H20 UNL     1      22.128   4.782  47.582  1.00  0.00     0.159 HD
ENDROOT
BRANCH   1  22
HETATM   22  O1  UNL     1      24.437   0.518  53.219  1.00  0.00    -0.388 OA
HETATM   23  C1  UNL     1      25.445  -0.429  53.075  1.00  0.00     0.202 C 
ENDBRANCH   1  22
TORSDOF 1
ENDMDL
MODEL 9
REMARK VINA RESULT:      -6.2      2.400      4.856
REMARK  1 active torsions:
REMARK  status: ('A' for Active; 'I' for Inactive)
REMARK    1  A    between atoms: O1_2  and  C2_3 
ROOT
HETATM    1  C2  UNL     1      21.300   4.582  50.560  1.00  0.00     0.069 C 
HETATM    2  C3  UNL     1      21.649   5.783  50.047  1.00  0.00     0.147 C 
HETATM    3  C4  UNL     1      22.939   6.420  49.652  1.00  0.00     0.099 C 
HETATM    4  N1  UNL     1      24.245   6.581  49.430  1.00  0.00    -0.258 NA
HETATM    5  C5  UNL     1      25.120   5.496  49.721  1.00  0.00     0.226 C 
HETATM    6  N2  UNL     1      25.920   4.554  49.228  1.00  0.00    -0.277 NA
HETATM    7  C6  UNL     1      26.562   3.689  50.271  1.00  0.00     0.203 C 
HETATM    8  C7  UNL     1      25.517   2.709  50.715  1.00  0.00     0.011 C 
HETATM    9  C8  UNL     1      24.856   3.239  49.658  1.00  0.00     0.070 C 
HETATM   10  C9  UNL     1      23.602   3.168  48.921  1.00  0.00     0.011 C 
HETATM   11  C10 UNL     1      22.368   2.623  48.803  1.00  0.00     0.157 C 
HETATM   12  O2  UNL     1      22.652   1.903  49.928  1.00  0.00    -0.273 OA
HETATM   13  N3  UNL     1      22.443   2.494  51.227  1.00  0.00    -0.181 NA
HETATM   14  C11 UNL     1      22.411   1.381  52.143  1.00  0.00     0.084 C 
HETATM   15  C12 UNL     1      21.630   0.261  51.496  1.00  0.00     0.029 C 
HETATM   16  C13 UNL     1      23.578   1.025  52.931  1.00  0.00     0.041 C 
HETATM   17  C14 UNL     1      24.907   0.744  52.359  1.00  0.00     0.121 C 
HETATM   18  N4  UNL     1      25.660   1.845  51.835  1.00  0.00    -0.394 N 
HETATM   19  C15 UNL     1      21.186   3.186  51.123  1.00  0.00     0.113 C 
HETATM   20  C16 UNL     1      20.432   3.315  52.420  1.00  0.00     0.031 C 
HETATM   21  H20 UNL     1      26.544   2.145  52.349  1.00  0.00     0.159 HD
ENDROOT
BRANCH   1  22
HETATM   22  O1  UNL     1      19.980   5.110  50.500  1.00  0.00    -0.388 OA
HETATM   23  C1  UNL     1      19.248   5.243  49.326  1.00  0.00     0.202 C 
ENDBRANCH   1  22
TORSDOF 1
ENDMDL
