MODEL 1
REMARK VINA RESULT:      -8.4      0.000      0.000
REMARK  5 active torsions:
REMARK  status: ('A' for Active; 'I' for Inactive)
REMARK    1  A    between atoms: N1_1  and  C1_2 
REMARK    2  A    between atoms: N2_5  and  C4_6 
REMARK    3  A    between atoms: C4_6  and  C5_7 
REMARK    4  A    between atoms: C9_14  and  N6_15 
REMARK    5  A    between atoms: N6_15  and  C10_16 
ROOT
HETATM    1  C5  UNL     1      22.369   0.527  52.526  1.00  0.00     0.004 A 
HETATM    2  C6  UNL     1      21.066   0.184  52.827  1.00  0.00     0.030 A 
HETATM    3  C7  UNL     1      21.036  -0.602  53.970  1.00  0.00     0.119 A 
HETATM    4  N3  UNL     1      22.325  -0.718  54.337  1.00  0.00    -0.240 N 
HETATM    5  N4  UNL     1      22.703  -1.411  55.395  1.00  0.00    -0.161 NA
HETATM    6  C8  UNL     1      23.996  -1.512  55.732  1.00  0.00     0.258 A 
HETATM    7  N5  UNL     1      24.868  -0.877  54.940  1.00  0.00    -0.220 NA
HETATM    8  C9  UNL     1      24.519  -0.166  53.861  1.00  0.00     0.159 A 
HETATM    9  C16 UNL     1      23.170  -0.066  53.516  1.00  0.00     0.112 A 
ENDROOT
BRANCH   1  10
HETATM   10  C4  UNL     1      22.958   1.322  51.435  1.00  0.00     0.313 C 
BRANCH  10  11
HETATM   11  N2  UNL     1      23.293   2.680  51.778  1.00  0.00     0.092 N 
HETATM   12  C3  UNL     1      22.091   3.476  51.800  1.00  0.00     0.275 C 
HETATM   13  C2  UNL     1      22.404   4.921  52.158  1.00  0.00     0.065 C 
HETATM   14  C1  UNL     1      23.895   5.170  52.084  1.00  0.00     0.221 C 
HETATM   15  C18 UNL     1      24.501   4.590  50.824  1.00  0.00     0.065 C 
HETATM   16  C17 UNL     1      24.173   3.137  50.684  1.00  0.00     0.275 C 
BRANCH  14  17
HETATM   17  N1  UNL     1      24.152   6.594  52.036  1.00  0.00     0.083 N 
HETATM   18  H1  UNL     1      23.929   7.068  52.923  1.00  0.00     0.313 HD
HETATM   19  H2  UNL     1      23.768   7.046  51.177  1.00  0.00     0.313 HD
ENDBRANCH  14  17
ENDBRANCH  10  11
ENDBRANCH   1  10
BRANCH   8  20
HETATM   20  N6  UNL     1      25.448   0.535  53.025  1.00  0.00    -0.339 N 
HETATM   21  H13 UNL     1      25.475   1.276  52.302  1.00  0.00     0.167 HD
BRANCH  20  22
HETATM   22  C10 UNL     1      26.762   0.047  53.265  1.00  0.00     0.033 A 
HETATM   23  C11 UNL     1      27.652   0.844  53.990  1.00  0.00     0.029 A 
HETATM   24  C12 UNL     1      28.952   0.489  54.269  1.00  0.00     0.002 A 
HETATM   25  C13 UNL     1      29.449  -0.718  53.825  1.00  0.00     0.000 A 
HETATM   26  C14 UNL     1      28.602  -1.550  53.097  1.00  0.00     0.002 A 
HETATM   27  C15 UNL     1      27.312  -1.141  52.849  1.00  0.00     0.029 A 
ENDBRANCH  20  22
ENDBRANCH   8  20
TORSDOF 5
ENDMDL
MODEL 2
REMARK VINA RESULT:      -8.0      1.815      5.103
REMARK  5 active torsions:
REMARK  status: ('A' for Active; 'I' for Inactive)
REMARK    1  A    between atoms: N1_1  and  C1_2 
REMARK    2  A    between atoms: N2_5  and  C4_6 
REMARK    3  A    between atoms: C4_6  and  C5_7 
REMARK    4  A    between atoms: C9_14  and  N6_15 
REMARK    5  A    between atoms: N6_15  and  C10_16 
ROOT
HETATM    1  C5  UNL     1      23.798   2.635  52.361  1.00  0.00     0.004 A 
HETATM    2  C6  UNL     1      22.952   3.726  52.360  1.00  0.00     0.030 A 
HETATM    3  C7  UNL     1      23.443   4.702  51.505  1.00  0.00     0.119 A 
HETATM    4  N3  UNL     1      24.578   4.180  51.008  1.00  0.00    -0.240 N 
HETATM    5  N4  UNL     1      25.342   4.829  50.149  1.00  0.00    -0.161 NA
HETATM    6  C8  UNL     1      26.471   4.284  49.674  1.00  0.00     0.258 A 
HETATM    7  N5  UNL     1      26.771   3.058  50.119  1.00  0.00    -0.220 NA
HETATM    8  C9  UNL     1      26.018   2.371  50.989  1.00  0.00     0.159 A 
HETATM    9  C16 UNL     1      24.845   2.947  51.479  1.00  0.00     0.112 A 
ENDROOT
BRANCH   1  10
HETATM   10  C4  UNL     1      23.759   1.352  53.084  1.00  0.00     0.313 C 
BRANCH  10  11
HETATM   11  N2  UNL     1      22.441   0.849  53.372  1.00  0.00     0.092 N 
HETATM   12  C3  UNL     1      22.552  -0.403  54.080  1.00  0.00     0.275 C 
HETATM   13  C2  UNL     1      21.178  -0.968  54.403  1.00  0.00     0.065 C 
HETATM   14  C1  UNL     1      20.109  -0.224  53.630  1.00  0.00     0.221 C 
HETATM   15  C18 UNL     1      20.491  -0.038  52.177  1.00  0.00     0.065 C 
HETATM   16  C17 UNL     1      21.828   0.620  52.049  1.00  0.00     0.275 C 
BRANCH  14  17
HETATM   17  N1  UNL     1      18.882  -0.993  53.628  1.00  0.00     0.083 N 
HETATM   18  H1  UNL     1      18.200  -0.653  54.320  1.00  0.00     0.313 HD
HETATM   19  H2  UNL     1      19.050  -2.023  53.632  1.00  0.00     0.313 HD
ENDBRANCH  14  17
ENDBRANCH  10  11
ENDBRANCH   1  10
BRANCH   8  20
HETATM   20  N6  UNL     1      26.324   1.050  51.449  1.00  0.00    -0.339 N 
HETATM   21  H13 UNL     1      26.054   0.062  51.290  1.00  0.00     0.167 HD
BRANCH  20  22
HETATM   22  C10 UNL     1      27.324   1.119  52.458  1.00  0.00     0.033 A 
HETATM   23  C11 UNL     1      27.780  -0.069  53.034  1.00  0.00     0.029 A 
HETATM   24  C12 UNL     1      28.728  -0.128  54.030  1.00  0.00     0.002 A 
HETATM   25  C13 UNL     1      29.289   1.033  54.519  1.00  0.00     0.000 A 
HETATM   26  C14 UNL     1      28.869   2.245  53.978  1.00  0.00     0.002 A 
HETATM   27  C15 UNL     1      27.918   2.241  52.984  1.00  0.00     0.029 A 
ENDBRANCH  20  22
ENDBRANCH   8  20
TORSDOF 5
ENDMDL
MODEL 3
REMARK VINA RESULT:      -7.9      2.085      5.804
REMARK  5 active torsions:
REMARK  status: ('A' for Active; 'I' for Inactive)
REMARK    1  A    between atoms: N1_1  and  C1_2 
REMARK    2  A    between atoms: N2_5  and  C4_6 
REMARK    3  A    between atoms: C4_6  and  C5_7 
REMARK    4  A    between atoms: C9_14  and  N6_15 
REMARK    5  A    between atoms: N6_15  and  C10_16 
ROOT
HETATM    1  C5  UNL     1      23.940   1.282  52.980  1.00  0.00     0.004 A 
HETATM    2  C6  UNL     1      23.333   0.044  53.038  1.00  0.00     0.030 A 
HETATM    3  C7  UNL     1      22.364  -0.053  52.049  1.00  0.00     0.119 A 
HETATM    4  N3  UNL     1      22.405   1.132  51.415  1.00  0.00    -0.240 N 
HETATM    5  N4  UNL     1      21.610   1.424  50.402  1.00  0.00    -0.161 NA
HETATM    6  C8  UNL     1      21.671   2.616  49.793  1.00  0.00     0.258 A 
HETATM    7  N5  UNL     1      22.575   3.481  50.269  1.00  0.00    -0.220 NA
HETATM    8  C9  UNL     1      23.397   3.217  51.293  1.00  0.00     0.159 A 
HETATM    9  C16 UNL     1      23.327   1.973  51.922  1.00  0.00     0.112 A 
ENDROOT
BRANCH   1  10
HETATM   10  C4  UNL     1      25.005   1.903  53.788  1.00  0.00     0.313 C 
BRANCH  10  11
HETATM   11  N2  UNL     1      26.320   1.350  53.598  1.00  0.00     0.092 N 
HETATM   12  C3  UNL     1      26.643   0.495  54.713  1.00  0.00     0.275 C 
HETATM   13  C2  UNL     1      28.029  -0.110  54.550  1.00  0.00     0.065 C 
HETATM   14  C1  UNL     1      28.781   0.590  53.439  1.00  0.00     0.221 C 
HETATM   15  C18 UNL     1      28.656   2.096  53.536  1.00  0.00     0.065 C 
HETATM   16  C17 UNL     1      27.222   2.518  53.588  1.00  0.00     0.275 C 
BRANCH  14  17
HETATM   17  N1  UNL     1      30.195   0.296  53.543  1.00  0.00     0.083 N 
HETATM   18  H1  UNL     1      30.430  -0.219  54.404  1.00  0.00     0.313 HD
HETATM   19  H2  UNL     1      30.797   1.123  53.336  1.00  0.00     0.313 HD
ENDBRANCH  14  17
ENDBRANCH  10  11
ENDBRANCH   1  10
BRANCH   8  20
HETATM   20  N6  UNL     1      24.382   4.131  51.789  1.00  0.00    -0.339 N 
HETATM   21  H13 UNL     1      24.680   4.589  52.669  1.00  0.00     0.167 HD
BRANCH  20  22
HETATM   22  C10 UNL     1      25.222   4.548  50.720  1.00  0.00     0.033 A 
HETATM   23  C11 UNL     1      26.162   3.646  50.213  1.00  0.00     0.029 A 
HETATM   24  C12 UNL     1      27.040   3.941  49.196  1.00  0.00     0.002 A 
HETATM   25  C13 UNL     1      27.028   5.189  48.611  1.00  0.00     0.000 A 
HETATM   26  C14 UNL     1      26.110   6.125  49.080  1.00  0.00     0.002 A 
HETATM   27  C15 UNL     1      25.257   5.774  50.100  1.00  0.00     0.029 A 
ENDBRANCH  20  22
ENDBRANCH   8  20
TORSDOF 5
ENDMDL
MODEL 4
REMARK VINA RESULT:      -7.8      2.060      6.487
REMARK  5 active torsions:
REMARK  status: ('A' for Active; 'I' for Inactive)
REMARK    1  A    between atoms: N1_1  and  C1_2 
REMARK    2  A    between atoms: N2_5  and  C4_6 
REMARK    3  A    between atoms: C4_6  and  C5_7 
REMARK    4  A    between atoms: C9_14  and  N6_15 
REMARK    5  A    between atoms: N6_15  and  C10_16 
ROOT
HETATM    1  C5  UNL     1      26.018   2.554  51.502  1.00  0.00     0.004 A 
HETATM    2  C6  UNL     1      26.651   3.001  50.360  1.00  0.00     0.030 A 
HETATM    3  C7  UNL     1      25.709   3.328  49.395  1.00  0.00     0.119 A 
HETATM    4  N3  UNL     1      24.524   3.071  49.975  1.00  0.00    -0.240 N 
HETATM    5  N4  UNL     1      23.374   3.256  49.354  1.00  0.00    -0.161 NA
HETATM    6  C8  UNL     1      22.208   2.985  49.957  1.00  0.00     0.258 A 
HETATM    7  N5  UNL     1      22.281   2.521  51.210  1.00  0.00    -0.220 NA
HETATM    8  C9  UNL     1      23.430   2.323  51.870  1.00  0.00     0.159 A 
HETATM    9  C16 UNL     1      24.640   2.607  51.234  1.00  0.00     0.112 A 
ENDROOT
BRANCH   1  10
HETATM   10  C4  UNL     1      26.530   2.076  52.798  1.00  0.00     0.313 C 
BRANCH  10  11
HETATM   11  N2  UNL     1      27.245   0.828  52.752  1.00  0.00     0.092 N 
HETATM   12  C3  UNL     1      26.303  -0.263  52.802  1.00  0.00     0.275 C 
HETATM   13  C2  UNL     1      27.021  -1.603  52.757  1.00  0.00     0.065 C 
HETATM   14  C1  UNL     1      28.506  -1.412  52.983  1.00  0.00     0.221 C 
HETATM   15  C18 UNL     1      28.783  -0.482  54.144  1.00  0.00     0.065 C 
HETATM   16  C17 UNL     1      28.075   0.825  53.973  1.00  0.00     0.275 C 
BRANCH  14  17
HETATM   17  N1  UNL     1      29.115  -2.679  53.327  1.00  0.00     0.083 N 
HETATM   18  H1  UNL     1      29.502  -2.687  54.282  1.00  0.00     0.313 HD
HETATM   19  H2  UNL     1      29.751  -3.039  52.583  1.00  0.00     0.313 HD
ENDBRANCH  14  17
ENDBRANCH  10  11
ENDBRANCH   1  10
BRANCH   8  20
HETATM   20  N6  UNL     1      23.511   1.849  53.219  1.00  0.00    -0.339 N 
HETATM   21  H13 UNL     1      24.010   2.038  54.107  1.00  0.00     0.167 HD
BRANCH  20  22
HETATM   22  C10 UNL     1      22.613   0.760  53.393  1.00  0.00     0.033 A 
HETATM   23  C11 UNL     1      21.293   1.031  53.762  1.00  0.00     0.029 A 
HETATM   24  C12 UNL     1      20.340   0.062  53.978  1.00  0.00     0.002 A 
HETATM   25  C13 UNL     1      20.664  -1.271  53.833  1.00  0.00     0.000 A 
HETATM   26  C14 UNL     1      21.967  -1.594  53.467  1.00  0.00     0.002 A 
HETATM   27  C15 UNL     1      22.877  -0.582  53.264  1.00  0.00     0.029 A 
ENDBRANCH  20  22
ENDBRANCH   8  20
TORSDOF 5
ENDMDL
MODEL 5
REMARK VINA RESULT:      -7.8      2.674      6.517
REMARK  5 active torsions:
REMARK  status: ('A' for Active; 'I' for Inactive)
REMARK    1  A    between atoms: N1_1  and  C1_2 
REMARK    2  A    between atoms: N2_5  and  C4_6 
REMARK    3  A    between atoms: C4_6  and  C5_7 
REMARK    4  A    between atoms: C9_14  and  N6_15 
REMARK    5  A    between atoms: N6_15  and  C10_16 
ROOT
HETATM    1  C5  UNL     1      22.824   1.886  50.706  1.00  0.00     0.004 A 
HETATM    2  C6  UNL     1      21.932   0.922  50.281  1.00  0.00     0.030 A 
HETATM    3  C7  UNL     1      21.382   1.292  49.062  1.00  0.00     0.119 A 
HETATM    4  N3  UNL     1      21.954   2.475  48.775  1.00  0.00    -0.240 N 
HETATM    5  N4  UNL     1      21.672   3.153  47.679  1.00  0.00    -0.161 NA
HETATM    6  C8  UNL     1      22.255   4.333  47.424  1.00  0.00     0.258 A 
HETATM    7  N5  UNL     1      23.128   4.774  48.337  1.00  0.00    -0.220 NA
HETATM    8  C9  UNL     1      23.438   4.111  49.459  1.00  0.00     0.159 A 
HETATM    9  C16 UNL     1      22.826   2.884  49.717  1.00  0.00     0.112 A 
ENDROOT
BRANCH   1  10
HETATM   10  C4  UNL     1      23.660   1.999  51.913  1.00  0.00     0.313 C 
BRANCH  10  11
HETATM   11  N2  UNL     1      24.518   0.872  52.173  1.00  0.00     0.092 N 
HETATM   12  C3  UNL     1      24.472   0.551  53.578  1.00  0.00     0.275 C 
HETATM   13  C2  UNL     1      25.368  -0.636  53.894  1.00  0.00     0.065 C 
HETATM   14  C1  UNL     1      26.274  -0.938  52.719  1.00  0.00     0.221 C 
HETATM   15  C18 UNL     1      26.908   0.318  52.160  1.00  0.00     0.065 C 
HETATM   16  C17 UNL     1      25.872   1.340  51.813  1.00  0.00     0.275 C 
BRANCH  14  17
HETATM   17  N1  UNL     1      27.367  -1.784  53.149  1.00  0.00     0.083 N 
HETATM   18  H1  UNL     1      27.634  -1.619  54.131  1.00  0.00     0.313 HD
HETATM   19  H2  UNL     1      28.157  -1.804  52.467  1.00  0.00     0.313 HD
ENDBRANCH  14  17
ENDBRANCH  10  11
ENDBRANCH   1  10
BRANCH   8  20
HETATM   20  N6  UNL     1      24.390   4.569  50.427  1.00  0.00    -0.339 N 
HETATM   21  H13 UNL     1      24.516   4.649  51.452  1.00  0.00     0.167 HD
BRANCH  20  22
HETATM   22  C10 UNL     1      25.533   5.087  49.758  1.00  0.00     0.033 A 
HETATM   23  C11 UNL     1      26.512   4.195  49.312  1.00  0.00     0.029 A 
HETATM   24  C12 UNL     1      27.668   4.578  48.671  1.00  0.00     0.002 A 
HETATM   25  C13 UNL     1      27.916   5.914  48.434  1.00  0.00     0.000 A 
HETATM   26  C14 UNL     1      26.972   6.844  48.859  1.00  0.00     0.002 A 
HETATM   27  C15 UNL     1      25.835   6.401  49.494  1.00  0.00     0.029 A 
ENDBRANCH  20  22
ENDBRANCH   8  20
TORSDOF 5
ENDMDL
MODEL 6
REMARK VINA RESULT:      -7.5      2.108      6.866
REMARK  5 active torsions:
REMARK  status: ('A' for Active; 'I' for Inactive)
REMARK    1  A    between atoms: N1_1  and  C1_2 
REMARK    2  A    between atoms: N2_5  and  C4_6 
REMARK    3  A    between atoms: C4_6  and  C5_7 
REMARK    4  A    between atoms: C9_14  and  N6_15 
REMARK    5  A    between atoms: N6_15  and  C10_16 
ROOT
HETATM    1  C5  UNL     1      23.299   2.712  52.126  1.00  0.00     0.004 A 
HETATM    2  C6  UNL     1      23.829   3.864  52.671  1.00  0.00     0.030 A 
HETATM    3  C7  UNL     1      23.004   4.943  52.388  1.00  0.00     0.119 A 
HETATM    4  N3  UNL     1      21.990   4.419  51.676  1.00  0.00    -0.240 N 
HETATM    5  N4  UNL     1      20.994   5.151  51.214  1.00  0.00    -0.161 NA
HETATM    6  C8  UNL     1      20.000   4.601  50.502  1.00  0.00     0.258 A 
HETATM    7  N5  UNL     1      20.080   3.281  50.292  1.00  0.00    -0.220 NA
HETATM    8  C9  UNL     1      21.076   2.510  50.747  1.00  0.00     0.159 A 
HETATM    9  C16 UNL     1      22.107   3.091  51.486  1.00  0.00     0.112 A 
ENDROOT
BRANCH   1  10
HETATM   10  C4  UNL     1      23.764   1.314  52.118  1.00  0.00     0.313 C 
BRANCH  10  11
HETATM   11  N2  UNL     1      24.951   1.058  52.891  1.00  0.00     0.092 N 
HETATM   12  C3  UNL     1      26.039   0.735  52.000  1.00  0.00     0.275 C 
HETATM   13  C2  UNL     1      27.315   0.457  52.780  1.00  0.00     0.065 C 
HETATM   14  C1  UNL     1      27.006   0.296  54.254  1.00  0.00     0.221 C 
HETATM   15  C18 UNL     1      25.807  -0.600  54.483  1.00  0.00     0.065 C 
HETATM   16  C17 UNL     1      24.616  -0.120  53.715  1.00  0.00     0.275 C 
BRANCH  14  17
HETATM   17  N1  UNL     1      28.120  -0.343  54.920  1.00  0.00     0.083 N 
HETATM   18  H1  UNL     1      28.304   0.052  55.853  1.00  0.00     0.313 HD
HETATM   19  H2  UNL     1      28.956  -0.447  54.304  1.00  0.00     0.313 HD
ENDBRANCH  14  17
ENDBRANCH  10  11
ENDBRANCH   1  10
BRANCH   8  20
HETATM   20  N6  UNL     1      21.152   1.094  50.544  1.00  0.00    -0.339 N 
HETATM   21  H13 UNL     1      21.698   0.387  50.018  1.00  0.00     0.167 HD
BRANCH  20  22
HETATM   22  C10 UNL     1      20.145   0.450  51.314  1.00  0.00     0.033 A 
HETATM   23  C11 UNL     1      20.474  -0.027  52.586  1.00  0.00     0.029 A 
HETATM   24  C12 UNL     1      19.592  -0.682  53.414  1.00  0.00     0.002 A 
HETATM   25  C13 UNL     1      18.294  -0.903  53.006  1.00  0.00     0.000 A 
HETATM   26  C14 UNL     1      17.915  -0.447  51.747  1.00  0.00     0.002 A 
HETATM   27  C15 UNL     1      18.840   0.202  50.962  1.00  0.00     0.029 A 
ENDBRANCH  20  22
ENDBRANCH   8  20
TORSDOF 5
ENDMDL
MODEL 7
REMARK VINA RESULT:      -7.5      1.847      5.803
REMARK  5 active torsions:
REMARK  status: ('A' for Active; 'I' for Inactive)
REMARK    1  A    between atoms: N1_1  and  C1_2 
REMARK    2  A    between atoms: N2_5  and  C4_6 
REMARK    3  A    between atoms: C4_6  and  C5_7 
REMARK    4  A    between atoms: C9_14  and  N6_15 
REMARK    5  A    between atoms: N6_15  and  C10_16 
ROOT
HETATM    1  C5  UNL     1      24.616   3.390  51.112  1.00  0.00     0.004 A 
HETATM    2  C6  UNL     1      24.865   4.748  51.103  1.00  0.00     0.030 A 
HETATM    3  C7  UNL     1      23.691   5.445  51.351  1.00  0.00     0.119 A 
HETATM    4  N3  UNL     1      22.755   4.491  51.504  1.00  0.00    -0.240 N 
HETATM    5  N4  UNL     1      21.489   4.772  51.751  1.00  0.00    -0.161 NA
HETATM    6  C8  UNL     1      20.578   3.799  51.894  1.00  0.00     0.258 A 
HETATM    7  N5  UNL     1      21.025   2.543  51.773  1.00  0.00    -0.220 NA
HETATM    8  C9  UNL     1      22.302   2.224  51.523  1.00  0.00     0.159 A 
HETATM    9  C16 UNL     1      23.244   3.243  51.375  1.00  0.00     0.112 A 
ENDROOT
BRANCH   1  10
HETATM   10  C4  UNL     1      25.487   2.221  50.899  1.00  0.00     0.313 C 
BRANCH  10  11
HETATM   11  N2  UNL     1      26.095   1.684  52.088  1.00  0.00     0.092 N 
HETATM   12  C3  UNL     1      27.325   2.389  52.354  1.00  0.00     0.275 C 
HETATM   13  C2  UNL     1      28.000   1.848  53.606  1.00  0.00     0.065 C 
HETATM   14  C1  UNL     1      27.358   0.544  54.028  1.00  0.00     0.221 C 
HETATM   15  C18 UNL     1      27.157  -0.391  52.854  1.00  0.00     0.065 C 
HETATM   16  C17 UNL     1      26.390   0.276  51.756  1.00  0.00     0.275 C 
BRANCH  14  17
HETATM   17  N1  UNL     1      28.228  -0.153  54.952  1.00  0.00     0.083 N 
HETATM   18  H1  UNL     1      29.119   0.340  55.106  1.00  0.00     0.313 HD
HETATM   19  H2  UNL     1      28.309  -1.172  54.743  1.00  0.00     0.313 HD
ENDBRANCH  14  17
ENDBRANCH  10  11
ENDBRANCH   1  10
BRANCH   8  20
HETATM   20  N6  UNL     1      22.788   0.881  51.416  1.00  0.00    -0.339 N 
HETATM   21  H13 UNL     1      23.335   0.274  50.779  1.00  0.00     0.167 HD
BRANCH  20  22
HETATM   22  C10 UNL     1      22.382   0.138  52.558  1.00  0.00     0.033 A 
HETATM   23  C11 UNL     1      23.337  -0.183  53.526  1.00  0.00     0.029 A 
HETATM   24  C12 UNL     1      23.068  -0.912  54.662  1.00  0.00     0.002 A 
HETATM   25  C13 UNL     1      21.791  -1.376  54.899  1.00  0.00     0.000 A 
HETATM   26  C14 UNL     1      20.801  -1.084  53.964  1.00  0.00     0.002 A 
HETATM   27  C15 UNL     1      21.130  -0.350  52.848  1.00  0.00     0.029 A 
ENDBRANCH  20  22
ENDBRANCH   8  20
TORSDOF 5
ENDMDL
MODEL 8
REMARK VINA RESULT:      -7.5      1.972      2.663
REMARK  5 active torsions:
REMARK  status: ('A' for Active; 'I' for Inactive)
REMARK    1  A    between atoms: N1_1  and  C1_2 
REMARK    2  A    between atoms: N2_5  and  C4_6 
REMARK    3  A    between atoms: C4_6  and  C5_7 
REMARK    4  A    between atoms: C9_14  and  N6_15 
REMARK    5  A    between atoms: N6_15  and  C10_16 
ROOT
HETATM    1  C5  UNL     1      21.867   1.133  52.827  1.00  0.00     0.004 A 
HETATM    2  C6  UNL     1      20.580   1.001  53.305  1.00  0.00     0.030 A 
HETATM    3  C7  UNL     1      20.558   0.102  54.362  1.00  0.00     0.119 A 
HETATM    4  N3  UNL     1      21.836  -0.291  54.500  1.00  0.00    -0.240 N 
HETATM    5  N4  UNL     1      22.216  -1.164  55.414  1.00  0.00    -0.161 NA
HETATM    6  C8  UNL     1      23.498  -1.542  55.524  1.00  0.00     0.258 A 
HETATM    7  N5  UNL     1      24.356  -0.987  54.660  1.00  0.00    -0.220 NA
HETATM    8  C9  UNL     1      24.005  -0.098  53.721  1.00  0.00     0.159 A 
HETATM    9  C16 UNL     1      22.668   0.289  53.613  1.00  0.00     0.112 A 
ENDROOT
BRANCH   1  10
HETATM   10  C4  UNL     1      22.441   1.933  51.730  1.00  0.00     0.313 C 
BRANCH  10  11
HETATM   11  N2  UNL     1      21.638   2.003  50.537  1.00  0.00     0.092 N 
HETATM   12  C3  UNL     1      22.486   1.841  49.382  1.00  0.00     0.275 C 
HETATM   13  C2  UNL     1      21.673   1.910  48.098  1.00  0.00     0.065 C 
HETATM   14  C1  UNL     1      20.280   2.430  48.385  1.00  0.00     0.221 C 
HETATM   15  C18 UNL     1      20.308   3.644  49.289  1.00  0.00     0.065 C 
HETATM   16  C17 UNL     1      21.066   3.364  50.549  1.00  0.00     0.275 C 
BRANCH  14  17
HETATM   17  N1  UNL     1      19.656   2.861  47.152  1.00  0.00     0.083 N 
HETATM   18  H1  UNL     1      18.629   2.780  47.178  1.00  0.00     0.313 HD
HETATM   19  H2  UNL     1      20.116   2.464  46.304  1.00  0.00     0.313 HD
ENDBRANCH  14  17
ENDBRANCH  10  11
ENDBRANCH   1  10
BRANCH   8  20
HETATM   20  N6  UNL     1      24.925   0.516  52.811  1.00  0.00    -0.339 N 
HETATM   21  H13 UNL     1      24.940   1.139  51.984  1.00  0.00     0.167 HD
BRANCH  20  22
HETATM   22  C10 UNL     1      26.253   0.141  53.155  1.00  0.00     0.033 A 
HETATM   23  C11 UNL     1      26.960   0.932  54.065  1.00  0.00     0.029 A 
HETATM   24  C12 UNL     1      28.254   0.682  54.459  1.00  0.00     0.002 A 
HETATM   25  C13 UNL     1      28.933  -0.405  53.952  1.00  0.00     0.000 A 
HETATM   26  C14 UNL     1      28.273  -1.226  53.041  1.00  0.00     0.002 A 
HETATM   27  C15 UNL     1      26.980  -0.926  52.684  1.00  0.00     0.029 A 
ENDBRANCH  20  22
ENDBRANCH   8  20
TORSDOF 5
ENDMDL
MODEL 9
REMARK VINA RESULT:      -7.4      2.515      3.979
REMARK  5 active torsions:
REMARK  status: ('A' for Active; 'I' for Inactive)
REMARK    1  A    between atoms: N1_1  and  C1_2 
REMARK    2  A    between atoms: N2_5  and  C4_6 
REMARK    3  A    between atoms: C4_6  and  C5_7 
REMARK    4  A    between atoms: C9_14  and  N6_15 
REMARK    5  A    between atoms: N6_15  and  C10_16 
ROOT
HETATM    1  C5  UNL     1      24.852   3.176  49.650  1.00  0.00     0.004 A 
HETATM    2  C6  UNL     1      23.661   3.126  48.955  1.00  0.00     0.030 A 
HETATM    3  C7  UNL     1      22.666   2.592  49.761  1.00  0.00     0.119 A 
HETATM    4  N3  UNL     1      23.278   2.329  50.928  1.00  0.00    -0.240 N 
HETATM    5  N4  UNL     1      22.646   1.798  51.958  1.00  0.00    -0.161 NA
HETATM    6  C8  UNL     1      23.285   1.542  53.108  1.00  0.00     0.258 A 
HETATM    7  N5  UNL     1      24.586   1.853  53.146  1.00  0.00    -0.220 NA
HETATM    8  C9  UNL     1      25.258   2.392  52.121  1.00  0.00     0.159 A 
HETATM    9  C16 UNL     1      24.585   2.655  50.927  1.00  0.00     0.112 A 
ENDROOT
BRANCH   1  10
HETATM   10  C4  UNL     1      26.201   3.633  49.274  1.00  0.00     0.313 C 
BRANCH  10  11
HETATM   11  N2  UNL     1      26.410   5.055  49.350  1.00  0.00     0.092 N 
HETATM   12  C3  UNL     1      25.284   5.735  48.759  1.00  0.00     0.275 C 
HETATM   13  C2  UNL     1      25.468   7.243  48.819  1.00  0.00     0.065 C 
HETATM   14  C1  UNL     1      26.894   7.585  49.194  1.00  0.00     0.221 C 
HETATM   15  C18 UNL     1      27.895   6.766  48.407  1.00  0.00     0.065 C 
HETATM   16  C17 UNL     1      27.621   5.301  48.542  1.00  0.00     0.275 C 
BRANCH  14  17
HETATM   17  N1  UNL     1      27.166   8.970  48.872  1.00  0.00     0.083 N 
HETATM   18  H1  UNL     1      27.986   9.081  48.259  1.00  0.00     0.313 HD
HETATM   19  H2  UNL     1      27.144   9.593  49.709  1.00  0.00     0.313 HD
ENDBRANCH  14  17
ENDBRANCH  10  11
ENDBRANCH   1  10
BRANCH   8  20
HETATM   20  N6  UNL     1      26.645   2.748  52.167  1.00  0.00    -0.339 N 
HETATM   21  H13 UNL     1      27.282   3.525  51.914  1.00  0.00     0.167 HD
BRANCH  20  22
HETATM   22  C10 UNL     1      27.388   1.683  52.745  1.00  0.00     0.033 A 
HETATM   23  C11 UNL     1      28.398   1.988  53.661  1.00  0.00     0.029 A 
HETATM   24  C12 UNL     1      29.195   1.047  54.270  1.00  0.00     0.002 A 
HETATM   25  C13 UNL     1      29.022  -0.292  53.990  1.00  0.00     0.000 A 
HETATM   26  C14 UNL     1      28.028  -0.650  53.083  1.00  0.00     0.002 A 
HETATM   27  C15 UNL     1      27.262   0.336  52.505  1.00  0.00     0.029 A 
ENDBRANCH  20  22
ENDBRANCH   8  20
TORSDOF 5
ENDMDL
