MODEL 1
REMARK VINA RESULT:      -7.4      0.000      0.000
REMARK  5 active torsions:
REMARK  status: ('A' for Active; 'I' for Inactive)
REMARK    1  A    between atoms: C2_2  and  O1_3 
REMARK    2  A    between atoms: O1_3  and  C3_4 
REMARK    3  A    between atoms: C5_6  and  C6_7 
REMARK    4  A    between atoms: C9_12  and  N3_13 
REMARK    5  A    between atoms: N3_13  and  C10_14 
ROOT
HETATM    1  C6  UNL     1      27.020   1.447  51.861  1.00  0.00     0.084 C 
HETATM    2  C7  UNL     1      27.516   2.007  53.128  1.00  0.00     0.104 C 
HETATM    3  N1  UNL     1      27.534   1.647  54.367  1.00  0.00    -0.257 NA
HETATM    4  C8  UNL     1      27.020   0.460  54.973  1.00  0.00     0.234 C 
HETATM    5  N2  UNL     1      26.183  -0.386  54.465  1.00  0.00    -0.225 NA
HETATM    6  C9  UNL     1      25.562  -0.340  53.167  1.00  0.00     0.126 C 
HETATM    7  C16 UNL     1      25.973   0.435  52.172  1.00  0.00     0.038 C 
ENDROOT
BRANCH   6   8
HETATM    8  N3  UNL     1      24.432  -1.151  52.855  1.00  0.00    -0.341 N 
HETATM    9  H9  UNL     1      24.677  -1.983  52.255  1.00  0.00     0.167 HD
BRANCH   8  10
HETATM   10  C10 UNL     1      23.231  -0.655  53.418  1.00  0.00     0.034 A 
HETATM   11  C11 UNL     1      22.573  -1.049  54.545  1.00  0.00     0.029 A 
HETATM   12  C12 UNL     1      21.400  -0.527  55.011  1.00  0.00     0.004 A 
HETATM   13  C13 UNL     1      20.875   0.500  54.225  1.00  0.00     0.019 A 
HETATM   14  C14 UNL     1      21.473   0.961  53.072  1.00  0.00     0.013 A 
HETATM   15 BR1  UNL     1      20.718   2.370  52.025  1.00  0.00    -0.051 Br
HETATM   16  C15 UNL     1      22.657   0.382  52.666  1.00  0.00     0.048 A 
ENDBRANCH   8  10
ENDBRANCH   6   8
BRANCH   1  17
HETATM   17  C5  UNL     1      26.516   2.459  50.916  1.00  0.00    -0.035 A 
HETATM   18  C3  UNL     1      26.431   3.239  49.612  1.00  0.00     0.181 A 
HETATM   19  C4  UNL     1      25.599   3.477  50.754  1.00  0.00     0.016 A 
BRANCH  18  20
HETATM   20  O1  UNL     1      27.521   4.115  49.362  1.00  0.00    -0.350 OA
BRANCH  20  21
HETATM   21  C2  UNL     1      27.286   5.261  48.626  1.00  0.00     0.125 C 
HETATM   22  C1  UNL     1      26.679   6.421  48.514  1.00  0.00     0.037 C 
ENDBRANCH  20  21
ENDBRANCH  18  20
ENDBRANCH   1  17
TORSDOF 5
ENDMDL
MODEL 2
REMARK VINA RESULT:      -7.1      4.095      7.198
REMARK  5 active torsions:
REMARK  status: ('A' for Active; 'I' for Inactive)
REMARK    1  A    between atoms: C2_2  and  O1_3 
REMARK    2  A    between atoms: O1_3  and  C3_4 
REMARK    3  A    between atoms: C5_6  and  C6_7 
REMARK    4  A    between atoms: C9_12  and  N3_13 
REMARK    5  A    between atoms: N3_13  and  C10_14 
ROOT
HETATM    1  C6  UNL     1      21.664   0.448  53.756  1.00  0.00     0.084 C 
HETATM    2  C7  UNL     1      21.599  -0.661  54.720  1.00  0.00     0.104 C 
HETATM    3  N1  UNL     1      22.444  -1.380  55.379  1.00  0.00    -0.257 NA
HETATM    4  C8  UNL     1      23.872  -1.324  55.382  1.00  0.00     0.234 C 
HETATM    5  N2  UNL     1      24.640  -0.732  54.525  1.00  0.00    -0.225 NA
HETATM    6  C9  UNL     1      24.248   0.013  53.357  1.00  0.00     0.126 C 
HETATM    7  C16 UNL     1      23.016   0.451  53.132  1.00  0.00     0.038 C 
ENDROOT
BRANCH   6   8
HETATM    8  N3  UNL     1      25.187   0.340  52.335  1.00  0.00    -0.341 N 
HETATM    9  H9  UNL     1      24.797   0.212  51.364  1.00  0.00     0.167 HD
BRANCH   8  10
HETATM   10  C10 UNL     1      26.436   0.761  52.854  1.00  0.00     0.034 A 
HETATM   11  C11 UNL     1      26.842   2.004  53.240  1.00  0.00     0.029 A 
HETATM   12  C12 UNL     1      28.080   2.331  53.715  1.00  0.00     0.004 A 
HETATM   13  C13 UNL     1      28.967   1.256  53.794  1.00  0.00     0.019 A 
HETATM   14  C14 UNL     1      28.642  -0.031  53.427  1.00  0.00     0.013 A 
HETATM   15 BR1  UNL     1      29.889  -1.474  53.551  1.00  0.00    -0.051 Br
HETATM   16  C15 UNL     1      27.370  -0.282  52.955  1.00  0.00     0.048 A 
ENDBRANCH   8  10
ENDBRANCH   6   8
BRANCH   1  17
HETATM   17  C5  UNL     1      20.607   0.412  52.730  1.00  0.00    -0.035 A 
HETATM   18  C3  UNL     1      19.188   0.392  52.181  1.00  0.00     0.181 A 
HETATM   19  C4  UNL     1      20.370   0.361  51.372  1.00  0.00     0.016 A 
BRANCH  18  20
HETATM   20  O1  UNL     1      18.474  -0.817  52.401  1.00  0.00    -0.350 OA
BRANCH  20  21
HETATM   21  C2  UNL     1      17.127  -0.848  52.092  1.00  0.00     0.125 C 
HETATM   22  C1  UNL     1      15.909  -1.229  52.406  1.00  0.00     0.037 C 
ENDBRANCH  20  21
ENDBRANCH  18  20
ENDBRANCH   1  17
TORSDOF 5
ENDMDL
MODEL 3
REMARK VINA RESULT:      -7.1      1.403      2.089
REMARK  5 active torsions:
REMARK  status: ('A' for Active; 'I' for Inactive)
REMARK    1  A    between atoms: C2_2  and  O1_3 
REMARK    2  A    between atoms: O1_3  and  C3_4 
REMARK    3  A    between atoms: C5_6  and  C6_7 
REMARK    4  A    between atoms: C9_12  and  N3_13 
REMARK    5  A    between atoms: N3_13  and  C10_14 
ROOT
HETATM    1  C6  UNL     1      26.745   1.446  52.011  1.00  0.00     0.084 C 
HETATM    2  C7  UNL     1      27.225   1.952  53.307  1.00  0.00     0.104 C 
HETATM    3  N1  UNL     1      27.239   1.535  54.527  1.00  0.00    -0.257 NA
HETATM    4  C8  UNL     1      26.737   0.313  55.073  1.00  0.00     0.234 C 
HETATM    5  N2  UNL     1      25.916  -0.519  54.519  1.00  0.00    -0.225 NA
HETATM    6  C9  UNL     1      25.304  -0.421  53.220  1.00  0.00     0.126 C 
HETATM    7  C16 UNL     1      25.710   0.406  52.265  1.00  0.00     0.038 C 
ENDROOT
BRANCH   6   8
HETATM    8  N3  UNL     1      24.187  -1.231  52.861  1.00  0.00    -0.341 N 
HETATM    9  H9  UNL     1      24.466  -2.110  52.349  1.00  0.00     0.167 HD
BRANCH   8  10
HETATM   10  C10 UNL     1      22.952  -0.672  53.270  1.00  0.00     0.034 A 
HETATM   11  C11 UNL     1      22.420  -0.562  54.520  1.00  0.00     0.029 A 
HETATM   12  C12 UNL     1      21.203  -0.023  54.828  1.00  0.00     0.004 A 
HETATM   13  C13 UNL     1      20.485   0.443  53.726  1.00  0.00     0.019 A 
HETATM   14  C14 UNL     1      20.946   0.374  52.430  1.00  0.00     0.013 A 
HETATM   15 BR1  UNL     1      19.929   1.025  50.948  1.00  0.00    -0.051 Br
HETATM   16  C15 UNL     1      22.185  -0.186  52.198  1.00  0.00     0.048 A 
ENDBRANCH   8  10
ENDBRANCH   6   8
BRANCH   1  17
HETATM   17  C5  UNL     1      26.233   2.495  51.111  1.00  0.00    -0.035 A 
HETATM   18  C3  UNL     1      25.307   3.608  50.641  1.00  0.00     0.181 A 
HETATM   19  C4  UNL     1      26.439   3.129  49.903  1.00  0.00     0.016 A 
BRANCH  18  20
HETATM   20  O1  UNL     1      24.006   3.186  50.255  1.00  0.00    -0.350 OA
BRANCH  20  21
HETATM   21  C2  UNL     1      22.926   3.631  50.994  1.00  0.00     0.125 C 
HETATM   22  C1  UNL     1      22.354   3.789  52.165  1.00  0.00     0.037 C 
ENDBRANCH  20  21
ENDBRANCH  18  20
ENDBRANCH   1  17
TORSDOF 5
ENDMDL
MODEL 4
REMARK VINA RESULT:      -7.1      3.271      5.293
REMARK  5 active torsions:
REMARK  status: ('A' for Active; 'I' for Inactive)
REMARK    1  A    between atoms: C2_2  and  O1_3 
REMARK    2  A    between atoms: O1_3  and  C3_4 
REMARK    3  A    between atoms: C5_6  and  C6_7 
REMARK    4  A    between atoms: C9_12  and  N3_13 
REMARK    5  A    between atoms: N3_13  and  C10_14 
ROOT
HETATM    1  C6  UNL     1      24.296  -0.054  53.370  1.00  0.00     0.084 C 
HETATM    2  C7  UNL     1      23.921  -0.840  54.556  1.00  0.00     0.104 C 
HETATM    3  N1  UNL     1      22.826  -1.269  55.087  1.00  0.00    -0.257 NA
HETATM    4  C8  UNL     1      21.478  -1.099  54.646  1.00  0.00     0.234 C 
HETATM    5  N2  UNL     1      21.035  -0.249  53.776  1.00  0.00    -0.225 NA
HETATM    6  C9  UNL     1      21.787   0.733  53.040  1.00  0.00     0.126 C 
HETATM    7  C16 UNL     1      23.109   0.730  52.930  1.00  0.00     0.038 C 
ENDROOT
BRANCH   6   8
HETATM    8  N3  UNL     1      21.141   1.805  52.357  1.00  0.00    -0.341 N 
HETATM    9  H9  UNL     1      20.542   2.394  52.994  1.00  0.00     0.167 HD
BRANCH   8  10
HETATM   10  C10 UNL     1      21.447   1.836  50.974  1.00  0.00     0.034 A 
HETATM   11  C11 UNL     1      21.153   0.930  49.999  1.00  0.00     0.029 A 
HETATM   12  C12 UNL     1      21.504   1.027  48.683  1.00  0.00     0.004 A 
HETATM   13  C13 UNL     1      22.226   2.178  48.365  1.00  0.00     0.019 A 
HETATM   14  C14 UNL     1      22.566   3.145  49.285  1.00  0.00     0.013 A 
HETATM   15 BR1  UNL     1      23.557   4.708  48.804  1.00  0.00    -0.051 Br
HETATM   16  C15 UNL     1      22.175   2.975  50.596  1.00  0.00     0.048 A 
ENDBRANCH   8  10
ENDBRANCH   6   8
BRANCH   1  17
HETATM   17  C5  UNL     1      25.463   0.822  53.577  1.00  0.00    -0.035 A 
HETATM   18  C3  UNL     1      26.936   1.194  53.676  1.00  0.00     0.181 A 
HETATM   19  C4  UNL     1      25.853   2.112  53.873  1.00  0.00     0.016 A 
BRANCH  18  20
HETATM   20  O1  UNL     1      27.613   0.676  54.812  1.00  0.00    -0.350 OA
BRANCH  20  21
HETATM   21  C2  UNL     1      28.830   0.050  54.621  1.00  0.00     0.125 C 
HETATM   22  C1  UNL     1      29.590  -0.732  53.888  1.00  0.00     0.037 C 
ENDBRANCH  20  21
ENDBRANCH  18  20
ENDBRANCH   1  17
TORSDOF 5
ENDMDL
MODEL 5
REMARK VINA RESULT:      -7.0      3.316      6.764
REMARK  5 active torsions:
REMARK  status: ('A' for Active; 'I' for Inactive)
REMARK    1  A    between atoms: C2_2  and  O1_3 
REMARK    2  A    between atoms: O1_3  and  C3_4 
REMARK    3  A    between atoms: C5_6  and  C6_7 
REMARK    4  A    between atoms: C9_12  and  N3_13 
REMARK    5  A    between atoms: N3_13  and  C10_14 
ROOT
HETATM    1  C6  UNL     1      24.729   1.850  53.088  1.00  0.00     0.084 C 
HETATM    2  C7  UNL     1      25.791   1.442  54.021  1.00  0.00     0.104 C 
HETATM    3  N1  UNL     1      27.072   1.575  54.098  1.00  0.00    -0.257 NA
HETATM    4  C8  UNL     1      27.969   2.234  53.203  1.00  0.00     0.234 C 
HETATM    5  N2  UNL     1      27.738   2.602  51.984  1.00  0.00    -0.225 NA
HETATM    6  C9  UNL     1      26.524   2.438  51.229  1.00  0.00     0.126 C 
HETATM    7  C16 UNL     1      25.349   2.133  51.764  1.00  0.00     0.038 C 
ENDROOT
BRANCH   6   8
HETATM    8  N3  UNL     1      26.503   2.599  49.812  1.00  0.00    -0.341 N 
HETATM    9  H9  UNL     1      26.638   1.691  49.294  1.00  0.00     0.167 HD
BRANCH   8  10
HETATM   10  C10 UNL     1      26.308   3.945  49.418  1.00  0.00     0.034 A 
HETATM   11  C11 UNL     1      25.176   4.705  49.452  1.00  0.00     0.029 A 
HETATM   12  C12 UNL     1      25.068   5.999  49.030  1.00  0.00     0.004 A 
HETATM   13  C13 UNL     1      26.253   6.543  48.533  1.00  0.00     0.019 A 
HETATM   14  C14 UNL     1      27.441   5.849  48.462  1.00  0.00     0.013 A 
HETATM   15 BR1  UNL     1      29.042   6.633  47.773  1.00  0.00    -0.051 Br
HETATM   16  C15 UNL     1      27.471   4.544  48.907  1.00  0.00     0.048 A 
ENDBRANCH   8  10
ENDBRANCH   6   8
BRANCH   1  17
HETATM   17  C5  UNL     1      23.634   0.873  52.962  1.00  0.00    -0.035 A 
HETATM   18  C3  UNL     1      22.282   0.333  52.515  1.00  0.00     0.181 A 
HETATM   19  C4  UNL     1      23.222  -0.395  53.315  1.00  0.00     0.016 A 
BRANCH  18  20
HETATM   20  O1  UNL     1      21.157   0.927  53.146  1.00  0.00    -0.350 OA
BRANCH  20  21
HETATM   21  C2  UNL     1      19.916   0.768  52.559  1.00  0.00     0.125 C 
HETATM   22  C1  UNL     1      19.142   0.110  51.726  1.00  0.00     0.037 C 
ENDBRANCH  20  21
ENDBRANCH  18  20
ENDBRANCH   1  17
TORSDOF 5
ENDMDL
MODEL 6
REMARK VINA RESULT:      -6.9      3.192      5.117
REMARK  5 active torsions:
REMARK  status: ('A' for Active; 'I' for Inactive)
REMARK    1  A    between atoms: C2_2  and  O1_3 
REMARK    2  A    between atoms: O1_3  and  C3_4 
REMARK    3  A    between atoms: C5_6  and  C6_7 
REMARK    4  A    between atoms: C9_12  and  N3_13 
REMARK    5  A    between atoms: N3_13  and  C10_14 
ROOT
HETATM    1  C6  UNL     1      24.357  -0.498  53.557  1.00  0.00     0.084 C 
HETATM    2  C7  UNL     1      23.881  -0.957  54.871  1.00  0.00     0.104 C 
HETATM    3  N1  UNL     1      22.760  -1.350  55.375  1.00  0.00    -0.257 NA
HETATM    4  C8  UNL     1      21.481  -1.478  54.752  1.00  0.00     0.234 C 
HETATM    5  N2  UNL     1      21.100  -0.971  53.624  1.00  0.00    -0.225 NA
HETATM    6  C9  UNL     1      21.866  -0.152  52.722  1.00  0.00     0.126 C 
HETATM    7  C16 UNL     1      23.185  -0.022  52.771  1.00  0.00     0.038 C 
ENDROOT
BRANCH   6   8
HETATM    8  N3  UNL     1      21.239   0.596  51.682  1.00  0.00    -0.341 N 
HETATM    9  H9  UNL     1      20.565   0.020  51.111  1.00  0.00     0.167 HD
BRANCH   8  10
HETATM   10  C10 UNL     1      21.664   1.947  51.647  1.00  0.00     0.034 A 
HETATM   11  C11 UNL     1      21.135   3.040  52.268  1.00  0.00     0.029 A 
HETATM   12  C12 UNL     1      21.598   4.320  52.165  1.00  0.00     0.004 A 
HETATM   13  C13 UNL     1      22.715   4.464  51.340  1.00  0.00     0.019 A 
HETATM   14  C14 UNL     1      23.313   3.416  50.676  1.00  0.00     0.013 A 
HETATM   15 BR1  UNL     1      24.842   3.657  49.555  1.00  0.00    -0.051 Br
HETATM   16  C15 UNL     1      22.787   2.150  50.830  1.00  0.00     0.048 A 
ENDBRANCH   8  10
ENDBRANCH   6   8
BRANCH   1  17
HETATM   17  C5  UNL     1      25.403   0.537  53.628  1.00  0.00    -0.035 A 
HETATM   18  C3  UNL     1      26.817   1.102  53.644  1.00  0.00     0.181 A 
HETATM   19  C4  UNL     1      25.627   1.893  53.756  1.00  0.00     0.016 A 
BRANCH  18  20
HETATM   20  O1  UNL     1      27.566   0.817  54.816  1.00  0.00    -0.350 OA
BRANCH  20  21
HETATM   21  C2  UNL     1      28.689   0.019  54.699  1.00  0.00     0.125 C 
HETATM   22  C1  UNL     1      29.573  -0.572  53.928  1.00  0.00     0.037 C 
ENDBRANCH  20  21
ENDBRANCH  18  20
ENDBRANCH   1  17
TORSDOF 5
ENDMDL
MODEL 7
REMARK VINA RESULT:      -6.6      2.927      5.501
REMARK  5 active torsions:
REMARK  status: ('A' for Active; 'I' for Inactive)
REMARK    1  A    between atoms: C2_2  and  O1_3 
REMARK    2  A    between atoms: O1_3  and  C3_4 
REMARK    3  A    between atoms: C5_6  and  C6_7 
REMARK    4  A    between atoms: C9_12  and  N3_13 
REMARK    5  A    between atoms: N3_13  and  C10_14 
ROOT
HETATM    1  C6  UNL     1      24.610  -0.020  53.882  1.00  0.00     0.084 C 
HETATM    2  C7  UNL     1      25.563  -0.801  53.076  1.00  0.00     0.104 C 
HETATM    3  N1  UNL     1      26.560  -0.546  52.298  1.00  0.00    -0.257 NA
HETATM    4  C8  UNL     1      27.120   0.715  51.927  1.00  0.00     0.234 C 
HETATM    5  N2  UNL     1      26.587   1.886  52.065  1.00  0.00    -0.225 NA
HETATM    6  C9  UNL     1      25.300   2.209  52.624  1.00  0.00     0.126 C 
HETATM    7  C16 UNL     1      24.571   1.370  53.349  1.00  0.00     0.038 C 
ENDROOT
BRANCH   6   8
HETATM    8  N3  UNL     1      24.706   3.490  52.431  1.00  0.00    -0.341 N 
HETATM    9  H9  UNL     1      24.943   4.172  53.200  1.00  0.00     0.167 HD
BRANCH   8  10
HETATM   10  C10 UNL     1      23.927   3.560  51.251  1.00  0.00     0.034 A 
HETATM   11  C11 UNL     1      24.308   3.420  49.949  1.00  0.00     0.029 A 
HETATM   12  C12 UNL     1      23.491   3.522  48.860  1.00  0.00     0.004 A 
HETATM   13  C13 UNL     1      22.156   3.792  49.166  1.00  0.00     0.019 A 
HETATM   14  C14 UNL     1      21.684   3.947  50.451  1.00  0.00     0.013 A 
HETATM   15 BR1  UNL     1      19.847   4.318  50.825  1.00  0.00    -0.051 Br
HETATM   16  C15 UNL     1      22.572   3.831  51.499  1.00  0.00     0.048 A 
ENDBRANCH   8  10
ENDBRANCH   6   8
BRANCH   1  17
HETATM   17  C5  UNL     1      23.258  -0.603  53.941  1.00  0.00    -0.035 A 
HETATM   18  C3  UNL     1      21.901  -1.050  53.417  1.00  0.00     0.181 A 
HETATM   19  C4  UNL     1      22.329  -1.185  54.778  1.00  0.00     0.016 A 
BRANCH  18  20
HETATM   20  O1  UNL     1      21.009   0.003  53.078  1.00  0.00    -0.350 OA
BRANCH  20  21
HETATM   21  C2  UNL     1      20.817   0.295  51.741  1.00  0.00     0.125 C 
HETATM   22  C1  UNL     1      21.316   0.405  50.531  1.00  0.00     0.037 C 
ENDBRANCH  20  21
ENDBRANCH  18  20
ENDBRANCH   1  17
TORSDOF 5
ENDMDL
MODEL 8
REMARK VINA RESULT:      -6.6      3.559      6.531
REMARK  5 active torsions:
REMARK  status: ('A' for Active; 'I' for Inactive)
REMARK    1  A    between atoms: C2_2  and  O1_3 
REMARK    2  A    between atoms: O1_3  and  C3_4 
REMARK    3  A    between atoms: C5_6  and  C6_7 
REMARK    4  A    between atoms: C9_12  and  N3_13 
REMARK    5  A    between atoms: N3_13  and  C10_14 
ROOT
HETATM    1  C6  UNL     1      23.100   1.394  51.867  1.00  0.00     0.084 C 
HETATM    2  C7  UNL     1      22.289   2.538  52.311  1.00  0.00     0.104 C 
HETATM    3  N1  UNL     1      22.360   3.824  52.229  1.00  0.00    -0.257 NA
HETATM    4  C8  UNL     1      23.360   4.638  51.614  1.00  0.00     0.234 C 
HETATM    5  N2  UNL     1      24.549   4.284  51.246  1.00  0.00    -0.225 NA
HETATM    6  C9  UNL     1      25.159   2.986  51.367  1.00  0.00     0.126 C 
HETATM    7  C16 UNL     1      24.490   1.869  51.620  1.00  0.00     0.038 C 
ENDROOT
BRANCH   6   8
HETATM    8  N3  UNL     1      26.566   2.809  51.216  1.00  0.00    -0.341 N 
HETATM    9  H9  UNL     1      26.961   3.342  50.397  1.00  0.00     0.167 HD
BRANCH   8  10
HETATM   10  C10 UNL     1      27.117   1.952  52.200  1.00  0.00     0.034 A 
HETATM   11  C11 UNL     1      27.835   2.262  53.317  1.00  0.00     0.029 A 
HETATM   12  C12 UNL     1      28.352   1.367  54.211  1.00  0.00     0.004 A 
HETATM   13  C13 UNL     1      28.088   0.031  53.904  1.00  0.00     0.019 A 
HETATM   14  C14 UNL     1      27.371  -0.371  52.799  1.00  0.00     0.013 A 
HETATM   15 BR1  UNL     1      27.034  -2.213  52.417  1.00  0.00    -0.051 Br
HETATM   16  C15 UNL     1      26.883   0.592  51.942  1.00  0.00     0.048 A 
ENDBRANCH   8  10
ENDBRANCH   6   8
BRANCH   1  17
HETATM   17  C5  UNL     1      23.088   0.254  52.801  1.00  0.00    -0.035 A 
HETATM   18  C3  UNL     1      22.528  -0.973  53.507  1.00  0.00     0.181 A 
HETATM   19  C4  UNL     1      23.823  -0.413  53.759  1.00  0.00     0.016 A 
BRANCH  18  20
HETATM   20  O1  UNL     1      21.476  -0.712  54.425  1.00  0.00    -0.350 OA
BRANCH  20  21
HETATM   21  C2  UNL     1      20.242  -0.344  53.922  1.00  0.00     0.125 C 
HETATM   22  C1  UNL     1      19.308  -0.496  53.011  1.00  0.00     0.037 C 
ENDBRANCH  20  21
ENDBRANCH  18  20
ENDBRANCH   1  17
TORSDOF 5
ENDMDL
MODEL 9
REMARK VINA RESULT:      -6.6      3.043      4.904
REMARK  5 active torsions:
REMARK  status: ('A' for Active; 'I' for Inactive)
REMARK    1  A    between atoms: C2_2  and  O1_3 
REMARK    2  A    between atoms: O1_3  and  C3_4 
REMARK    3  A    between atoms: C5_6  and  C6_7 
REMARK    4  A    between atoms: C9_12  and  N3_13 
REMARK    5  A    between atoms: N3_13  and  C10_14 
ROOT
HETATM    1  C6  UNL     1      26.307   2.265  52.885  1.00  0.00     0.084 C 
HETATM    2  C7  UNL     1      26.974   2.411  51.582  1.00  0.00     0.104 C 
HETATM    3  N1  UNL     1      26.771   3.077  50.496  1.00  0.00    -0.257 NA
HETATM    4  C8  UNL     1      25.717   3.985  50.174  1.00  0.00     0.234 C 
HETATM    5  N2  UNL     1      24.588   4.133  50.789  1.00  0.00    -0.225 NA
HETATM    6  C9  UNL     1      24.114   3.418  51.945  1.00  0.00     0.126 C 
HETATM    7  C16 UNL     1      24.887   2.686  52.737  1.00  0.00     0.038 C 
ENDROOT
BRANCH   6   8
HETATM    8  N3  UNL     1      22.741   3.452  52.328  1.00  0.00    -0.341 N 
HETATM    9  H9  UNL     1      22.497   4.299  52.906  1.00  0.00     0.167 HD
BRANCH   8  10
HETATM   10  C10 UNL     1      22.012   2.336  51.849  1.00  0.00     0.034 A 
HETATM   11  C11 UNL     1      21.540   2.080  50.596  1.00  0.00     0.029 A 
HETATM   12  C12 UNL     1      20.823   0.980  50.220  1.00  0.00     0.004 A 
HETATM   13  C13 UNL     1      20.585   0.069  51.250  1.00  0.00     0.019 A 
HETATM   14  C14 UNL     1      21.024   0.246  52.543  1.00  0.00     0.013 A 
HETATM   15 BR1  UNL     1      20.674  -1.027  53.925  1.00  0.00    -0.051 Br
HETATM   16  C15 UNL     1      21.742   1.385  52.846  1.00  0.00     0.048 A 
ENDBRANCH   8  10
ENDBRANCH   6   8
BRANCH   1  17
HETATM   17  C5  UNL     1      26.401   0.911  53.458  1.00  0.00    -0.035 A 
HETATM   18  C3  UNL     1      26.604  -0.142  54.538  1.00  0.00     0.181 A 
HETATM   19  C4  UNL     1      26.324  -0.434  53.163  1.00  0.00     0.016 A 
BRANCH  18  20
HETATM   20  O1  UNL     1      27.938  -0.272  55.010  1.00  0.00    -0.350 OA
BRANCH  20  21
HETATM   21  C2  UNL     1      28.912  -0.683  54.119  1.00  0.00     0.125 C 
HETATM   22  C1  UNL     1      30.016  -0.417  53.459  1.00  0.00     0.037 C 
ENDBRANCH  20  21
ENDBRANCH  18  20
ENDBRANCH   1  17
TORSDOF 5
ENDMDL
