MODEL 1
REMARK VINA RESULT:      -7.2      0.000      0.000
REMARK  5 active torsions:
REMARK  status: ('A' for Active; 'I' for Inactive)
REMARK    1  A    between atoms: C2_2  and  C3_3 
REMARK    2  A    between atoms: C2_2  and  N1_6 
REMARK    3  A    between atoms: C3_3  and  C4_4 
REMARK    4  A    between atoms: N1_6  and  C5_7 
REMARK    5  A    between atoms: C8_10  and  C9_11 
ROOT
HETATM    1  C5  UNL     1      23.819   3.050  52.284  1.00  0.00     0.050 C 
HETATM    2  C6  UNL     1      24.578   2.985  53.445  1.00  0.00     0.041 C 
HETATM    3  C7  UNL     1      25.583   1.859  53.521  1.00  0.00    -0.021 C 
HETATM    4  C8  UNL     1      26.619   2.102  52.625  1.00  0.00     0.008 C 
HETATM    5  C10 UNL     1      26.490   2.654  51.208  1.00  0.00     0.127 C 
HETATM    6  N3  UNL     1      25.339   2.758  50.514  1.00  0.00    -0.269 NA
HETATM    7  C11 UNL     1      24.136   2.218  51.045  1.00  0.00     0.255 C 
HETATM    8  N4  UNL     1      23.043   1.733  50.387  1.00  0.00    -0.369 N 
HETATM    9  C12 UNL     1      22.128   0.956  51.256  1.00  0.00     0.122 C 
HETATM   10  C13 UNL     1      21.996   0.028  52.216  1.00  0.00     0.109 C 
HETATM   11  F1  UNL     1      20.782  -0.394  52.750  1.00  0.00    -0.209 F 
HETATM   12  C14 UNL     1      23.239  -0.594  52.708  1.00  0.00     0.075 C 
HETATM   13  C15 UNL     1      23.823   0.020  53.926  1.00  0.00     0.034 C 
HETATM   14  C16 UNL     1      25.144  -0.483  54.324  1.00  0.00    -0.025 C 
HETATM   15  C17 UNL     1      25.988   0.531  54.092  1.00  0.00     0.008 C 
HETATM   16  H14 UNL     1      22.746   1.803  49.412  1.00  0.00     0.161 HD
ENDROOT
BRANCH   1  17
HETATM   17  N1  UNL     1      22.743   3.952  52.402  1.00  0.00    -0.386 N 
HETATM   18  H8  UNL     1      22.387   3.321  53.163  1.00  0.00     0.160 HD
BRANCH  17  19
HETATM   19  C2  UNL     1      22.093   5.165  51.956  1.00  0.00     0.080 C 
HETATM   20  C1  UNL     1      23.113   5.954  51.144  1.00  0.00     0.032 C 
BRANCH  19  21
HETATM   21  C3  UNL     1      21.011   4.737  50.952  1.00  0.00     0.061 C 
BRANCH  21  22
HETATM   22  C4  UNL     1      20.015   3.852  51.658  1.00  0.00     0.392 C 
HETATM   23  O1  UNL     1      19.868   3.231  52.707  1.00  0.00    -0.430 OA
ENDBRANCH  21  22
ENDBRANCH  19  21
ENDBRANCH  17  19
ENDBRANCH   1  17
BRANCH   4  24
HETATM   24  C9  UNL     1      28.003   1.807  52.984  1.00  0.00     0.120 C 
HETATM   25  N2  UNL     1      29.042   2.562  53.113  1.00  0.00    -0.311 NA
HETATM   26  H11 UNL     1      29.037   3.608  52.963  1.00  0.00     0.186 HD
ENDBRANCH   4  24
TORSDOF 5
ENDMDL
MODEL 2
REMARK VINA RESULT:      -6.9      7.957     10.104
REMARK  5 active torsions:
REMARK  status: ('A' for Active; 'I' for Inactive)
REMARK    1  A    between atoms: C2_2  and  C3_3 
REMARK    2  A    between atoms: C2_2  and  N1_6 
REMARK    3  A    between atoms: C3_3  and  C4_4 
REMARK    4  A    between atoms: N1_6  and  C5_7 
REMARK    5  A    between atoms: C8_10  and  C9_11 
ROOT
HETATM    1  C5  UNL     1      28.052   9.359  48.131  1.00  0.00     0.050 C 
HETATM    2  C6  UNL     1      27.601   8.276  47.387  1.00  0.00     0.041 C 
HETATM    3  C7  UNL     1      27.676   6.927  48.064  1.00  0.00    -0.021 C 
HETATM    4  C8  UNL     1      26.733   6.867  49.085  1.00  0.00     0.008 C 
HETATM    5  C10 UNL     1      26.384   7.978  50.071  1.00  0.00     0.127 C 
HETATM    6  N3  UNL     1      27.105   9.101  50.268  1.00  0.00    -0.269 NA
HETATM    7  C11 UNL     1      28.361   9.263  49.622  1.00  0.00     0.255 C 
HETATM    8  N4  UNL     1      29.454   9.973  50.026  1.00  0.00    -0.369 N 
HETATM    9  C12 UNL     1      30.684   9.645  49.267  1.00  0.00     0.122 C 
HETATM   10  C13 UNL     1      31.465   8.692  48.737  1.00  0.00     0.109 C 
HETATM   11  F1  UNL     1      32.646   8.931  48.040  1.00  0.00    -0.209 F 
HETATM   12  C14 UNL     1      31.034   7.296  48.938  1.00  0.00     0.075 C 
HETATM   13  C15 UNL     1      30.235   6.708  47.835  1.00  0.00     0.034 C 
HETATM   14  C16 UNL     1      29.661   5.382  48.099  1.00  0.00    -0.025 C 
HETATM   15  C17 UNL     1      28.340   5.586  48.193  1.00  0.00     0.008 C 
HETATM   16  H14 UNL     1      29.579  10.679  50.754  1.00  0.00     0.161 HD
ENDROOT
BRANCH   1  17
HETATM   17  N1  UNL     1      28.191  10.521  47.347  1.00  0.00    -0.386 N 
HETATM   18  H8  UNL     1      27.291  10.840  47.783  1.00  0.00     0.160 HD
BRANCH  17  19
HETATM   19  C2  UNL     1      28.956  11.271  46.373  1.00  0.00     0.080 C 
HETATM   20  C1  UNL     1      27.961  11.912  45.413  1.00  0.00     0.032 C 
BRANCH  19  21
HETATM   21  C3  UNL     1      29.605  12.437  47.133  1.00  0.00     0.061 C 
BRANCH  21  22
HETATM   22  C4  UNL     1      28.621  12.970  48.143  1.00  0.00     0.392 C 
HETATM   23  O1  UNL     1      28.252  12.789  49.300  1.00  0.00    -0.430 OA
ENDBRANCH  21  22
ENDBRANCH  19  21
ENDBRANCH  17  19
ENDBRANCH   1  17
BRANCH   4  24
HETATM   24  C9  UNL     1      25.967   5.648  49.325  1.00  0.00     0.120 C 
HETATM   25  N2  UNL     1      25.651   5.026  50.412  1.00  0.00    -0.311 NA
HETATM   26  H11 UNL     1      25.930   5.346  51.380  1.00  0.00     0.186 HD
ENDBRANCH   4  24
TORSDOF 5
ENDMDL
MODEL 3
REMARK VINA RESULT:      -6.7      1.990      2.706
REMARK  5 active torsions:
REMARK  status: ('A' for Active; 'I' for Inactive)
REMARK    1  A    between atoms: C2_2  and  C3_3 
REMARK    2  A    between atoms: C2_2  and  N1_6 
REMARK    3  A    between atoms: C3_3  and  C4_4 
REMARK    4  A    between atoms: N1_6  and  C5_7 
REMARK    5  A    between atoms: C8_10  and  C9_11 
ROOT
HETATM    1  C5  UNL     1      24.350   3.989  51.634  1.00  0.00     0.050 C 
HETATM    2  C6  UNL     1      24.099   3.471  52.898  1.00  0.00     0.041 C 
HETATM    3  C7  UNL     1      24.261   1.976  53.049  1.00  0.00    -0.021 C 
HETATM    4  C8  UNL     1      25.610   1.645  52.967  1.00  0.00     0.008 C 
HETATM    5  C10 UNL     1      26.637   2.233  52.004  1.00  0.00     0.127 C 
HETATM    6  N3  UNL     1      26.350   2.980  50.919  1.00  0.00    -0.269 NA
HETATM    7  C11 UNL     1      24.998   3.169  50.522  1.00  0.00     0.255 C 
HETATM    8  N4  UNL     1      24.487   3.391  49.276  1.00  0.00    -0.369 N 
HETATM    9  C12 UNL     1      23.018   3.211  49.200  1.00  0.00     0.122 C 
HETATM   10  C13 UNL     1      21.951   2.470  49.536  1.00  0.00     0.109 C 
HETATM   11  F1  UNL     1      20.638   2.764  49.180  1.00  0.00    -0.209 F 
HETATM   12  C14 UNL     1      22.215   1.248  50.318  1.00  0.00     0.075 C 
HETATM   13  C15 UNL     1      22.088   1.392  51.790  1.00  0.00     0.034 C 
HETATM   14  C16 UNL     1      22.511   0.231  52.583  1.00  0.00    -0.025 C 
HETATM   15  C17 UNL     1      23.631   0.622  53.206  1.00  0.00     0.008 C 
HETATM   16  H14 UNL     1      24.930   3.651  48.393  1.00  0.00     0.161 HD
ENDROOT
BRANCH   1  17
HETATM   17  N1  UNL     1      23.929   5.328  51.515  1.00  0.00    -0.386 N 
HETATM   18  H8  UNL     1      22.959   4.966  51.694  1.00  0.00     0.160 HD
BRANCH  17  19
HETATM   19  C2  UNL     1      24.270   6.715  51.286  1.00  0.00     0.080 C 
HETATM   20  C1  UNL     1      25.411   6.741  50.276  1.00  0.00     0.032 C 
BRANCH  19  21
HETATM   21  C3  UNL     1      23.069   7.347  50.567  1.00  0.00     0.061 C 
BRANCH  21  22
HETATM   22  C4  UNL     1      21.811   6.641  51.004  1.00  0.00     0.392 C 
HETATM   23  O1  UNL     1      21.017   5.787  50.620  1.00  0.00    -0.430 OA
ENDBRANCH  21  22
ENDBRANCH  19  21
ENDBRANCH  17  19
ENDBRANCH   1  17
BRANCH   4  24
HETATM   24  C9  UNL     1      26.183   0.624  53.839  1.00  0.00     0.120 C 
HETATM   25  N2  UNL     1      26.845   0.704  54.945  1.00  0.00    -0.311 NA
HETATM   26  H11 UNL     1      27.090   1.614  55.424  1.00  0.00     0.186 HD
ENDBRANCH   4  24
TORSDOF 5
ENDMDL
MODEL 4
REMARK VINA RESULT:      -6.6      2.907      5.445
REMARK  5 active torsions:
REMARK  status: ('A' for Active; 'I' for Inactive)
REMARK    1  A    between atoms: C2_2  and  C3_3 
REMARK    2  A    between atoms: C2_2  and  N1_6 
REMARK    3  A    between atoms: C3_3  and  C4_4 
REMARK    4  A    between atoms: N1_6  and  C5_7 
REMARK    5  A    between atoms: C8_10  and  C9_11 
ROOT
HETATM    1  C5  UNL     1      23.435   2.789  51.003  1.00  0.00     0.050 C 
HETATM    2  C6  UNL     1      22.397   2.067  50.429  1.00  0.00     0.041 C 
HETATM    3  C7  UNL     1      21.285   1.643  51.360  1.00  0.00    -0.021 C 
HETATM    4  C8  UNL     1      20.553   2.761  51.748  1.00  0.00     0.008 C 
HETATM    5  C10 UNL     1      21.109   4.134  52.115  1.00  0.00     0.127 C 
HETATM    6  N3  UNL     1      22.406   4.409  52.362  1.00  0.00    -0.269 NA
HETATM    7  C11 UNL     1      23.359   3.356  52.418  1.00  0.00     0.255 C 
HETATM    8  N4  UNL     1      24.524   3.282  53.126  1.00  0.00    -0.369 N 
HETATM    9  C12 UNL     1      25.086   1.912  53.196  1.00  0.00     0.122 C 
HETATM   10  C13 UNL     1      24.856   0.604  53.384  1.00  0.00     0.109 C 
HETATM   11  F1  UNL     1      25.832  -0.387  53.341  1.00  0.00    -0.209 F 
HETATM   12  C14 UNL     1      23.465   0.213  53.679  1.00  0.00     0.075 C 
HETATM   13  C15 UNL     1      22.658  -0.212  52.509  1.00  0.00     0.034 C 
HETATM   14  C16 UNL     1      21.230  -0.440  52.768  1.00  0.00    -0.025 C 
HETATM   15  C17 UNL     1      20.597   0.554  52.132  1.00  0.00     0.008 C 
HETATM   16  H14 UNL     1      25.070   3.991  53.617  1.00  0.00     0.161 HD
ENDROOT
BRANCH   1  17
HETATM   17  N1  UNL     1      24.537   2.916  50.136  1.00  0.00    -0.386 N 
HETATM   18  H8  UNL     1      24.804   1.948  50.445  1.00  0.00     0.160 HD
BRANCH  17  19
HETATM   19  C2  UNL     1      25.275   3.717  49.183  1.00  0.00     0.080 C 
HETATM   20  C1  UNL     1      24.787   5.154  49.325  1.00  0.00     0.032 C 
BRANCH  19  21
HETATM   21  C3  UNL     1      26.735   3.730  49.662  1.00  0.00     0.061 C 
BRANCH  21  22
HETATM   22  C4  UNL     1      27.511   4.722  48.834  1.00  0.00     0.392 C 
HETATM   23  O1  UNL     1      28.619   4.880  48.328  1.00  0.00    -0.430 OA
ENDBRANCH  21  22
ENDBRANCH  19  21
ENDBRANCH  17  19
ENDBRANCH   1  17
BRANCH   4  24
HETATM   24  C9  UNL     1      19.099   2.699  51.864  1.00  0.00     0.120 C 
HETATM   25  N2  UNL     1      18.194   3.620  51.879  1.00  0.00    -0.311 NA
HETATM   26  H11 UNL     1      18.399   4.653  51.800  1.00  0.00     0.186 HD
ENDBRANCH   4  24
TORSDOF 5
ENDMDL
MODEL 5
REMARK VINA RESULT:      -6.6      2.482      4.721
REMARK  5 active torsions:
REMARK  status: ('A' for Active; 'I' for Inactive)
REMARK    1  A    between atoms: C2_2  and  C3_3 
REMARK    2  A    between atoms: C2_2  and  N1_6 
REMARK    3  A    between atoms: C3_3  and  C4_4 
REMARK    4  A    between atoms: N1_6  and  C5_7 
REMARK    5  A    between atoms: C8_10  and  C9_11 
ROOT
HETATM    1  C5  UNL     1      22.832   1.865  52.188  1.00  0.00     0.050 C 
HETATM    2  C6  UNL     1      23.821   1.761  51.220  1.00  0.00     0.041 C 
HETATM    3  C7  UNL     1      23.751   2.757  50.086  1.00  0.00    -0.021 C 
HETATM    4  C8  UNL     1      24.078   4.023  50.560  1.00  0.00     0.008 C 
HETATM    5  C10 UNL     1      23.644   4.641  51.887  1.00  0.00     0.127 C 
HETATM    6  N3  UNL     1      22.676   4.157  52.692  1.00  0.00    -0.269 NA
HETATM    7  C11 UNL     1      21.882   3.056  52.269  1.00  0.00     0.255 C 
HETATM    8  N4  UNL     1      20.597   2.741  52.603  1.00  0.00    -0.369 N 
HETATM    9  C12 UNL     1      19.993   1.715  51.720  1.00  0.00     0.122 C 
HETATM   10  C13 UNL     1      19.807   1.267  50.469  1.00  0.00     0.109 C 
HETATM   11  F1  UNL     1      19.082   0.127  50.134  1.00  0.00    -0.209 F 
HETATM   12  C14 UNL     1      20.403   2.070  49.385  1.00  0.00     0.075 C 
HETATM   13  C15 UNL     1      21.744   1.629  48.926  1.00  0.00     0.034 C 
HETATM   14  C16 UNL     1      22.414   2.518  47.969  1.00  0.00    -0.025 C 
HETATM   15  C17 UNL     1      23.441   3.049  48.646  1.00  0.00     0.008 C 
HETATM   16  H14 UNL     1      19.979   3.084  53.341  1.00  0.00     0.161 HD
ENDROOT
BRANCH   1  17
HETATM   17  N1  UNL     1      22.816   0.754  53.054  1.00  0.00    -0.386 N 
HETATM   18  H8  UNL     1      22.102   1.286  53.612  1.00  0.00     0.160 HD
BRANCH  17  19
HETATM   19  C2  UNL     1      23.313  -0.564  53.383  1.00  0.00     0.080 C 
HETATM   20  C1  UNL     1      24.755  -0.401  53.849  1.00  0.00     0.032 C 
BRANCH  19  21
HETATM   21  C3  UNL     1      22.531  -1.030  54.620  1.00  0.00     0.061 C 
BRANCH  21  22
HETATM   22  C4  UNL     1      21.165  -0.393  54.602  1.00  0.00     0.392 C 
HETATM   23  O1  UNL     1      20.584   0.624  54.970  1.00  0.00    -0.430 OA
ENDBRANCH  21  22
ENDBRANCH  19  21
ENDBRANCH  17  19
ENDBRANCH   1  17
BRANCH   4  24
HETATM   24  C9  UNL     1      24.898   4.932  49.764  1.00  0.00     0.120 C 
HETATM   25  N2  UNL     1      25.921   5.660  50.065  1.00  0.00    -0.311 NA
HETATM   26  H11 UNL     1      26.354   5.705  51.027  1.00  0.00     0.186 HD
ENDBRANCH   4  24
TORSDOF 5
ENDMDL
MODEL 6
REMARK VINA RESULT:      -6.4      3.394      5.096
REMARK  5 active torsions:
REMARK  status: ('A' for Active; 'I' for Inactive)
REMARK    1  A    between atoms: C2_2  and  C3_3 
REMARK    2  A    between atoms: C2_2  and  N1_6 
REMARK    3  A    between atoms: C3_3  and  C4_4 
REMARK    4  A    between atoms: N1_6  and  C5_7 
REMARK    5  A    between atoms: C8_10  and  C9_11 
ROOT
HETATM    1  C5  UNL     1      21.440   2.328  50.733  1.00  0.00     0.050 C 
HETATM    2  C6  UNL     1      22.263   1.209  50.766  1.00  0.00     0.041 C 
HETATM    3  C7  UNL     1      22.697   0.742  52.135  1.00  0.00    -0.021 C 
HETATM    4  C8  UNL     1      21.606   0.200  52.808  1.00  0.00     0.008 C 
HETATM    5  C10 UNL     1      20.180   0.742  52.819  1.00  0.00     0.127 C 
HETATM    6  N3  UNL     1      19.807   1.963  52.385  1.00  0.00    -0.269 NA
HETATM    7  C11 UNL     1      20.790   2.908  51.985  1.00  0.00     0.255 C 
HETATM    8  N4  UNL     1      20.744   4.272  52.025  1.00  0.00    -0.369 N 
HETATM    9  C12 UNL     1      22.067   4.913  51.840  1.00  0.00     0.122 C 
HETATM   10  C13 UNL     1      23.372   4.921  52.147  1.00  0.00     0.109 C 
HETATM   11  F1  UNL     1      24.299   5.832  51.650  1.00  0.00    -0.209 F 
HETATM   12  C14 UNL     1      23.833   3.896  53.103  1.00  0.00     0.075 C 
HETATM   13  C15 UNL     1      24.383   2.658  52.496  1.00  0.00     0.034 C 
HETATM   14  C16 UNL     1      24.686   1.569  53.434  1.00  0.00    -0.025 C 
HETATM   15  C17 UNL     1      23.777   0.621  53.172  1.00  0.00     0.008 C 
HETATM   16  H14 UNL     1      19.970   4.925  52.164  1.00  0.00     0.161 HD
ENDROOT
BRANCH   1  17
HETATM   17  N1  UNL     1      21.298   2.845  49.431  1.00  0.00    -0.386 N 
HETATM   18  H8  UNL     1      20.383   2.330  49.400  1.00  0.00     0.160 HD
BRANCH  17  19
HETATM   19  C2  UNL     1      21.834   3.652  48.356  1.00  0.00     0.080 C 
HETATM   20  C1  UNL     1      23.291   3.946  48.693  1.00  0.00     0.032 C 
BRANCH  19  21
HETATM   21  C3  UNL     1      21.874   2.750  47.112  1.00  0.00     0.061 C 
BRANCH  21  22
HETATM   22  C4  UNL     1      21.723   3.609  45.882  1.00  0.00     0.392 C 
HETATM   23  O1  UNL     1      21.812   3.545  44.659  1.00  0.00    -0.430 OA
ENDBRANCH  21  22
ENDBRANCH  19  21
ENDBRANCH  17  19
ENDBRANCH   1  17
BRANCH   4  24
HETATM   24  C9  UNL     1      21.754  -0.997  53.631  1.00  0.00     0.120 C 
HETATM   25  N2  UNL     1      21.144  -1.393  54.698  1.00  0.00    -0.311 NA
HETATM   26  H11 UNL     1      20.373  -0.851  55.175  1.00  0.00     0.186 HD
ENDBRANCH   4  24
TORSDOF 5
ENDMDL
MODEL 7
REMARK VINA RESULT:      -6.2      2.338      2.928
REMARK  5 active torsions:
REMARK  status: ('A' for Active; 'I' for Inactive)
REMARK    1  A    between atoms: C2_2  and  C3_3 
REMARK    2  A    between atoms: C2_2  and  N1_6 
REMARK    3  A    between atoms: C3_3  and  C4_4 
REMARK    4  A    between atoms: N1_6  and  C5_7 
REMARK    5  A    between atoms: C8_10  and  C9_11 
ROOT
HETATM    1  C5  UNL     1      22.813   3.824  50.669  1.00  0.00     0.050 C 
HETATM    2  C6  UNL     1      22.989   3.683  52.039  1.00  0.00     0.041 C 
HETATM    3  C7  UNL     1      23.676   2.417  52.496  1.00  0.00    -0.021 C 
HETATM    4  C8  UNL     1      25.018   2.461  52.132  1.00  0.00     0.008 C 
HETATM    5  C10 UNL     1      25.590   2.973  50.813  1.00  0.00     0.127 C 
HETATM    6  N3  UNL     1      24.872   3.231  49.700  1.00  0.00    -0.269 NA
HETATM    7  C11 UNL     1      23.489   2.907  49.654  1.00  0.00     0.255 C 
HETATM    8  N4  UNL     1      22.715   2.576  48.579  1.00  0.00    -0.369 N 
HETATM    9  C12 UNL     1      21.409   1.984  48.952  1.00  0.00     0.122 C 
HETATM   10  C13 UNL     1      20.739   1.125  49.735  1.00  0.00     0.109 C 
HETATM   11  F1  UNL     1      19.363   0.919  49.691  1.00  0.00    -0.209 F 
HETATM   12  C14 UNL     1      21.542   0.334  50.686  1.00  0.00     0.075 C 
HETATM   13  C15 UNL     1      21.644   0.893  52.056  1.00  0.00     0.034 C 
HETATM   14  C16 UNL     1      22.575   0.204  52.959  1.00  0.00    -0.025 C 
HETATM   15  C17 UNL     1      23.586   1.063  53.140  1.00  0.00     0.008 C 
HETATM   16  H14 UNL     1      22.875   2.655  47.573  1.00  0.00     0.161 HD
ENDROOT
BRANCH   1  17
HETATM   17  N1  UNL     1      21.946   4.887  50.351  1.00  0.00    -0.386 N 
HETATM   18  H8  UNL     1      21.199   4.333  50.839  1.00  0.00     0.160 HD
BRANCH  17  19
HETATM   19  C2  UNL     1      21.752   6.181  49.732  1.00  0.00     0.080 C 
HETATM   20  C1  UNL     1      21.640   7.207  50.854  1.00  0.00     0.032 C 
BRANCH  19  21
HETATM   21  C3  UNL     1      23.060   6.515  48.998  1.00  0.00     0.061 C 
BRANCH  21  22
HETATM   22  C4  UNL     1      22.989   5.959  47.599  1.00  0.00     0.392 C 
HETATM   23  O1  UNL     1      22.454   5.058  46.958  1.00  0.00    -0.430 OA
ENDBRANCH  21  22
ENDBRANCH  19  21
ENDBRANCH  17  19
ENDBRANCH   1  17
BRANCH   4  24
HETATM   24  C9  UNL     1      26.055   1.965  53.033  1.00  0.00     0.120 C 
HETATM   25  N2  UNL     1      26.762   2.550  53.941  1.00  0.00    -0.311 NA
HETATM   26  H11 UNL     1      26.681   3.575  54.185  1.00  0.00     0.186 HD
ENDBRANCH   4  24
TORSDOF 5
ENDMDL
MODEL 8
REMARK VINA RESULT:      -6.1      9.670     12.294
REMARK  5 active torsions:
REMARK  status: ('A' for Active; 'I' for Inactive)
REMARK    1  A    between atoms: C2_2  and  C3_3 
REMARK    2  A    between atoms: C2_2  and  N1_6 
REMARK    3  A    between atoms: C3_3  and  C4_4 
REMARK    4  A    between atoms: N1_6  and  C5_7 
REMARK    5  A    between atoms: C8_10  and  C9_11 
ROOT
HETATM    1  C5  UNL     1      31.718   8.171  47.869  1.00  0.00     0.050 C 
HETATM    2  C6  UNL     1      31.513   8.833  49.072  1.00  0.00     0.041 C 
HETATM    3  C7  UNL     1      30.393   9.847  49.091  1.00  0.00    -0.021 C 
HETATM    4  C8  UNL     1      29.169   9.188  49.021  1.00  0.00     0.008 C 
HETATM    5  C10 UNL     1      28.830   7.984  48.147  1.00  0.00     0.127 C 
HETATM    6  N3  UNL     1      29.582   7.526  47.126  1.00  0.00    -0.269 NA
HETATM    7  C11 UNL     1      30.732   8.249  46.707  1.00  0.00     0.255 C 
HETATM    8  N4  UNL     1      31.308   8.314  45.471  1.00  0.00    -0.369 N 
HETATM    9  C12 UNL     1      32.287   9.418  45.334  1.00  0.00     0.122 C 
HETATM   10  C13 UNL     1      32.578  10.707  45.569  1.00  0.00     0.109 C 
HETATM   11  F1  UNL     1      33.766  11.331  45.201  1.00  0.00    -0.209 F 
HETATM   12  C14 UNL     1      31.539  11.507  46.244  1.00  0.00     0.075 C 
HETATM   13  C15 UNL     1      31.673  11.614  47.718  1.00  0.00     0.034 C 
HETATM   14  C16 UNL     1      30.556  12.264  48.415  1.00  0.00    -0.025 C 
HETATM   15  C17 UNL     1      29.957  11.284  49.104  1.00  0.00     0.008 C 
HETATM   16  H14 UNL     1      31.184   7.749  44.630  1.00  0.00     0.161 HD
ENDROOT
BRANCH   1  17
HETATM   17  N1  UNL     1      32.927   7.447  47.859  1.00  0.00    -0.386 N 
HETATM   18  H8  UNL     1      33.153   7.947  48.755  1.00  0.00     0.160 HD
BRANCH  17  19
HETATM   19  C2  UNL     1      33.782   6.478  47.209  1.00  0.00     0.080 C 
HETATM   20  C1  UNL     1      34.775   5.978  48.251  1.00  0.00     0.032 C 
BRANCH  19  21
HETATM   21  C3  UNL     1      32.895   5.270  46.872  1.00  0.00     0.061 C 
BRANCH  21  22
HETATM   22  C4  UNL     1      32.373   4.675  48.155  1.00  0.00     0.392 C 
HETATM   23  O1  UNL     1      31.545   4.890  49.036  1.00  0.00    -0.430 OA
ENDBRANCH  21  22
ENDBRANCH  19  21
ENDBRANCH  17  19
ENDBRANCH   1  17
BRANCH   4  24
HETATM   24  C9  UNL     1      28.030   9.641  49.813  1.00  0.00     0.120 C 
HETATM   25  N2  UNL     1      27.695   9.433  51.043  1.00  0.00    -0.311 NA
HETATM   26  H11 UNL     1      28.257   8.847  51.719  1.00  0.00     0.186 HD
ENDBRANCH   4  24
TORSDOF 5
ENDMDL
MODEL 9
REMARK VINA RESULT:      -6.0      1.861      2.552
REMARK  5 active torsions:
REMARK  status: ('A' for Active; 'I' for Inactive)
REMARK    1  A    between atoms: C2_2  and  C3_3 
REMARK    2  A    between atoms: C2_2  and  N1_6 
REMARK    3  A    between atoms: C3_3  and  C4_4 
REMARK    4  A    between atoms: N1_6  and  C5_7 
REMARK    5  A    between atoms: C8_10  and  C9_11 
ROOT
HETATM    1  C5  UNL     1      21.709   3.490  50.891  1.00  0.00     0.050 C 
HETATM    2  C6  UNL     1      22.522   3.651  52.005  1.00  0.00     0.041 C 
HETATM    3  C7  UNL     1      23.631   2.638  52.173  1.00  0.00    -0.021 C 
HETATM    4  C8  UNL     1      24.598   2.843  51.194  1.00  0.00     0.008 C 
HETATM    5  C10 UNL     1      24.354   3.180  49.726  1.00  0.00     0.127 C 
HETATM    6  N3  UNL     1      23.168   3.088  49.092  1.00  0.00    -0.269 NA
HETATM    7  C11 UNL     1      22.046   2.525  49.758  1.00  0.00     0.255 C 
HETATM    8  N4  UNL     1      20.974   1.862  49.235  1.00  0.00    -0.369 N 
HETATM    9  C12 UNL     1      20.176   1.136  50.251  1.00  0.00     0.122 C 
HETATM   10  C13 UNL     1      20.175   0.341  51.332  1.00  0.00     0.109 C 
HETATM   11  F1  UNL     1      19.031  -0.106  51.987  1.00  0.00    -0.209 F 
HETATM   12  C14 UNL     1      21.492  -0.097  51.831  1.00  0.00     0.075 C 
HETATM   13  C15 UNL     1      22.069   0.727  52.920  1.00  0.00     0.034 C 
HETATM   14  C16 UNL     1      23.448   0.400  53.305  1.00  0.00    -0.025 C 
HETATM   15  C17 UNL     1      24.183   1.441  52.891  1.00  0.00     0.008 C 
HETATM   16  H14 UNL     1      20.629   1.770  48.278  1.00  0.00     0.161 HD
ENDROOT
BRANCH   1  17
HETATM   17  N1  UNL     1      20.560   4.303  50.949  1.00  0.00    -0.386 N 
HETATM   18  H8  UNL     1      20.464   3.978  51.944  1.00  0.00     0.160 HD
BRANCH  17  19
HETATM   19  C2  UNL     1      19.662   5.223  50.285  1.00  0.00     0.080 C 
HETATM   20  C1  UNL     1      20.252   5.521  48.912  1.00  0.00     0.032 C 
BRANCH  19  21
HETATM   21  C3  UNL     1      18.364   4.447  50.016  1.00  0.00     0.061 C 
BRANCH  21  22
HETATM   22  C4  UNL     1      17.877   3.847  51.310  1.00  0.00     0.392 C 
HETATM   23  O1  UNL     1      17.073   4.059  52.214  1.00  0.00    -0.430 OA
ENDBRANCH  21  22
ENDBRANCH  19  21
ENDBRANCH  17  19
ENDBRANCH   1  17
BRANCH   4  24
HETATM   24  C9  UNL     1      26.018   2.721  51.509  1.00  0.00     0.120 C 
HETATM   25  N2  UNL     1      27.069   3.260  50.988  1.00  0.00    -0.311 NA
HETATM   26  H11 UNL     1      27.046   3.936  50.176  1.00  0.00     0.186 HD
ENDBRANCH   4  24
TORSDOF 5
ENDMDL
