MODEL 1
REMARK VINA RESULT:      -7.7      0.000      0.000
REMARK  0 active torsions:
REMARK  status: ('A' for Active; 'I' for Inactive)
ROOT
HETATM    1  O1  UNL     1      22.452   5.411  51.994  1.00  0.00    -0.148 OA
HETATM    2  C1  UNL     1      23.156   4.426  52.315  1.00  0.00     0.374 A 
HETATM    3  C2  UNL     1      24.130   3.465  52.970  1.00  0.00     0.256 C 
HETATM    4  O2  UNL     1      24.090   2.248  52.296  1.00  0.00    -0.344 OA
HETATM    5  C3  UNL     1      24.782   1.093  52.532  1.00  0.00     0.095 A 
HETATM    6  C4  UNL     1      25.945   0.953  51.804  1.00  0.00     0.039 A 
HETATM    7  C5  UNL     1      26.759  -0.169  51.930  1.00  0.00     0.003 A 
HETATM    8  C6  UNL     1      26.377  -1.170  52.819  1.00  0.00     0.002 A 
HETATM    9  C7  UNL     1      25.211  -1.026  53.547  1.00  0.00     0.032 A 
HETATM   10  C8  UNL     1      24.413   0.104  53.406  1.00  0.00     0.068 A 
HETATM   11  N1  UNL     1      23.279   0.013  54.257  1.00  0.00    -0.325 N 
HETATM   12  C9  UNL     1      21.881   0.178  54.070  1.00  0.00     0.223 C 
HETATM   13  O3  UNL     1      22.377   0.383  52.930  1.00  0.00    -0.273 OA
HETATM   14  C10 UNL     1      20.400   0.330  53.965  1.00  0.00     0.123 C 
HETATM   15  C11 UNL     1      19.927   0.665  52.630  1.00  0.00     0.100 A 
HETATM   16  C12 UNL     1      19.266   0.603  51.525  1.00  0.00    -0.007 A 
HETATM   17 BR1  UNL     1      18.623  -0.878  52.504  1.00  0.00    -0.121 Br
HETATM   18  C13 UNL     1      18.967   1.075  50.225  1.00  0.00     0.011 C 
HETATM   19  C14 UNL     1      19.553   2.082  49.625  1.00  0.00    -0.018 C 
HETATM   20  C15 UNL     1      20.482   3.183  49.481  1.00  0.00     0.054 C 
HETATM   21  C16 UNL     1      21.463   3.927  50.021  1.00  0.00     0.267 C 
HETATM   22  N2  UNL     1      22.318   4.168  51.174  1.00  0.00     0.096 N 
HETATM   23  H7  UNL     1      23.452  -0.226  55.268  1.00  0.00     0.169 HD
HETATM   24  H15 UNL     1      22.564   3.162  50.900  1.00  0.00     0.322 HD
ENDROOT
TORSDOF 0
ENDMDL
MODEL 2
REMARK VINA RESULT:      -7.4      4.025      5.930
REMARK  0 active torsions:
REMARK  status: ('A' for Active; 'I' for Inactive)
ROOT
HETATM    1  O1  UNL     1      20.910   3.719  49.087  1.00  0.00    -0.148 OA
HETATM    2  C1  UNL     1      21.874   3.144  49.643  1.00  0.00     0.374 A 
HETATM    3  C2  UNL     1      22.944   2.167  50.090  1.00  0.00     0.256 C 
HETATM    4  O2  UNL     1      23.730   2.768  51.068  1.00  0.00    -0.344 OA
HETATM    5  C3  UNL     1      24.807   2.278  51.750  1.00  0.00     0.095 A 
HETATM    6  C4  UNL     1      24.513   1.704  52.969  1.00  0.00     0.039 A 
HETATM    7  C5  UNL     1      25.503   1.161  53.783  1.00  0.00     0.003 A 
HETATM    8  C6  UNL     1      26.823   1.206  53.343  1.00  0.00     0.002 A 
HETATM    9  C7  UNL     1      27.115   1.782  52.121  1.00  0.00     0.032 A 
HETATM   10  C8  UNL     1      26.110   2.317  51.323  1.00  0.00     0.068 A 
HETATM   11  N1  UNL     1      26.663   2.846  50.126  1.00  0.00    -0.325 N 
HETATM   12  C9  UNL     1      26.546   4.084  49.440  1.00  0.00     0.223 C 
HETATM   13  O3  UNL     1      25.813   4.217  50.456  1.00  0.00    -0.273 OA
HETATM   14  C10 UNL     1      26.483   5.350  48.653  1.00  0.00     0.123 C 
HETATM   15  C11 UNL     1      25.625   6.372  49.235  1.00  0.00     0.100 A 
HETATM   16  C12 UNL     1      25.240   7.506  49.712  1.00  0.00    -0.007 A 
HETATM   17 BR1  UNL     1      27.049   7.812  49.266  1.00  0.00    -0.121 Br
HETATM   18  C13 UNL     1      24.262   8.341  50.305  1.00  0.00     0.011 C 
HETATM   19  C14 UNL     1      23.049   7.974  50.641  1.00  0.00    -0.018 C 
HETATM   20  C15 UNL     1      21.929   7.070  50.790  1.00  0.00     0.054 C 
HETATM   21  C16 UNL     1      21.428   5.834  50.614  1.00  0.00     0.267 C 
HETATM   22  N2  UNL     1      21.661   4.480  50.133  1.00  0.00     0.096 N 
HETATM   23  H7  UNL     1      27.314   2.225  49.580  1.00  0.00     0.169 HD
HETATM   24  H15 UNL     1      22.414   4.599  50.884  1.00  0.00     0.322 HD
ENDROOT
TORSDOF 0
ENDMDL
MODEL 3
REMARK VINA RESULT:      -7.2      2.713      5.770
REMARK  0 active torsions:
REMARK  status: ('A' for Active; 'I' for Inactive)
ROOT
HETATM    1  O1  UNL     1      26.958   1.482  51.214  1.00  0.00    -0.148 OA
HETATM    2  C1  UNL     1      26.440   2.551  50.816  1.00  0.00     0.374 A 
HETATM    3  C2  UNL     1      26.103   3.845  50.100  1.00  0.00     0.256 C 
HETATM    4  O2  UNL     1      24.930   4.369  50.635  1.00  0.00    -0.344 OA
HETATM    5  C3  UNL     1      24.247   5.504  50.303  1.00  0.00     0.095 A 
HETATM    6  C4  UNL     1      24.562   6.615  51.057  1.00  0.00     0.039 A 
HETATM    7  C5  UNL     1      23.951   7.846  50.842  1.00  0.00     0.003 A 
HETATM    8  C6  UNL     1      22.994   7.946  49.835  1.00  0.00     0.002 A 
HETATM    9  C7  UNL     1      22.681   6.831  49.081  1.00  0.00     0.032 A 
HETATM   10  C8  UNL     1      23.305   5.611  49.313  1.00  0.00     0.068 A 
HETATM   11  N1  UNL     1      22.813   4.628  48.412  1.00  0.00    -0.325 N 
HETATM   12  C9  UNL     1      22.306   3.310  48.560  1.00  0.00     0.223 C 
HETATM   13  O3  UNL     1      22.580   3.675  49.734  1.00  0.00    -0.273 OA
HETATM   14  C10 UNL     1      21.762   1.922  48.621  1.00  0.00     0.123 C 
HETATM   15  C11 UNL     1      21.693   1.366  49.965  1.00  0.00     0.100 A 
HETATM   16  C12 UNL     1      21.213   0.820  51.029  1.00  0.00    -0.007 A 
HETATM   17 BR1  UNL     1      19.724   0.903  49.870  1.00  0.00    -0.121 Br
HETATM   18  C13 UNL     1      21.346   0.357  52.360  1.00  0.00     0.011 C 
HETATM   19  C14 UNL     1      22.433   0.433  53.089  1.00  0.00    -0.018 C 
HETATM   20  C15 UNL     1      23.809   0.766  53.389  1.00  0.00     0.054 C 
HETATM   21  C16 UNL     1      24.972   1.297  52.973  1.00  0.00     0.267 C 
HETATM   22  N2  UNL     1      25.703   1.936  51.888  1.00  0.00     0.096 N 
HETATM   23  H7  UNL     1      22.795   4.877  47.389  1.00  0.00     0.169 HD
HETATM   24  H15 UNL     1      24.892   2.613  52.060  1.00  0.00     0.322 HD
ENDROOT
TORSDOF 0
ENDMDL
MODEL 4
REMARK VINA RESULT:      -7.2      4.219      7.787
REMARK  0 active torsions:
REMARK  status: ('A' for Active; 'I' for Inactive)
ROOT
HETATM    1  O1  UNL     1      25.012   2.998  53.118  1.00  0.00    -0.148 OA
HETATM    2  C1  UNL     1      23.978   3.546  52.671  1.00  0.00     0.374 A 
HETATM    3  C2  UNL     1      22.624   4.203  52.488  1.00  0.00     0.256 C 
HETATM    4  O2  UNL     1      22.440   4.499  51.141  1.00  0.00    -0.344 OA
HETATM    5  C3  UNL     1      21.385   5.097  50.512  1.00  0.00     0.095 A 
HETATM    6  C4  UNL     1      20.449   4.228  49.992  1.00  0.00     0.039 A 
HETATM    7  C5  UNL     1      19.318   4.683  49.320  1.00  0.00     0.003 A 
HETATM    8  C6  UNL     1      19.139   6.056  49.174  1.00  0.00     0.002 A 
HETATM    9  C7  UNL     1      20.079   6.924  49.697  1.00  0.00     0.032 A 
HETATM   10  C8  UNL     1      21.201   6.448  50.365  1.00  0.00     0.068 A 
HETATM   11  N1  UNL     1      22.008   7.532  50.804  1.00  0.00    -0.325 N 
HETATM   12  C9  UNL     1      23.389   7.848  50.699  1.00  0.00     0.223 C 
HETATM   13  O3  UNL     1      23.273   6.745  50.102  1.00  0.00    -0.273 OA
HETATM   14  C10 UNL     1      24.821   8.262  50.636  1.00  0.00     0.123 C 
HETATM   15  C11 UNL     1      25.683   7.322  49.934  1.00  0.00     0.100 A 
HETATM   16  C12 UNL     1      26.537   6.857  49.087  1.00  0.00    -0.007 A 
HETATM   17 BR1  UNL     1      26.425   8.688  48.636  1.00  0.00    -0.121 Br
HETATM   18  C13 UNL     1      27.275   5.791  48.520  1.00  0.00     0.011 C 
HETATM   19  C14 UNL     1      27.198   4.534  48.881  1.00  0.00    -0.018 C 
HETATM   20  C15 UNL     1      26.726   3.399  49.645  1.00  0.00     0.054 C 
HETATM   21  C16 UNL     1      25.929   2.932  50.623  1.00  0.00     0.267 C 
HETATM   22  N2  UNL     1      24.941   3.245  51.645  1.00  0.00     0.096 N 
HETATM   23  H7  UNL     1      21.530   8.306  51.333  1.00  0.00     0.169 HD
HETATM   24  H15 UNL     1      24.466   3.575  50.745  1.00  0.00     0.322 HD
ENDROOT
TORSDOF 0
ENDMDL
MODEL 5
REMARK VINA RESULT:      -7.0     11.233     13.773
REMARK  0 active torsions:
REMARK  status: ('A' for Active; 'I' for Inactive)
ROOT
HETATM    1  O1  UNL     1      35.252   5.183  48.871  1.00  0.00    -0.148 OA
HETATM    2  C1  UNL     1      34.078   5.617  48.846  1.00  0.00     0.374 A 
HETATM    3  C2  UNL     1      32.752   6.290  49.144  1.00  0.00     0.256 C 
HETATM    4  O2  UNL     1      31.872   6.049  48.093  1.00  0.00    -0.344 OA
HETATM    5  C3  UNL     1      30.581   6.459  47.921  1.00  0.00     0.095 A 
HETATM    6  C4  UNL     1      29.623   5.561  48.342  1.00  0.00     0.039 A 
HETATM    7  C5  UNL     1      28.263   5.832  48.232  1.00  0.00     0.003 A 
HETATM    8  C6  UNL     1      27.870   7.047  47.677  1.00  0.00     0.002 A 
HETATM    9  C7  UNL     1      28.832   7.946  47.256  1.00  0.00     0.032 A 
HETATM   10  C8  UNL     1      30.186   7.654  47.377  1.00  0.00     0.068 A 
HETATM   11  N1  UNL     1      30.967   8.731  46.875  1.00  0.00    -0.325 N 
HETATM   12  C9  UNL     1      32.050   8.831  45.963  1.00  0.00     0.223 C 
HETATM   13  O3  UNL     1      31.781   7.601  45.996  1.00  0.00    -0.273 OA
HETATM   14  C10 UNL     1      33.189   9.031  45.019  1.00  0.00     0.123 C 
HETATM   15  C11 UNL     1      33.678   7.805  44.405  1.00  0.00     0.100 A 
HETATM   16  C12 UNL     1      34.029   6.956  43.501  1.00  0.00    -0.007 A 
HETATM   17 BR1  UNL     1      33.483   8.462  42.500  1.00  0.00    -0.121 Br
HETATM   18  C13 UNL     1      34.497   5.681  43.104  1.00  0.00     0.011 C 
HETATM   19  C14 UNL     1      34.768   4.683  43.910  1.00  0.00    -0.018 C 
HETATM   20  C15 UNL     1      34.893   3.999  45.179  1.00  0.00     0.054 C 
HETATM   21  C16 UNL     1      34.769   4.043  46.518  1.00  0.00     0.267 C 
HETATM   22  N2  UNL     1      34.411   4.836  47.684  1.00  0.00     0.096 N 
HETATM   23  H7  UNL     1      30.736   9.697  47.223  1.00  0.00     0.169 HD
HETATM   24  H15 UNL     1      33.507   4.833  47.111  1.00  0.00     0.322 HD
ENDROOT
TORSDOF 0
ENDMDL
MODEL 6
REMARK VINA RESULT:      -7.0     26.046     27.347
REMARK  0 active torsions:
REMARK  status: ('A' for Active; 'I' for Inactive)
ROOT
HETATM    1  O1  UNL     1      44.796   6.701  72.069  1.00  0.00    -0.148 OA
HETATM    2  C1  UNL     1      44.986   6.728  70.831  1.00  0.00     0.374 A 
HETATM    3  C2  UNL     1      45.567   6.836  69.435  1.00  0.00     0.256 C 
HETATM    4  O2  UNL     1      44.559   6.602  68.504  1.00  0.00    -0.344 OA
HETATM    5  C3  UNL     1      44.615   6.587  67.139  1.00  0.00     0.095 A 
HETATM    6  C4  UNL     1      44.290   7.780  66.530  1.00  0.00     0.039 A 
HETATM    7  C5  UNL     1      44.297   7.924  65.145  1.00  0.00     0.003 A 
HETATM    8  C6  UNL     1      44.644   6.824  64.365  1.00  0.00     0.002 A 
HETATM    9  C7  UNL     1      44.969   5.629  64.979  1.00  0.00     0.032 A 
HETATM   10  C8  UNL     1      44.956   5.509  66.364  1.00  0.00     0.068 A 
HETATM   11  N1  UNL     1      45.326   4.191  66.745  1.00  0.00    -0.325 N 
HETATM   12  C9  UNL     1      44.768   3.215  67.613  1.00  0.00     0.223 C 
HETATM   13  O3  UNL     1      43.977   4.191  67.689  1.00  0.00    -0.273 OA
HETATM   14  C10 UNL     1      44.255   2.131  68.501  1.00  0.00     0.123 C 
HETATM   15  C11 UNL     1      43.024   2.467  69.201  1.00  0.00     0.100 A 
HETATM   16  C12 UNL     1      41.809   2.390  69.626  1.00  0.00    -0.007 A 
HETATM   17 BR1  UNL     1      41.997   0.846  68.555  1.00  0.00    -0.121 Br
HETATM   18  C13 UNL     1      40.708   2.905  70.351  1.00  0.00     0.011 C 
HETATM   19  C14 UNL     1      40.686   4.046  70.996  1.00  0.00    -0.018 C 
HETATM   20  C15 UNL     1      41.208   5.303  71.488  1.00  0.00     0.054 C 
HETATM   21  C16 UNL     1      42.243   6.160  71.559  1.00  0.00     0.267 C 
HETATM   22  N2  UNL     1      43.619   6.445  71.183  1.00  0.00     0.096 N 
HETATM   23  H7  UNL     1      46.204   3.794  66.320  1.00  0.00     0.169 HD
HETATM   24  H15 UNL     1      43.127   6.352  70.237  1.00  0.00     0.322 HD
ENDROOT
TORSDOF 0
ENDMDL
MODEL 7
REMARK VINA RESULT:      -6.9      3.534      5.280
REMARK  0 active torsions:
REMARK  status: ('A' for Active; 'I' for Inactive)
ROOT
HETATM    1  O1  UNL     1      20.206   2.856  47.604  1.00  0.00    -0.148 OA
HETATM    2  C1  UNL     1      20.961   2.294  48.431  1.00  0.00     0.374 A 
HETATM    3  C2  UNL     1      21.903   1.357  49.162  1.00  0.00     0.256 C 
HETATM    4  O2  UNL     1      22.193   1.890  50.414  1.00  0.00    -0.344 OA
HETATM    5  C3  UNL     1      22.996   1.406  51.408  1.00  0.00     0.095 A 
HETATM    6  C4  UNL     1      22.347   0.658  52.368  1.00  0.00     0.039 A 
HETATM    7  C5  UNL     1      23.027   0.098  53.445  1.00  0.00     0.003 A 
HETATM    8  C6  UNL     1      24.400   0.306  53.546  1.00  0.00     0.002 A 
HETATM    9  C7  UNL     1      25.047   1.055  52.582  1.00  0.00     0.032 A 
HETATM   10  C8  UNL     1      24.348   1.605  51.513  1.00  0.00     0.068 A 
HETATM   11  N1  UNL     1      25.233   2.326  50.666  1.00  0.00    -0.325 N 
HETATM   12  C9  UNL     1      25.225   3.628  50.099  1.00  0.00     0.223 C 
HETATM   13  O3  UNL     1      24.160   3.570  50.769  1.00  0.00    -0.273 OA
HETATM   14  C10 UNL     1      25.301   4.976  49.463  1.00  0.00     0.123 C 
HETATM   15  C11 UNL     1      24.170   5.842  49.763  1.00  0.00     0.100 A 
HETATM   16  C12 UNL     1      23.499   6.870  50.157  1.00  0.00    -0.007 A 
HETATM   17 BR1  UNL     1      25.293   7.375  50.459  1.00  0.00    -0.121 Br
HETATM   18  C13 UNL     1      22.277   7.539  50.405  1.00  0.00     0.011 C 
HETATM   19  C14 UNL     1      21.081   7.036  50.222  1.00  0.00    -0.018 C 
HETATM   20  C15 UNL     1      20.105   6.032  49.855  1.00  0.00     0.054 C 
HETATM   21  C16 UNL     1      19.861   4.792  49.394  1.00  0.00     0.267 C 
HETATM   22  N2  UNL     1      20.419   3.534  48.919  1.00  0.00     0.096 N 
HETATM   23  H7  UNL     1      26.111   1.834  50.356  1.00  0.00     0.169 HD
HETATM   24  H15 UNL     1      20.822   3.617  49.907  1.00  0.00     0.322 HD
ENDROOT
TORSDOF 0
ENDMDL
MODEL 8
REMARK VINA RESULT:      -6.5      3.644      5.717
REMARK  0 active torsions:
REMARK  status: ('A' for Active; 'I' for Inactive)
ROOT
HETATM    1  O1  UNL     1      18.958   5.945  49.157  1.00  0.00    -0.148 OA
HETATM    2  C1  UNL     1      20.143   6.349  49.182  1.00  0.00     0.374 A 
HETATM    3  C2  UNL     1      21.421   7.148  49.348  1.00  0.00     0.256 C 
HETATM    4  O2  UNL     1      22.501   6.370  48.941  1.00  0.00    -0.344 OA
HETATM    5  C3  UNL     1      23.834   6.665  48.921  1.00  0.00     0.095 A 
HETATM    6  C4  UNL     1      24.304   7.153  47.720  1.00  0.00     0.039 A 
HETATM    7  C5  UNL     1      25.640   7.498  47.539  1.00  0.00     0.003 A 
HETATM    8  C6  UNL     1      26.518   7.340  48.609  1.00  0.00     0.002 A 
HETATM    9  C7  UNL     1      26.044   6.851  49.811  1.00  0.00     0.032 A 
HETATM   10  C8  UNL     1      24.704   6.513  49.970  1.00  0.00     0.068 A 
HETATM   11  N1  UNL     1      24.470   6.038  51.288  1.00  0.00    -0.325 N 
HETATM   12  C9  UNL     1      23.832   4.891  51.832  1.00  0.00     0.223 C 
HETATM   13  O3  UNL     1      23.722   4.750  50.585  1.00  0.00    -0.273 OA
HETATM   14  C10 UNL     1      23.183   3.720  52.490  1.00  0.00     0.123 C 
HETATM   15  C11 UNL     1      22.610   2.756  51.562  1.00  0.00     0.100 A 
HETATM   16  C12 UNL     1      22.364   1.635  50.973  1.00  0.00    -0.007 A 
HETATM   17 BR1  UNL     1      23.611   1.163  52.311  1.00  0.00    -0.121 Br
HETATM   18  C13 UNL     1      21.725   0.869  49.970  1.00  0.00     0.011 C 
HETATM   19  C14 UNL     1      20.932   1.342  49.039  1.00  0.00    -0.018 C 
HETATM   20  C15 UNL     1      20.201   2.354  48.306  1.00  0.00     0.054 C 
HETATM   21  C16 UNL     1      19.872   3.651  48.170  1.00  0.00     0.267 C 
HETATM   22  N2  UNL     1      20.019   5.007  48.677  1.00  0.00     0.096 N 
HETATM   23  H7  UNL     1      24.828   6.627  52.084  1.00  0.00     0.169 HD
HETATM   24  H15 UNL     1      21.026   4.731  48.437  1.00  0.00     0.322 HD
ENDROOT
TORSDOF 0
ENDMDL
MODEL 9
REMARK VINA RESULT:      -6.4     10.834     12.390
REMARK  0 active torsions:
REMARK  status: ('A' for Active; 'I' for Inactive)
ROOT
HETATM    1  O1  UNL     1      33.705  10.461  46.132  1.00  0.00    -0.148 OA
HETATM    2  C1  UNL     1      33.983   9.263  46.365  1.00  0.00     0.374 A 
HETATM    3  C2  UNL     1      34.594   7.962  46.850  1.00  0.00     0.256 C 
HETATM    4  O2  UNL     1      33.863   6.896  46.336  1.00  0.00    -0.344 OA
HETATM    5  C3  UNL     1      34.035   5.552  46.508  1.00  0.00     0.095 A 
HETATM    6  C4  UNL     1      34.784   4.931  45.530  1.00  0.00     0.039 A 
HETATM    7  C5  UNL     1      35.048   3.565  45.563  1.00  0.00     0.003 A 
HETATM    8  C6  UNL     1      34.533   2.814  46.617  1.00  0.00     0.002 A 
HETATM    9  C7  UNL     1      33.783   3.439  47.595  1.00  0.00     0.032 A 
HETATM   10  C8  UNL     1      33.533   4.806  47.543  1.00  0.00     0.068 A 
HETATM   11  N1  UNL     1      32.744   5.204  48.656  1.00  0.00    -0.325 N 
HETATM   12  C9  UNL     1      31.554   5.964  48.809  1.00  0.00     0.223 C 
HETATM   13  O3  UNL     1      31.762   5.953  47.566  1.00  0.00    -0.273 OA
HETATM   14  C10 UNL     1      30.310   6.748  49.063  1.00  0.00     0.123 C 
HETATM   15  C11 UNL     1      29.683   7.279  47.862  1.00  0.00     0.100 A 
HETATM   16  C12 UNL     1      28.787   7.531  46.970  1.00  0.00    -0.007 A 
HETATM   17 BR1  UNL     1      27.867   6.460  48.225  1.00  0.00    -0.121 Br
HETATM   18  C13 UNL     1      28.377   8.109  45.745  1.00  0.00     0.011 C 
HETATM   19  C14 UNL     1      29.148   8.771  44.918  1.00  0.00    -0.018 C 
HETATM   20  C15 UNL     1      30.379   9.359  44.434  1.00  0.00     0.054 C 
HETATM   21  C16 UNL     1      31.689   9.592  44.632  1.00  0.00     0.267 C 
HETATM   22  N2  UNL     1      32.841   9.415  45.503  1.00  0.00     0.096 N 
HETATM   23  H7  UNL     1      33.065   4.895  49.610  1.00  0.00     0.169 HD
HETATM   24  H15 UNL     1      32.553   8.409  45.281  1.00  0.00     0.322 HD
ENDROOT
TORSDOF 0
ENDMDL
