MODEL 1
REMARK VINA RESULT:      -7.8      0.000      0.000
REMARK  6 active torsions:
REMARK  status: ('A' for Active; 'I' for Inactive)
REMARK    1  A    between atoms: N1_1  and  S1_2 
REMARK    2  A    between atoms: S1_2  and  P1_4 
REMARK    3  A    between atoms: S1_2  and  C9_15 
REMARK    4  A    between atoms: P1_4  and  C1_5 
REMARK    5  A    between atoms: C1_5  and  C2_7 
REMARK    6  A    between atoms: C2_7  and  C3_8 
ROOT
HETATM    1  S1  UNL     1      27.366   1.647  53.027  1.00  0.00     0.068 S 
HETATM    2  O1  UNL     1      28.597   2.520  52.840  1.00  0.00    -0.245 OA
ENDROOT
BRANCH   1   3
HETATM    3  N1  UNL     1      26.531   2.088  54.473  1.00  0.00    -0.255 NA
HETATM    4  H1  UNL     1      26.838   1.499  55.274  1.00  0.00     0.133 HD
HETATM    5  H2  UNL     1      26.722   3.087  54.738  1.00  0.00     0.133 HD
ENDBRANCH   1   3
BRANCH   1   6
HETATM    6  P1  UNL     1      26.204   1.985  51.532  1.00  0.00     0.109 P 
BRANCH   6   7
HETATM    7  C1  UNL     1      24.448   2.528  51.813  1.00  0.00     0.175 C 
HETATM    8  O2  UNL     1      24.183   3.546  52.469  1.00  0.00    -0.291 OA
BRANCH   7   9
HETATM    9  C2  UNL     1      23.468   1.626  51.180  1.00  0.00     0.123 C 
BRANCH   9  10
HETATM   10  C3  UNL     1      22.727   0.755  52.087  1.00  0.00    -0.051 A 
HETATM   11  C4  UNL     1      21.391   0.493  52.044  1.00  0.00     0.010 A 
HETATM   12  C5  UNL     1      20.727  -0.335  52.919  1.00  0.00     0.043 A 
HETATM   13  C6  UNL     1      21.435  -0.969  53.933  1.00  0.00     0.116 A 
HETATM   14  F1  UNL     1      20.966  -1.811  54.879  1.00  0.00    -0.206 F 
HETATM   15  C7  UNL     1      22.792  -0.747  54.031  1.00  0.00     0.043 A 
HETATM   16  C8  UNL     1      23.411   0.099  53.121  1.00  0.00     0.010 A 
ENDBRANCH   9  10
ENDBRANCH   7   9
ENDBRANCH   6   7
ENDBRANCH   1   6
BRANCH   1  17
HETATM   17  C9  UNL     1      27.807  -0.034  52.999  1.00  0.00     0.038 A 
HETATM   18  C10 UNL     1      29.075  -0.418  53.395  1.00  0.00     0.021 A 
HETATM   19  C11 UNL     1      29.487  -1.751  53.395  1.00  0.00     0.001 A 
HETATM   20  C12 UNL     1      28.532  -2.661  52.969  1.00  0.00     0.000 A 
HETATM   21  C13 UNL     1      27.244  -2.360  52.557  1.00  0.00     0.001 A 
HETATM   22  C14 UNL     1      26.924  -1.018  52.591  1.00  0.00     0.021 A 
ENDBRANCH   1  17
TORSDOF 6
ENDMDL
MODEL 2
REMARK VINA RESULT:      -7.5      1.294      1.972
REMARK  6 active torsions:
REMARK  status: ('A' for Active; 'I' for Inactive)
REMARK    1  A    between atoms: N1_1  and  S1_2 
REMARK    2  A    between atoms: S1_2  and  P1_4 
REMARK    3  A    between atoms: S1_2  and  C9_15 
REMARK    4  A    between atoms: P1_4  and  C1_5 
REMARK    5  A    between atoms: C1_5  and  C2_7 
REMARK    6  A    between atoms: C2_7  and  C3_8 
ROOT
HETATM    1  S1  UNL     1      27.343   1.785  53.099  1.00  0.00     0.068 S 
HETATM    2  O1  UNL     1      27.344   2.381  51.700  1.00  0.00    -0.245 OA
ENDROOT
BRANCH   1   3
HETATM    3  N1  UNL     1      28.394   2.683  54.135  1.00  0.00    -0.255 NA
HETATM    4  H1  UNL     1      27.974   3.601  54.384  1.00  0.00     0.133 HD
HETATM    5  H2  UNL     1      28.569   2.173  55.038  1.00  0.00     0.133 HD
ENDBRANCH   1   3
BRANCH   1   6
HETATM    6  P1  UNL     1      25.550   1.941  53.776  1.00  0.00     0.109 P 
BRANCH   6   7
HETATM    7  C1  UNL     1      24.183   2.555  52.676  1.00  0.00     0.175 C 
HETATM    8  O2  UNL     1      23.820   3.741  52.695  1.00  0.00    -0.291 OA
BRANCH   7   9
HETATM    9  C2  UNL     1      23.620   1.491  51.823  1.00  0.00     0.123 C 
BRANCH   9  10
HETATM   10  C3  UNL     1      22.339   0.942  52.254  1.00  0.00    -0.051 A 
HETATM   11  C4  UNL     1      21.957   0.692  53.537  1.00  0.00     0.010 A 
HETATM   12  C5  UNL     1      20.737   0.173  53.905  1.00  0.00     0.043 A 
HETATM   13  C6  UNL     1      19.800  -0.131  52.926  1.00  0.00     0.116 A 
HETATM   14  F1  UNL     1      18.559  -0.643  53.086  1.00  0.00    -0.206 F 
HETATM   15  C7  UNL     1      20.123   0.099  51.605  1.00  0.00     0.043 A 
HETATM   16  C8  UNL     1      21.369   0.625  51.291  1.00  0.00     0.010 A 
ENDBRANCH   9  10
ENDBRANCH   7   9
ENDBRANCH   6   7
ENDBRANCH   1   6
BRANCH   1  17
HETATM   17  C9  UNL     1      27.753   0.097  53.037  1.00  0.00     0.038 A 
HETATM   18  C10 UNL     1      26.831  -0.817  52.560  1.00  0.00     0.021 A 
HETATM   19  C11 UNL     1      27.101  -2.183  52.486  1.00  0.00     0.001 A 
HETATM   20  C12 UNL     1      28.362  -2.557  52.926  1.00  0.00     0.000 A 
HETATM   21  C13 UNL     1      29.341  -1.708  53.416  1.00  0.00     0.001 A 
HETATM   22  C14 UNL     1      28.985  -0.374  53.453  1.00  0.00     0.021 A 
ENDBRANCH   1  17
TORSDOF 6
ENDMDL
MODEL 3
REMARK VINA RESULT:      -7.4      4.013      5.924
REMARK  6 active torsions:
REMARK  status: ('A' for Active; 'I' for Inactive)
REMARK    1  A    between atoms: N1_1  and  S1_2 
REMARK    2  A    between atoms: S1_2  and  P1_4 
REMARK    3  A    between atoms: S1_2  and  C9_15 
REMARK    4  A    between atoms: P1_4  and  C1_5 
REMARK    5  A    between atoms: C1_5  and  C2_7 
REMARK    6  A    between atoms: C2_7  and  C3_8 
ROOT
HETATM    1  S1  UNL     1      24.141   6.252  50.480  1.00  0.00     0.068 S 
HETATM    2  O1  UNL     1      23.280   7.099  49.556  1.00  0.00    -0.245 OA
ENDROOT
BRANCH   1   3
HETATM    3  N1  UNL     1      24.394   7.067  51.982  1.00  0.00    -0.255 NA
HETATM    4  H1  UNL     1      23.708   7.838  52.106  1.00  0.00     0.133 HD
HETATM    5  H2  UNL     1      24.273   6.415  52.798  1.00  0.00     0.133 HD
ENDBRANCH   1   3
BRANCH   1   6
HETATM    6  P1  UNL     1      23.166   4.632  50.830  1.00  0.00     0.109 P 
BRANCH   6   7
HETATM    7  C1  UNL     1      23.463   3.678  52.398  1.00  0.00     0.175 C 
HETATM    8  O2  UNL     1      23.889   4.232  53.421  1.00  0.00    -0.291 OA
BRANCH   7   9
HETATM    9  C2  UNL     1      23.137   2.245  52.260  1.00  0.00     0.123 C 
BRANCH   9  10
HETATM   10  C3  UNL     1      24.251   1.320  52.440  1.00  0.00    -0.051 A 
HETATM   11  C4  UNL     1      24.250   0.193  53.205  1.00  0.00     0.010 A 
HETATM   12  C5  UNL     1      25.323  -0.656  53.350  1.00  0.00     0.043 A 
HETATM   13  C6  UNL     1      26.510  -0.378  52.684  1.00  0.00     0.116 A 
HETATM   14  F1  UNL     1      27.662  -1.084  52.699  1.00  0.00    -0.206 F 
HETATM   15  C7  UNL     1      26.577   0.748  51.891  1.00  0.00     0.043 A 
HETATM   16  C8  UNL     1      25.464   1.570  51.781  1.00  0.00     0.010 A 
ENDBRANCH   9  10
ENDBRANCH   7   9
ENDBRANCH   6   7
ENDBRANCH   1   6
BRANCH   1  17
HETATM   17  C9  UNL     1      25.632   5.826  49.696  1.00  0.00     0.038 A 
HETATM   18  C10 UNL     1      26.024   4.500  49.637  1.00  0.00     0.021 A 
HETATM   19  C11 UNL     1      27.209   4.097  49.020  1.00  0.00     0.001 A 
HETATM   20  C12 UNL     1      27.964   5.122  48.472  1.00  0.00     0.000 A 
HETATM   21  C13 UNL     1      27.645   6.470  48.488  1.00  0.00     0.001 A 
HETATM   22  C14 UNL     1      26.456   6.776  49.118  1.00  0.00     0.021 A 
ENDBRANCH   1  17
TORSDOF 6
ENDMDL
MODEL 4
REMARK VINA RESULT:      -7.3      4.158      6.708
REMARK  6 active torsions:
REMARK  status: ('A' for Active; 'I' for Inactive)
REMARK    1  A    between atoms: N1_1  and  S1_2 
REMARK    2  A    between atoms: S1_2  and  P1_4 
REMARK    3  A    between atoms: S1_2  and  C9_15 
REMARK    4  A    between atoms: P1_4  and  C1_5 
REMARK    5  A    between atoms: C1_5  and  C2_7 
REMARK    6  A    between atoms: C2_7  and  C3_8 
ROOT
HETATM    1  S1  UNL     1      25.006   4.151  50.179  1.00  0.00     0.068 S 
HETATM    2  O1  UNL     1      23.972   3.590  49.215  1.00  0.00    -0.245 OA
ENDROOT
BRANCH   1   3
HETATM    3  N1  UNL     1      24.235   5.085  51.411  1.00  0.00    -0.255 NA
HETATM    4  H1  UNL     1      23.431   5.618  51.024  1.00  0.00     0.133 HD
HETATM    5  H2  UNL     1      23.855   4.471  52.176  1.00  0.00     0.133 HD
ENDBRANCH   1   3
BRANCH   1   6
HETATM    6  P1  UNL     1      25.873   2.650  51.012  1.00  0.00     0.109 P 
BRANCH   6   7
HETATM    7  C1  UNL     1      25.314   2.053  52.681  1.00  0.00     0.175 C 
HETATM    8  O2  UNL     1      24.826   2.829  53.516  1.00  0.00    -0.291 OA
BRANCH   7   9
HETATM    9  C2  UNL     1      25.522   0.604  52.864  1.00  0.00     0.123 C 
BRANCH   9  10
HETATM   10  C3  UNL     1      26.875   0.197  53.229  1.00  0.00    -0.051 A 
HETATM   11  C4  UNL     1      27.771   0.925  53.953  1.00  0.00     0.010 A 
HETATM   12  C5  UNL     1      29.040   0.507  54.277  1.00  0.00     0.043 A 
HETATM   13  C6  UNL     1      29.478  -0.742  53.855  1.00  0.00     0.116 A 
HETATM   14  F1  UNL     1      30.678  -1.325  54.071  1.00  0.00    -0.206 F 
HETATM   15  C7  UNL     1      28.620  -1.531  53.118  1.00  0.00     0.043 A 
HETATM   16  C8  UNL     1      27.349  -1.058  52.819  1.00  0.00     0.010 A 
ENDBRANCH   9  10
ENDBRANCH   7   9
ENDBRANCH   6   7
ENDBRANCH   1   6
BRANCH   1  17
HETATM   17  C9  UNL     1      26.210   5.058  49.313  1.00  0.00     0.038 A 
HETATM   18  C10 UNL     1      25.938   6.353  48.911  1.00  0.00     0.021 A 
HETATM   19  C11 UNL     1      26.863   7.131  48.215  1.00  0.00     0.001 A 
HETATM   20  C12 UNL     1      28.075   6.509  47.954  1.00  0.00     0.000 A 
HETATM   21  C13 UNL     1      28.426   5.220  48.320  1.00  0.00     0.001 A 
HETATM   22  C14 UNL     1      27.450   4.526  49.006  1.00  0.00     0.021 A 
ENDBRANCH   1  17
TORSDOF 6
ENDMDL
MODEL 5
REMARK VINA RESULT:      -7.3      3.594      6.428
REMARK  6 active torsions:
REMARK  status: ('A' for Active; 'I' for Inactive)
REMARK    1  A    between atoms: N1_1  and  S1_2 
REMARK    2  A    between atoms: S1_2  and  P1_4 
REMARK    3  A    between atoms: S1_2  and  C9_15 
REMARK    4  A    between atoms: P1_4  and  C1_5 
REMARK    5  A    between atoms: C1_5  and  C2_7 
REMARK    6  A    between atoms: C2_7  and  C3_8 
ROOT
HETATM    1  S1  UNL     1      23.935   3.514  51.985  1.00  0.00     0.068 S 
HETATM    2  O1  UNL     1      22.542   4.113  51.872  1.00  0.00    -0.245 OA
ENDROOT
BRANCH   1   3
HETATM    3  N1  UNL     1      24.550   3.720  53.586  1.00  0.00    -0.255 NA
HETATM    4  H1  UNL     1      23.901   3.313  54.289  1.00  0.00     0.133 HD
HETATM    5  H2  UNL     1      25.475   3.234  53.707  1.00  0.00     0.133 HD
ENDBRANCH   1   3
BRANCH   1   6
HETATM    6  P1  UNL     1      23.766   1.629  51.642  1.00  0.00     0.109 P 
BRANCH   6   7
HETATM    7  C1  UNL     1      24.764   0.404  52.622  1.00  0.00     0.175 C 
HETATM    8  O2  UNL     1      24.286  -0.178  53.607  1.00  0.00    -0.291 OA
BRANCH   7   9
HETATM    9  C2  UNL     1      26.130   0.232  52.092  1.00  0.00     0.123 C 
BRANCH   9  10
HETATM   10  C3  UNL     1      27.209   0.709  52.951  1.00  0.00    -0.051 A 
HETATM   11  C4  UNL     1      27.855  -0.008  53.912  1.00  0.00     0.010 A 
HETATM   12  C5  UNL     1      28.870   0.477  54.703  1.00  0.00     0.043 A 
HETATM   13  C6  UNL     1      29.297   1.789  54.539  1.00  0.00     0.116 A 
HETATM   14  F1  UNL     1      30.270   2.441  55.212  1.00  0.00    -0.206 F 
HETATM   15  C7  UNL     1      28.686   2.570  53.581  1.00  0.00     0.043 A 
HETATM   16  C8  UNL     1      27.666   2.028  52.811  1.00  0.00     0.010 A 
ENDBRANCH   9  10
ENDBRANCH   7   9
ENDBRANCH   6   7
ENDBRANCH   1   6
BRANCH   1  17
HETATM   17  C9  UNL     1      24.984   4.191  50.777  1.00  0.00     0.038 A 
HETATM   18  C10 UNL     1      24.801   5.498  50.363  1.00  0.00     0.021 A 
HETATM   19  C11 UNL     1      25.611   6.098  49.398  1.00  0.00     0.001 A 
HETATM   20  C12 UNL     1      26.612   5.287  48.885  1.00  0.00     0.000 A 
HETATM   21  C13 UNL     1      26.861   3.972  49.244  1.00  0.00     0.001 A 
HETATM   22  C14 UNL     1      26.012   3.463  50.205  1.00  0.00     0.021 A 
ENDBRANCH   1  17
TORSDOF 6
ENDMDL
MODEL 6
REMARK VINA RESULT:      -7.3      3.599      5.926
REMARK  6 active torsions:
REMARK  status: ('A' for Active; 'I' for Inactive)
REMARK    1  A    between atoms: N1_1  and  S1_2 
REMARK    2  A    between atoms: S1_2  and  P1_4 
REMARK    3  A    between atoms: S1_2  and  C9_15 
REMARK    4  A    between atoms: P1_4  and  C1_5 
REMARK    5  A    between atoms: C1_5  and  C2_7 
REMARK    6  A    between atoms: C2_7  and  C3_8 
ROOT
HETATM    1  S1  UNL     1      25.423  -0.247  53.957  1.00  0.00     0.068 S 
HETATM    2  O1  UNL     1      26.184  -1.092  52.946  1.00  0.00    -0.245 OA
ENDROOT
BRANCH   1   3
HETATM    3  N1  UNL     1      25.729  -0.809  55.561  1.00  0.00    -0.255 NA
HETATM    4  H1  UNL     1      26.687  -1.206  55.640  1.00  0.00     0.133 HD
HETATM    5  H2  UNL     1      25.665  -0.027  56.261  1.00  0.00     0.133 HD
ENDBRANCH   1   3
BRANCH   1   6
HETATM    6  P1  UNL     1      26.095   1.549  53.808  1.00  0.00     0.109 P 
BRANCH   6   7
HETATM    7  C1  UNL     1      27.191   2.025  52.383  1.00  0.00     0.175 C 
HETATM    8  O2  UNL     1      28.323   2.496  52.567  1.00  0.00    -0.291 OA
BRANCH   7   9
HETATM    9  C2  UNL     1      26.558   1.775  51.074  1.00  0.00     0.123 C 
BRANCH   9  10
HETATM   10  C3  UNL     1      25.967   2.940  50.422  1.00  0.00    -0.051 A 
HETATM   11  C4  UNL     1      24.655   3.305  50.452  1.00  0.00     0.010 A 
HETATM   12  C5  UNL     1      24.135   4.412  49.824  1.00  0.00     0.043 A 
HETATM   13  C6  UNL     1      24.977   5.244  49.096  1.00  0.00     0.116 A 
HETATM   14  F1  UNL     1      24.658   6.367  48.416  1.00  0.00    -0.206 F 
HETATM   15  C7  UNL     1      26.318   4.932  49.026  1.00  0.00     0.043 A 
HETATM   16  C8  UNL     1      26.788   3.801  49.680  1.00  0.00     0.010 A 
ENDBRANCH   9  10
ENDBRANCH   7   9
ENDBRANCH   6   7
ENDBRANCH   1   6
BRANCH   1  17
HETATM   17  C9  UNL     1      23.729  -0.224  53.573  1.00  0.00     0.038 A 
HETATM   18  C10 UNL     1      22.835  -0.928  54.359  1.00  0.00     0.021 A 
HETATM   19  C11 UNL     1      21.465  -0.947  54.102  1.00  0.00     0.001 A 
HETATM   20  C12 UNL     1      21.064  -0.208  52.999  1.00  0.00     0.000 A 
HETATM   21  C13 UNL     1      21.891   0.522  52.162  1.00  0.00     0.001 A 
HETATM   22  C14 UNL     1      23.231   0.484  52.493  1.00  0.00     0.021 A 
ENDBRANCH   1  17
TORSDOF 6
ENDMDL
MODEL 7
REMARK VINA RESULT:      -7.2      2.806      5.884
REMARK  6 active torsions:
REMARK  status: ('A' for Active; 'I' for Inactive)
REMARK    1  A    between atoms: N1_1  and  S1_2 
REMARK    2  A    between atoms: S1_2  and  P1_4 
REMARK    3  A    between atoms: S1_2  and  C9_15 
REMARK    4  A    between atoms: P1_4  and  C1_5 
REMARK    5  A    between atoms: C1_5  and  C2_7 
REMARK    6  A    between atoms: C2_7  and  C3_8 
ROOT
HETATM    1  S1  UNL     1      22.830   2.298  52.053  1.00  0.00     0.068 S 
HETATM    2  O1  UNL     1      21.835   3.442  52.176  1.00  0.00    -0.245 OA
ENDROOT
BRANCH   1   3
HETATM    3  N1  UNL     1      23.033   1.853  50.396  1.00  0.00    -0.255 NA
HETATM    4  H1  UNL     1      23.991   2.083  50.065  1.00  0.00     0.133 HD
HETATM    5  H2  UNL     1      22.902   0.819  50.258  1.00  0.00     0.133 HD
ENDBRANCH   1   3
BRANCH   1   6
HETATM    6  P1  UNL     1      24.515   2.944  52.716  1.00  0.00     0.109 P 
BRANCH   6   7
HETATM    7  C1  UNL     1      26.105   2.418  51.907  1.00  0.00     0.175 C 
HETATM    8  O2  UNL     1      26.218   2.370  50.673  1.00  0.00    -0.291 OA
BRANCH   7   9
HETATM    9  C2  UNL     1      27.156   2.083  52.887  1.00  0.00     0.123 C 
BRANCH   9  10
HETATM   10  C3  UNL     1      27.533   0.676  52.958  1.00  0.00    -0.051 A 
HETATM   11  C4  UNL     1      26.761  -0.388  52.599  1.00  0.00     0.010 A 
HETATM   12  C5  UNL     1      27.153  -1.704  52.681  1.00  0.00     0.043 A 
HETATM   13  C6  UNL     1      28.420  -2.012  53.159  1.00  0.00     0.116 A 
HETATM   14  F1  UNL     1      28.983  -3.231  53.312  1.00  0.00    -0.206 F 
HETATM   15  C7  UNL     1      29.253  -0.981  53.540  1.00  0.00     0.043 A 
HETATM   16  C8  UNL     1      28.806   0.329  53.436  1.00  0.00     0.010 A 
ENDBRANCH   9  10
ENDBRANCH   7   9
ENDBRANCH   6   7
ENDBRANCH   1   6
BRANCH   1  17
HETATM   17  C9  UNL     1      22.336   0.959  53.045  1.00  0.00     0.038 A 
HETATM   18  C10 UNL     1      21.011   0.835  53.423  1.00  0.00     0.021 A 
HETATM   19  C11 UNL     1      20.555  -0.217  54.217  1.00  0.00     0.001 A 
HETATM   20  C12 UNL     1      21.527  -1.128  54.600  1.00  0.00     0.000 A 
HETATM   21  C13 UNL     1      22.871  -1.077  54.267  1.00  0.00     0.001 A 
HETATM   22  C14 UNL     1      23.231  -0.003  53.479  1.00  0.00     0.021 A 
ENDBRANCH   1  17
TORSDOF 6
ENDMDL
MODEL 8
REMARK VINA RESULT:      -7.2      4.207      5.885
REMARK  6 active torsions:
REMARK  status: ('A' for Active; 'I' for Inactive)
REMARK    1  A    between atoms: N1_1  and  S1_2 
REMARK    2  A    between atoms: S1_2  and  P1_4 
REMARK    3  A    between atoms: S1_2  and  C9_15 
REMARK    4  A    between atoms: P1_4  and  C1_5 
REMARK    5  A    between atoms: C1_5  and  C2_7 
REMARK    6  A    between atoms: C2_7  and  C3_8 
ROOT
HETATM    1  S1  UNL     1      27.397   1.747  53.008  1.00  0.00     0.068 S 
HETATM    2  O1  UNL     1      28.657   2.593  53.114  1.00  0.00    -0.245 OA
ENDROOT
BRANCH   1   3
HETATM    3  N1  UNL     1      26.292   2.153  54.271  1.00  0.00    -0.255 NA
HETATM    4  H1  UNL     1      26.794   2.542  55.094  1.00  0.00     0.133 HD
HETATM    5  H2  UNL     1      25.604   2.885  53.959  1.00  0.00     0.133 HD
ENDBRANCH   1   3
BRANCH   1   6
HETATM    6  P1  UNL     1      26.572   2.174  51.323  1.00  0.00     0.109 P 
BRANCH   6   7
HETATM    7  C1  UNL     1      25.079   3.280  51.265  1.00  0.00     0.175 C 
HETATM    8  O2  UNL     1      24.367   3.459  52.263  1.00  0.00    -0.291 OA
BRANCH   7   9
HETATM    9  C2  UNL     1      24.872   3.882  49.933  1.00  0.00     0.123 C 
BRANCH   9  10
HETATM   10  C3  UNL     1      25.598   5.122  49.678  1.00  0.00    -0.051 A 
HETATM   11  C4  UNL     1      25.330   6.342  50.221  1.00  0.00     0.010 A 
HETATM   12  C5  UNL     1      26.038   7.491  49.955  1.00  0.00     0.043 A 
HETATM   13  C6  UNL     1      27.111   7.445  49.074  1.00  0.00     0.116 A 
HETATM   14  F1  UNL     1      27.921   8.456  48.689  1.00  0.00    -0.206 F 
HETATM   15  C7  UNL     1      27.436   6.239  48.489  1.00  0.00     0.043 A 
HETATM   16  C8  UNL     1      26.687   5.111  48.794  1.00  0.00     0.010 A 
ENDBRANCH   9  10
ENDBRANCH   7   9
ENDBRANCH   6   7
ENDBRANCH   1   6
BRANCH   1  17
HETATM   17  C9  UNL     1      27.803   0.057  52.997  1.00  0.00     0.038 A 
HETATM   18  C10 UNL     1      26.881  -0.869  52.543  1.00  0.00     0.021 A 
HETATM   19  C11 UNL     1      27.149  -2.238  52.510  1.00  0.00     0.001 A 
HETATM   20  C12 UNL     1      28.407  -2.601  52.966  1.00  0.00     0.000 A 
HETATM   21  C13 UNL     1      29.385  -1.740  53.436  1.00  0.00     0.001 A 
HETATM   22  C14 UNL     1      29.033  -0.405  53.432  1.00  0.00     0.021 A 
ENDBRANCH   1  17
TORSDOF 6
ENDMDL
MODEL 9
REMARK VINA RESULT:      -7.2      3.330      6.407
REMARK  6 active torsions:
REMARK  status: ('A' for Active; 'I' for Inactive)
REMARK    1  A    between atoms: N1_1  and  S1_2 
REMARK    2  A    between atoms: S1_2  and  P1_4 
REMARK    3  A    between atoms: S1_2  and  C9_15 
REMARK    4  A    between atoms: P1_4  and  C1_5 
REMARK    5  A    between atoms: C1_5  and  C2_7 
REMARK    6  A    between atoms: C2_7  and  C3_8 
ROOT
HETATM    1  S1  UNL     1      24.240   3.702  51.371  1.00  0.00     0.068 S 
HETATM    2  O1  UNL     1      23.563   5.026  51.695  1.00  0.00    -0.245 OA
ENDROOT
BRANCH   1   3
HETATM    3  N1  UNL     1      25.846   3.973  50.795  1.00  0.00    -0.255 NA
HETATM    4  H1  UNL     1      26.371   3.079  50.724  1.00  0.00     0.133 HD
HETATM    5  H2  UNL     1      25.842   4.402  49.835  1.00  0.00     0.133 HD
ENDBRANCH   1   3
BRANCH   1   6
HETATM    6  P1  UNL     1      24.348   2.709  53.015  1.00  0.00     0.109 P 
BRANCH   6   7
HETATM    7  C1  UNL     1      24.872   0.926  53.000  1.00  0.00     0.175 C 
HETATM    8  O2  UNL     1      24.332   0.087  53.737  1.00  0.00    -0.291 OA
BRANCH   7   9
HETATM    9  C2  UNL     1      25.961   0.663  52.040  1.00  0.00     0.123 C 
BRANCH   9  10
HETATM   10  C3  UNL     1      27.223   0.215  52.618  1.00  0.00    -0.051 A 
HETATM   11  C4  UNL     1      28.204   1.008  53.133  1.00  0.00     0.010 A 
HETATM   12  C5  UNL     1      29.383   0.547  53.670  1.00  0.00     0.043 A 
HETATM   13  C6  UNL     1      29.629  -0.820  53.711  1.00  0.00     0.116 A 
HETATM   14  F1  UNL     1      30.715  -1.460  54.196  1.00  0.00    -0.206 F 
HETATM   15  C7  UNL     1      28.675  -1.679  53.207  1.00  0.00     0.043 A 
HETATM   16  C8  UNL     1      27.503  -1.159  52.676  1.00  0.00     0.010 A 
ENDBRANCH   9  10
ENDBRANCH   7   9
ENDBRANCH   6   7
ENDBRANCH   1   6
BRANCH   1  17
HETATM   17  C9  UNL     1      23.276   2.789  50.250  1.00  0.00     0.038 A 
HETATM   18  C10 UNL     1      23.364   3.052  48.895  1.00  0.00     0.021 A 
HETATM   19  C11 UNL     1      22.617   2.353  47.947  1.00  0.00     0.001 A 
HETATM   20  C12 UNL     1      21.780   1.375  48.463  1.00  0.00     0.000 A 
HETATM   21  C13 UNL     1      21.634   1.049  49.802  1.00  0.00     0.001 A 
HETATM   22  C14 UNL     1      22.412   1.792  50.667  1.00  0.00     0.021 A 
ENDBRANCH   1  17
TORSDOF 6
ENDMDL
