MODEL 1
REMARK VINA RESULT:      -6.6      0.000      0.000
REMARK  8 active torsions:
REMARK  status: ('A' for Active; 'I' for Inactive)
REMARK    1  A    between atoms: N1_2  and  C3_5 
REMARK    2  A    between atoms: C3_5  and  C4_6 
REMARK    3  A    between atoms: C5_7  and  N2_8 
REMARK    4  A    between atoms: N2_8  and  C6_9 
REMARK    5  A    between atoms: C6_9  and  C7_10 
REMARK    6  A    between atoms: C12_15  and  N3_16 
REMARK    7  A    between atoms: N3_16  and  C13_17 
REMARK    8  A    between atoms: C14_19  and  C15_20 
ROOT
HETATM    1  C1  UNL     1      29.105   6.522  48.000  1.00  0.00     0.151 C 
HETATM    2  N1  UNL     1      27.904   7.092  48.568  1.00  0.00    -0.371 N 
HETATM    3  C2  UNL     1      28.249   8.367  49.070  1.00  0.00     0.471 C 
HETATM    4  O1  UNL     1      28.652   9.482  49.484  1.00  0.00    -0.392 OA
ENDROOT
BRANCH   2   5
HETATM    5  C3  UNL     1      26.535   6.700  48.733  1.00  0.00     0.152 C 
BRANCH   5   6
HETATM    6  C4  UNL     1      26.425   5.277  49.114  1.00  0.00     0.009 C 
HETATM    7  C5  UNL     1      26.939   4.070  49.230  1.00  0.00     0.080 C 
BRANCH   7   8
HETATM    8  N2  UNL     1      26.397   2.829  49.716  1.00  0.00    -0.395 N 
HETATM    9  H9  UNL     1      25.875   2.234  49.027  1.00  0.00     0.159 HD
BRANCH   8  10
HETATM   10  C6  UNL     1      26.787   2.828  51.089  1.00  0.00     0.160 C 
BRANCH  10  11
HETATM   11  C7  UNL     1      26.293   1.695  51.885  1.00  0.00    -0.014 A 
HETATM   12  C8  UNL     1      26.756   0.398  51.760  1.00  0.00     0.011 A 
HETATM   13  C9  UNL     1      26.198  -0.562  52.579  1.00  0.00     0.001 A 
HETATM   14  C10 UNL     1      25.226  -0.319  53.499  1.00  0.00     0.002 A 
HETATM   15  C11 UNL     1      24.762   0.997  53.621  1.00  0.00     0.030 A 
HETATM   16  C12 UNL     1      25.310   1.992  52.803  1.00  0.00     0.041 A 
BRANCH  16  17
HETATM   17  N3  UNL     1      24.697   3.243  53.086  1.00  0.00    -0.339 N 
HETATM   18  H16 UNL     1      24.984   3.714  53.995  1.00  0.00     0.167 HD
BRANCH  17  19
HETATM   19  C13 UNL     1      23.755   3.869  52.241  1.00  0.00     0.154 A 
HETATM   20  N4  UNL     1      23.441   5.098  52.288  1.00  0.00    -0.242 NA
HETATM   21  C14 UNL     1      22.433   5.407  51.269  1.00  0.00     0.245 A 
HETATM   22  N5  UNL     1      22.196   4.169  50.592  1.00  0.00    -0.311 N 
HETATM   23  C16 UNL     1      21.506   3.568  49.619  1.00  0.00     0.211 A 
HETATM   24  C18 UNL     1      22.983   3.214  51.164  1.00  0.00     0.101 A 
HETATM   25  N6  UNL     1      21.860   2.270  49.590  1.00  0.00    -0.253 NA
HETATM   26  C17 UNL     1      22.783   2.014  50.547  1.00  0.00     0.151 A 
BRANCH  21  27
HETATM   27  C15 UNL     1      22.931   6.474  50.343  1.00  0.00     0.271 C 
HETATM   28  F1  UNL     1      23.221   7.618  51.018  1.00  0.00    -0.251 F 
ENDBRANCH  21  27
ENDBRANCH  17  19
ENDBRANCH  16  17
ENDBRANCH  10  11
ENDBRANCH   8  10
ENDBRANCH   7   8
ENDBRANCH   5   6
ENDBRANCH   2   5
TORSDOF 8
ENDMDL
MODEL 2
REMARK VINA RESULT:      -6.4      3.243      5.983
REMARK  8 active torsions:
REMARK  status: ('A' for Active; 'I' for Inactive)
REMARK    1  A    between atoms: N1_2  and  C3_5 
REMARK    2  A    between atoms: C3_5  and  C4_6 
REMARK    3  A    between atoms: C5_7  and  N2_8 
REMARK    4  A    between atoms: N2_8  and  C6_9 
REMARK    5  A    between atoms: C6_9  and  C7_10 
REMARK    6  A    between atoms: C12_15  and  N3_16 
REMARK    7  A    between atoms: N3_16  and  C13_17 
REMARK    8  A    between atoms: C14_19  and  C15_20 
ROOT
HETATM    1  C1  UNL     1      18.824  -0.153  51.869  1.00  0.00     0.151 C 
HETATM    2  N1  UNL     1      20.006   0.495  52.390  1.00  0.00    -0.371 N 
HETATM    3  C2  UNL     1      20.730   0.988  51.281  1.00  0.00     0.471 C 
HETATM    4  O1  UNL     1      21.300   1.386  50.235  1.00  0.00    -0.392 OA
ENDROOT
BRANCH   2   5
HETATM    5  C3  UNL     1      20.582   0.744  53.678  1.00  0.00     0.152 C 
BRANCH   5   6
HETATM    6  C4  UNL     1      21.968   0.238  53.754  1.00  0.00     0.009 C 
HETATM    7  C5  UNL     1      23.074  -0.190  53.180  1.00  0.00     0.080 C 
BRANCH   7   8
HETATM    8  N2  UNL     1      24.335  -0.631  53.716  1.00  0.00    -0.395 N 
HETATM    9  H9  UNL     1      24.317  -1.095  54.656  1.00  0.00     0.159 HD
BRANCH   8  10
HETATM   10  C6  UNL     1      25.262  -0.253  52.698  1.00  0.00     0.160 C 
BRANCH  10  11
HETATM   11  C7  UNL     1      26.448   0.479  53.163  1.00  0.00    -0.014 A 
HETATM   12  C8  UNL     1      27.116   0.206  54.343  1.00  0.00     0.011 A 
HETATM   13  C9  UNL     1      28.218   0.977  54.649  1.00  0.00     0.001 A 
HETATM   14  C10 UNL     1      28.690   1.986  53.868  1.00  0.00     0.002 A 
HETATM   15  C11 UNL     1      28.010   2.258  52.675  1.00  0.00     0.030 A 
HETATM   16  C12 UNL     1      26.889   1.491  52.340  1.00  0.00     0.041 A 
BRANCH  16  17
HETATM   17  N3  UNL     1      26.352   1.934  51.099  1.00  0.00    -0.339 N 
HETATM   18  H16 UNL     1      26.446   1.266  50.279  1.00  0.00     0.167 HD
BRANCH  17  19
HETATM   19  C13 UNL     1      25.717   3.182  50.916  1.00  0.00     0.154 A 
HETATM   20  N4  UNL     1      26.118   4.092  50.127  1.00  0.00    -0.242 NA
HETATM   21  C14 UNL     1      25.224   5.252  50.188  1.00  0.00     0.245 A 
HETATM   22  N5  UNL     1      24.212   4.894  51.133  1.00  0.00    -0.311 N 
HETATM   23  C16 UNL     1      23.100   5.298  51.752  1.00  0.00     0.211 A 
HETATM   24  C18 UNL     1      24.488   3.641  51.597  1.00  0.00     0.101 A 
HETATM   25  N6  UNL     1      22.696   4.316  52.579  1.00  0.00    -0.253 NA
HETATM   26  C17 UNL     1      23.545   3.263  52.507  1.00  0.00     0.151 A 
BRANCH  21  27
HETATM   27  C15 UNL     1      24.655   5.550  48.834  1.00  0.00     0.271 C 
HETATM   28  F1  UNL     1      23.967   4.487  48.342  1.00  0.00    -0.251 F 
ENDBRANCH  21  27
ENDBRANCH  17  19
ENDBRANCH  16  17
ENDBRANCH  10  11
ENDBRANCH   8  10
ENDBRANCH   7   8
ENDBRANCH   5   6
ENDBRANCH   2   5
TORSDOF 8
ENDMDL
MODEL 3
REMARK VINA RESULT:      -6.4      1.871      2.260
REMARK  8 active torsions:
REMARK  status: ('A' for Active; 'I' for Inactive)
REMARK    1  A    between atoms: N1_2  and  C3_5 
REMARK    2  A    between atoms: C3_5  and  C4_6 
REMARK    3  A    between atoms: C5_7  and  N2_8 
REMARK    4  A    between atoms: N2_8  and  C6_9 
REMARK    5  A    between atoms: C6_9  and  C7_10 
REMARK    6  A    between atoms: C12_15  and  N3_16 
REMARK    7  A    between atoms: N3_16  and  C13_17 
REMARK    8  A    between atoms: C14_19  and  C15_20 
ROOT
HETATM    1  C1  UNL     1      27.930   8.836  49.366  1.00  0.00     0.151 C 
HETATM    2  N1  UNL     1      28.923   8.047  48.674  1.00  0.00    -0.371 N 
HETATM    3  C2  UNL     1      30.187   8.553  49.049  1.00  0.00     0.471 C 
HETATM    4  O1  UNL     1      31.263   9.071  49.440  1.00  0.00    -0.392 OA
ENDROOT
BRANCH   2   5
HETATM    5  C3  UNL     1      28.933   6.944  47.759  1.00  0.00     0.152 C 
BRANCH   5   6
HETATM    6  C4  UNL     1      28.248   5.765  48.330  1.00  0.00     0.009 C 
HETATM    7  C5  UNL     1      27.156   5.145  48.727  1.00  0.00     0.080 C 
BRANCH   7   8
HETATM    8  N2  UNL     1      26.934   3.837  49.287  1.00  0.00    -0.395 N 
HETATM    9  H9  UNL     1      27.576   3.070  48.973  1.00  0.00     0.159 HD
BRANCH   8  10
HETATM   10  C6  UNL     1      25.820   4.049  50.153  1.00  0.00     0.160 C 
BRANCH  10  11
HETATM   11  C7  UNL     1      25.569   2.980  51.131  1.00  0.00    -0.014 A 
HETATM   12  C8  UNL     1      26.206   1.752  51.121  1.00  0.00     0.011 A 
HETATM   13  C9  UNL     1      25.868   0.848  52.105  1.00  0.00     0.001 A 
HETATM   14  C10 UNL     1      24.953   1.082  53.084  1.00  0.00     0.002 A 
HETATM   15  C11 UNL     1      24.311   2.327  53.089  1.00  0.00     0.030 A 
HETATM   16  C12 UNL     1      24.634   3.264  52.102  1.00  0.00     0.041 A 
BRANCH  16  17
HETATM   17  N3  UNL     1      23.869   4.449  52.289  1.00  0.00    -0.339 N 
HETATM   18  H16 UNL     1      24.255   5.155  52.983  1.00  0.00     0.167 HD
BRANCH  17  19
HETATM   19  C13 UNL     1      22.658   4.721  51.616  1.00  0.00     0.154 A 
HETATM   20  N4  UNL     1      22.515   5.587  50.700  1.00  0.00    -0.242 NA
HETATM   21  C14 UNL     1      21.129   5.604  50.224  1.00  0.00     0.245 A 
HETATM   22  N5  UNL     1      20.458   4.601  50.994  1.00  0.00    -0.311 N 
HETATM   23  C16 UNL     1      19.293   3.986  51.213  1.00  0.00     0.211 A 
HETATM   24  C18 UNL     1      21.362   4.049  51.852  1.00  0.00     0.101 A 
HETATM   25  N6  UNL     1      19.474   3.074  52.185  1.00  0.00    -0.253 NA
HETATM   26  C17 UNL     1      20.760   3.088  52.609  1.00  0.00     0.151 A 
BRANCH  21  27
HETATM   27  C15 UNL     1      21.073   5.323  48.754  1.00  0.00     0.271 C 
HETATM   28  F1  UNL     1      21.229   3.997  48.498  1.00  0.00    -0.251 F 
ENDBRANCH  21  27
ENDBRANCH  17  19
ENDBRANCH  16  17
ENDBRANCH  10  11
ENDBRANCH   8  10
ENDBRANCH   7   8
ENDBRANCH   5   6
ENDBRANCH   2   5
TORSDOF 8
ENDMDL
MODEL 4
REMARK VINA RESULT:      -6.3      1.222      2.123
REMARK  8 active torsions:
REMARK  status: ('A' for Active; 'I' for Inactive)
REMARK    1  A    between atoms: N1_2  and  C3_5 
REMARK    2  A    between atoms: C3_5  and  C4_6 
REMARK    3  A    between atoms: C5_7  and  N2_8 
REMARK    4  A    between atoms: N2_8  and  C6_9 
REMARK    5  A    between atoms: C6_9  and  C7_10 
REMARK    6  A    between atoms: C12_15  and  N3_16 
REMARK    7  A    between atoms: N3_16  and  C13_17 
REMARK    8  A    between atoms: C14_19  and  C15_20 
ROOT
HETATM    1  C1  UNL     1      29.257   6.551  47.970  1.00  0.00     0.151 C 
HETATM    2  N1  UNL     1      28.054   7.142  48.510  1.00  0.00    -0.371 N 
HETATM    3  C2  UNL     1      28.404   8.425  48.990  1.00  0.00     0.471 C 
HETATM    4  O1  UNL     1      28.810   9.545  49.386  1.00  0.00    -0.392 OA
ENDROOT
BRANCH   2   5
HETATM    5  C3  UNL     1      26.680   6.766  48.665  1.00  0.00     0.152 C 
BRANCH   5   6
HETATM    6  C4  UNL     1      26.550   5.337  49.017  1.00  0.00     0.009 C 
HETATM    7  C5  UNL     1      27.020   4.107  49.042  1.00  0.00     0.080 C 
BRANCH   7   8
HETATM    8  N2  UNL     1      26.481   2.874  49.552  1.00  0.00    -0.395 N 
HETATM    9  H9  UNL     1      26.054   2.217  48.854  1.00  0.00     0.159 HD
BRANCH   8  10
HETATM   10  C6  UNL     1      26.731   2.973  50.953  1.00  0.00     0.160 C 
BRANCH  10  11
HETATM   11  C7  UNL     1      26.071   1.957  51.786  1.00  0.00    -0.014 A 
HETATM   12  C8  UNL     1      26.473   0.636  51.865  1.00  0.00     0.011 A 
HETATM   13  C9  UNL     1      25.757  -0.203  52.692  1.00  0.00     0.001 A 
HETATM   14  C10 UNL     1      24.684   0.181  53.434  1.00  0.00     0.002 A 
HETATM   15  C11 UNL     1      24.282   1.519  53.351  1.00  0.00     0.030 A 
HETATM   16  C12 UNL     1      24.990   2.394  52.519  1.00  0.00     0.041 A 
BRANCH  16  17
HETATM   17  N3  UNL     1      24.415   3.693  52.580  1.00  0.00    -0.339 N 
HETATM   18  H16 UNL     1      24.610   4.254  53.461  1.00  0.00     0.167 HD
BRANCH  17  19
HETATM   19  C13 UNL     1      23.622   4.253  51.554  1.00  0.00     0.154 A 
HETATM   20  N4  UNL     1      22.803   3.606  50.834  1.00  0.00    -0.242 NA
HETATM   21  C14 UNL     1      22.152   4.500  49.871  1.00  0.00     0.245 A 
HETATM   22  N5  UNL     1      22.704   5.794  50.132  1.00  0.00    -0.311 N 
HETATM   23  C16 UNL     1      22.693   7.081  49.775  1.00  0.00     0.211 A 
HETATM   24  C18 UNL     1      23.604   5.675  51.148  1.00  0.00     0.101 A 
HETATM   25  N6  UNL     1      23.567   7.743  50.554  1.00  0.00    -0.253 NA
HETATM   26  C17 UNL     1      24.157   6.890  51.426  1.00  0.00     0.151 A 
BRANCH  21  27
HETATM   27  C15 UNL     1      20.665   4.471  50.047  1.00  0.00     0.271 C 
HETATM   28  F1  UNL     1      20.189   5.684  50.434  1.00  0.00    -0.251 F 
ENDBRANCH  21  27
ENDBRANCH  17  19
ENDBRANCH  16  17
ENDBRANCH  10  11
ENDBRANCH   8  10
ENDBRANCH   7   8
ENDBRANCH   5   6
ENDBRANCH   2   5
TORSDOF 8
ENDMDL
MODEL 5
REMARK VINA RESULT:      -6.3      3.541      6.237
REMARK  8 active torsions:
REMARK  status: ('A' for Active; 'I' for Inactive)
REMARK    1  A    between atoms: N1_2  and  C3_5 
REMARK    2  A    between atoms: C3_5  and  C4_6 
REMARK    3  A    between atoms: C5_7  and  N2_8 
REMARK    4  A    between atoms: N2_8  and  C6_9 
REMARK    5  A    between atoms: C6_9  and  C7_10 
REMARK    6  A    between atoms: C12_15  and  N3_16 
REMARK    7  A    between atoms: N3_16  and  C13_17 
REMARK    8  A    between atoms: C14_19  and  C15_20 
ROOT
HETATM    1  C1  UNL     1      17.603   0.976  49.907  1.00  0.00     0.151 C 
HETATM    2  N1  UNL     1      17.977   1.032  51.303  1.00  0.00    -0.371 N 
HETATM    3  C2  UNL     1      18.062   2.398  51.653  1.00  0.00     0.471 C 
HETATM    4  O1  UNL     1      18.113   3.634  51.868  1.00  0.00    -0.392 OA
ENDROOT
BRANCH   2   5
HETATM    5  C3  UNL     1      18.261   0.095  52.349  1.00  0.00     0.152 C 
BRANCH   5   6
HETATM    6  C4  UNL     1      19.706  -0.209  52.421  1.00  0.00     0.009 C 
HETATM    7  C5  UNL     1      20.946   0.138  52.699  1.00  0.00     0.080 C 
BRANCH   7   8
HETATM    8  N2  UNL     1      22.195  -0.571  52.603  1.00  0.00    -0.395 N 
HETATM    9  H9  UNL     1      22.241  -1.364  51.919  1.00  0.00     0.159 HD
BRANCH   8  10
HETATM   10  C6  UNL     1      23.016   0.104  53.556  1.00  0.00     0.160 C 
BRANCH  10  11
HETATM   11  C7  UNL     1      24.427   0.258  53.174  1.00  0.00    -0.014 A 
HETATM   12  C8  UNL     1      25.361  -0.762  53.220  1.00  0.00     0.011 A 
HETATM   13  C9  UNL     1      26.650  -0.467  52.829  1.00  0.00     0.001 A 
HETATM   14  C10 UNL     1      27.064   0.756  52.402  1.00  0.00     0.002 A 
HETATM   15  C11 UNL     1      26.115   1.784  52.359  1.00  0.00     0.030 A 
HETATM   16  C12 UNL     1      24.799   1.515  52.750  1.00  0.00     0.041 A 
BRANCH  16  17
HETATM   17  N3  UNL     1      24.008   2.691  52.633  1.00  0.00    -0.339 N 
HETATM   18  H16 UNL     1      23.567   3.054  53.529  1.00  0.00     0.167 HD
BRANCH  17  19
HETATM   19  C13 UNL     1      23.790   3.377  51.418  1.00  0.00     0.154 A 
HETATM   20  N4  UNL     1      24.176   4.560  51.173  1.00  0.00    -0.242 NA
HETATM   21  C14 UNL     1      23.780   4.956  49.818  1.00  0.00     0.245 A 
HETATM   22  N5  UNL     1      23.101   3.819  49.280  1.00  0.00    -0.311 N 
HETATM   23  C16 UNL     1      22.467   3.325  48.213  1.00  0.00     0.211 A 
HETATM   24  C18 UNL     1      23.087   2.843  50.232  1.00  0.00     0.101 A 
HETATM   25  N6  UNL     1      22.071   2.071  48.499  1.00  0.00    -0.253 NA
HETATM   26  C17 UNL     1      22.443   1.738  49.758  1.00  0.00     0.151 A 
BRANCH  21  27
HETATM   27  C15 UNL     1      24.982   5.336  49.008  1.00  0.00     0.271 C 
HETATM   28  F1  UNL     1      26.132   4.942  49.616  1.00  0.00    -0.251 F 
ENDBRANCH  21  27
ENDBRANCH  17  19
ENDBRANCH  16  17
ENDBRANCH  10  11
ENDBRANCH   8  10
ENDBRANCH   7   8
ENDBRANCH   5   6
ENDBRANCH   2   5
TORSDOF 8
ENDMDL
MODEL 6
REMARK VINA RESULT:      -6.3      2.695      3.434
REMARK  8 active torsions:
REMARK  status: ('A' for Active; 'I' for Inactive)
REMARK    1  A    between atoms: N1_2  and  C3_5 
REMARK    2  A    between atoms: C3_5  and  C4_6 
REMARK    3  A    between atoms: C5_7  and  N2_8 
REMARK    4  A    between atoms: N2_8  and  C6_9 
REMARK    5  A    between atoms: C6_9  and  C7_10 
REMARK    6  A    between atoms: C12_15  and  N3_16 
REMARK    7  A    between atoms: N3_16  and  C13_17 
REMARK    8  A    between atoms: C14_19  and  C15_20 
ROOT
HETATM    1  C1  UNL     1      22.505   5.419  48.231  1.00  0.00     0.151 C 
HETATM    2  N1  UNL     1      23.578   6.179  48.831  1.00  0.00    -0.371 N 
HETATM    3  C2  UNL     1      22.988   7.287  49.480  1.00  0.00     0.471 C 
HETATM    4  O1  UNL     1      22.372   8.237  50.024  1.00  0.00    -0.392 OA
ENDROOT
BRANCH   2   5
HETATM    5  C3  UNL     1      25.005   6.085  48.922  1.00  0.00     0.152 C 
BRANCH   5   6
HETATM    6  C4  UNL     1      25.429   4.734  49.345  1.00  0.00     0.009 C 
HETATM    7  C5  UNL     1      26.368   3.853  49.623  1.00  0.00     0.080 C 
BRANCH   7   8
HETATM    8  N2  UNL     1      26.312   2.481  50.054  1.00  0.00    -0.395 N 
HETATM    9  H9  UNL     1      26.076   1.763  49.327  1.00  0.00     0.159 HD
BRANCH   8  10
HETATM   10  C6  UNL     1      26.623   2.572  51.444  1.00  0.00     0.160 C 
BRANCH  10  11
HETATM   11  C7  UNL     1      26.402   1.344  52.222  1.00  0.00    -0.014 A 
HETATM   12  C8  UNL     1      27.333   0.329  52.352  1.00  0.00     0.011 A 
HETATM   13  C9  UNL     1      26.984  -0.764  53.118  1.00  0.00     0.001 A 
HETATM   14  C10 UNL     1      25.790  -0.910  53.752  1.00  0.00     0.002 A 
HETATM   15  C11 UNL     1      24.852   0.120  53.616  1.00  0.00     0.030 A 
HETATM   16  C12 UNL     1      25.178   1.242  52.845  1.00  0.00     0.041 A 
BRANCH  16  17
HETATM   17  N3  UNL     1      24.090   2.158  52.838  1.00  0.00    -0.339 N 
HETATM   18  H16 UNL     1      24.126   2.939  53.556  1.00  0.00     0.167 HD
BRANCH  17  19
HETATM   19  C13 UNL     1      22.999   2.078  51.945  1.00  0.00     0.154 A 
HETATM   20  N4  UNL     1      23.019   2.463  50.737  1.00  0.00    -0.242 NA
HETATM   21  C14 UNL     1      21.717   2.233  50.105  1.00  0.00     0.245 A 
HETATM   22  N5  UNL     1      20.908   1.638  51.123  1.00  0.00    -0.311 N 
HETATM   23  C16 UNL     1      19.702   1.142  51.414  1.00  0.00     0.211 A 
HETATM   24  C18 UNL     1      21.659   1.535  52.256  1.00  0.00     0.101 A 
HETATM   25  N6  UNL     1      19.709   0.740  52.698  1.00  0.00    -0.253 NA
HETATM   26  C17 UNL     1      20.921   0.973  53.256  1.00  0.00     0.151 A 
BRANCH  21  27
HETATM   27  C15 UNL     1      21.862   1.347  48.905  1.00  0.00     0.271 C 
HETATM   28  F1  UNL     1      20.861   1.560  48.011  1.00  0.00    -0.251 F 
ENDBRANCH  21  27
ENDBRANCH  17  19
ENDBRANCH  16  17
ENDBRANCH  10  11
ENDBRANCH   8  10
ENDBRANCH   7   8
ENDBRANCH   5   6
ENDBRANCH   2   5
TORSDOF 8
ENDMDL
MODEL 7
REMARK VINA RESULT:      -6.2      3.544      5.181
REMARK  8 active torsions:
REMARK  status: ('A' for Active; 'I' for Inactive)
REMARK    1  A    between atoms: N1_2  and  C3_5 
REMARK    2  A    between atoms: C3_5  and  C4_6 
REMARK    3  A    between atoms: C5_7  and  N2_8 
REMARK    4  A    between atoms: N2_8  and  C6_9 
REMARK    5  A    between atoms: C6_9  and  C7_10 
REMARK    6  A    between atoms: C12_15  and  N3_16 
REMARK    7  A    between atoms: N3_16  and  C13_17 
REMARK    8  A    between atoms: C14_19  and  C15_20 
ROOT
HETATM    1  C1  UNL     1      21.191   8.488  47.098  1.00  0.00     0.151 C 
HETATM    2  N1  UNL     1      21.861   8.720  48.358  1.00  0.00    -0.371 N 
HETATM    3  C2  UNL     1      20.861   8.769  49.354  1.00  0.00     0.471 C 
HETATM    4  O1  UNL     1      19.903   8.798  50.166  1.00  0.00    -0.392 OA
ENDROOT
BRANCH   2   5
HETATM    5  C3  UNL     1      23.209   8.898  48.810  1.00  0.00     0.152 C 
BRANCH   5   6
HETATM    6  C4  UNL     1      23.511   8.021  49.961  1.00  0.00     0.009 C 
HETATM    7  C5  UNL     1      24.169   7.759  51.071  1.00  0.00     0.080 C 
BRANCH   7   8
HETATM    8  N2  UNL     1      24.135   6.641  51.977  1.00  0.00    -0.395 N 
HETATM    9  H9  UNL     1      24.428   6.822  52.968  1.00  0.00     0.159 HD
BRANCH   8  10
HETATM   10  C6  UNL     1      23.674   5.575  51.147  1.00  0.00     0.160 C 
BRANCH  10  11
HETATM   11  C7  UNL     1      24.696   4.594  50.754  1.00  0.00    -0.014 A 
HETATM   12  C8  UNL     1      25.567   4.762  49.692  1.00  0.00     0.011 A 
HETATM   13  C9  UNL     1      26.475   3.755  49.443  1.00  0.00     0.001 A 
HETATM   14  C10 UNL     1      26.573   2.611  50.172  1.00  0.00     0.002 A 
HETATM   15  C11 UNL     1      25.690   2.446  51.246  1.00  0.00     0.030 A 
HETATM   16  C12 UNL     1      24.757   3.452  51.521  1.00  0.00     0.041 A 
BRANCH  16  17
HETATM   17  N3  UNL     1      23.962   3.083  52.641  1.00  0.00    -0.339 N 
HETATM   18  H16 UNL     1      24.043   3.701  53.501  1.00  0.00     0.167 HD
BRANCH  17  19
HETATM   19  C13 UNL     1      23.097   1.967  52.661  1.00  0.00     0.154 A 
HETATM   20  N4  UNL     1      23.237   0.953  53.411  1.00  0.00    -0.242 NA
HETATM   21  C14 UNL     1      22.161  -0.013  53.169  1.00  0.00     0.245 A 
HETATM   22  N5  UNL     1      21.343   0.584  52.159  1.00  0.00    -0.311 N 
HETATM   23  C16 UNL     1      20.253   0.433  51.402  1.00  0.00     0.211 A 
HETATM   24  C18 UNL     1      21.890   1.788  51.826  1.00  0.00     0.101 A 
HETATM   25  N6  UNL     1      20.128   1.521  50.620  1.00  0.00    -0.253 NA
HETATM   26  C17 UNL     1      21.139   2.390  50.860  1.00  0.00     0.151 A 
BRANCH  21  27
HETATM   27  C15 UNL     1      21.399  -0.281  54.431  1.00  0.00     0.271 C 
HETATM   28  F1  UNL     1      22.021  -1.219  55.193  1.00  0.00    -0.251 F 
ENDBRANCH  21  27
ENDBRANCH  17  19
ENDBRANCH  16  17
ENDBRANCH  10  11
ENDBRANCH   8  10
ENDBRANCH   7   8
ENDBRANCH   5   6
ENDBRANCH   2   5
TORSDOF 8
ENDMDL
MODEL 8
REMARK VINA RESULT:      -6.2      3.889      6.336
REMARK  8 active torsions:
REMARK  status: ('A' for Active; 'I' for Inactive)
REMARK    1  A    between atoms: N1_2  and  C3_5 
REMARK    2  A    between atoms: C3_5  and  C4_6 
REMARK    3  A    between atoms: C5_7  and  N2_8 
REMARK    4  A    between atoms: N2_8  and  C6_9 
REMARK    5  A    between atoms: C6_9  and  C7_10 
REMARK    6  A    between atoms: C12_15  and  N3_16 
REMARK    7  A    between atoms: N3_16  and  C13_17 
REMARK    8  A    between atoms: C14_19  and  C15_20 
ROOT
HETATM    1  C1  UNL     1      22.069   5.816  45.345  1.00  0.00     0.151 C 
HETATM    2  N1  UNL     1      22.157   4.666  46.217  1.00  0.00    -0.371 N 
HETATM    3  C2  UNL     1      22.598   5.135  47.475  1.00  0.00     0.471 C 
HETATM    4  O1  UNL     1      22.993   5.645  48.552  1.00  0.00    -0.392 OA
ENDROOT
BRANCH   2   5
HETATM    5  C3  UNL     1      21.917   3.257  46.119  1.00  0.00     0.152 C 
BRANCH   5   6
HETATM    6  C4  UNL     1      21.892   2.622  47.453  1.00  0.00     0.009 C 
HETATM    7  C5  UNL     1      21.413   1.733  48.300  1.00  0.00     0.080 C 
BRANCH   7   8
HETATM    8  N2  UNL     1      21.728   1.435  49.672  1.00  0.00    -0.395 N 
HETATM    9  H9  UNL     1      21.023   0.878  50.212  1.00  0.00     0.159 HD
BRANCH   8  10
HETATM   10  C6  UNL     1      23.004   2.053  49.846  1.00  0.00     0.160 C 
BRANCH  10  11
HETATM   11  C7  UNL     1      23.117   2.953  51.002  1.00  0.00    -0.014 A 
HETATM   12  C8  UNL     1      22.108   3.796  51.432  1.00  0.00     0.011 A 
HETATM   13  C9  UNL     1      22.359   4.584  52.535  1.00  0.00     0.001 A 
HETATM   14  C10 UNL     1      23.530   4.588  53.228  1.00  0.00     0.002 A 
HETATM   15  C11 UNL     1      24.547   3.733  52.787  1.00  0.00     0.030 A 
HETATM   16  C12 UNL     1      24.321   2.922  51.670  1.00  0.00     0.041 A 
BRANCH  16  17
HETATM   17  N3  UNL     1      25.478   2.141  51.395  1.00  0.00    -0.339 N 
HETATM   18  H16 UNL     1      25.925   2.280  50.441  1.00  0.00     0.167 HD
BRANCH  17  19
HETATM   19  C13 UNL     1      26.041   1.219  52.304  1.00  0.00     0.154 A 
HETATM   20  N4  UNL     1      25.604   0.047  52.514  1.00  0.00    -0.242 NA
HETATM   21  C14 UNL     1      26.428  -0.633  53.518  1.00  0.00     0.245 A 
HETATM   22  N5  UNL     1      27.438   0.314  53.875  1.00  0.00    -0.311 N 
HETATM   23  C16 UNL     1      28.512   0.534  54.638  1.00  0.00     0.211 A 
HETATM   24  C18 UNL     1      27.227   1.453  53.156  1.00  0.00     0.101 A 
HETATM   25  N6  UNL     1      28.955   1.781  54.394  1.00  0.00    -0.253 NA
HETATM   26  C17 UNL     1      28.171   2.385  53.470  1.00  0.00     0.151 A 
BRANCH  21  27
HETATM   27  C15 UNL     1      27.006  -1.897  52.959  1.00  0.00     0.271 C 
HETATM   28  F1  UNL     1      26.706  -2.035  51.640  1.00  0.00    -0.251 F 
ENDBRANCH  21  27
ENDBRANCH  17  19
ENDBRANCH  16  17
ENDBRANCH  10  11
ENDBRANCH   8  10
ENDBRANCH   7   8
ENDBRANCH   5   6
ENDBRANCH   2   5
TORSDOF 8
ENDMDL
MODEL 9
REMARK VINA RESULT:      -6.1      3.186      5.600
REMARK  8 active torsions:
REMARK  status: ('A' for Active; 'I' for Inactive)
REMARK    1  A    between atoms: N1_2  and  C3_5 
REMARK    2  A    between atoms: C3_5  and  C4_6 
REMARK    3  A    between atoms: C5_7  and  N2_8 
REMARK    4  A    between atoms: N2_8  and  C6_9 
REMARK    5  A    between atoms: C6_9  and  C7_10 
REMARK    6  A    between atoms: C12_15  and  N3_16 
REMARK    7  A    between atoms: N3_16  and  C13_17 
REMARK    8  A    between atoms: C14_19  and  C15_20 
ROOT
HETATM    1  C1  UNL     1      19.571   5.146  45.971  1.00  0.00     0.151 C 
HETATM    2  N1  UNL     1      20.889   4.587  45.769  1.00  0.00    -0.371 N 
HETATM    3  C2  UNL     1      20.882   3.961  44.502  1.00  0.00     0.471 C 
HETATM    4  O1  UNL     1      20.779   3.434  43.367  1.00  0.00    -0.392 OA
ENDROOT
BRANCH   2   5
HETATM    5  C3  UNL     1      22.121   4.520  46.497  1.00  0.00     0.152 C 
BRANCH   5   6
HETATM    6  C4  UNL     1      22.099   3.429  47.494  1.00  0.00     0.009 C 
HETATM    7  C5  UNL     1      21.947   2.160  47.813  1.00  0.00     0.080 C 
BRANCH   7   8
HETATM    8  N2  UNL     1      22.027   1.461  49.068  1.00  0.00    -0.395 N 
HETATM    9  H9  UNL     1      21.924   0.418  49.040  1.00  0.00     0.159 HD
BRANCH   8  10
HETATM   10  C6  UNL     1      22.238   2.516  50.006  1.00  0.00     0.160 C 
BRANCH  10  11
HETATM   11  C7  UNL     1      23.258   2.255  51.032  1.00  0.00    -0.014 A 
HETATM   12  C8  UNL     1      22.993   1.687  52.265  1.00  0.00     0.011 A 
HETATM   13  C9  UNL     1      24.054   1.500  53.125  1.00  0.00     0.001 A 
HETATM   14  C10 UNL     1      25.341   1.837  52.843  1.00  0.00     0.002 A 
HETATM   15  C11 UNL     1      25.604   2.411  51.593  1.00  0.00     0.030 A 
HETATM   16  C12 UNL     1      24.546   2.613  50.700  1.00  0.00     0.041 A 
BRANCH  16  17
HETATM   17  N3  UNL     1      25.030   3.207  49.502  1.00  0.00    -0.339 N 
HETATM   18  H16 UNL     1      25.254   2.544  48.703  1.00  0.00     0.167 HD
BRANCH  17  19
HETATM   19  C13 UNL     1      25.219   4.596  49.331  1.00  0.00     0.154 A 
HETATM   20  N4  UNL     1      24.322   5.477  49.501  1.00  0.00    -0.242 NA
HETATM   21  C14 UNL     1      24.863   6.814  49.238  1.00  0.00     0.245 A 
HETATM   22  N5  UNL     1      26.234   6.600  48.892  1.00  0.00    -0.311 N 
HETATM   23  C16 UNL     1      27.379   7.190  48.538  1.00  0.00     0.211 A 
HETATM   24  C18 UNL     1      26.480   5.260  48.936  1.00  0.00     0.101 A 
HETATM   25  N6  UNL     1      28.311   6.235  48.367  1.00  0.00    -0.253 NA
HETATM   26  C17 UNL     1      27.780   5.013  48.608  1.00  0.00     0.151 A 
BRANCH  21  27
HETATM   27  C15 UNL     1      24.712   7.690  50.444  1.00  0.00     0.271 C 
HETATM   28  F1  UNL     1      24.614   6.952  51.581  1.00  0.00    -0.251 F 
ENDBRANCH  21  27
ENDBRANCH  17  19
ENDBRANCH  16  17
ENDBRANCH  10  11
ENDBRANCH   8  10
ENDBRANCH   7   8
ENDBRANCH   5   6
ENDBRANCH   2   5
TORSDOF 8
ENDMDL
