MODEL 1
REMARK VINA RESULT:      -8.8      0.000      0.000
REMARK  8 active torsions:
REMARK  status: ('A' for Active; 'I' for Inactive)
REMARK    1  A    between atoms: O1_2  and  C2_3 
REMARK    2  A    between atoms: C7_8  and  N1_9 
REMARK    3  A    between atoms: N1_9  and  N2_10 
REMARK    4  A    between atoms: N2_10  and  C8_11 
REMARK    5  A    between atoms: N2_10  and  C14_18 
REMARK    6  A    between atoms: C8_11  and  C9_12 
REMARK    7  A    between atoms: C14_18  and  C15_19 
REMARK    8  A    between atoms: C21_25  and  O2_26 
ROOT
HETATM    1  N2  UNL     1      25.101   0.508  52.528  1.00  0.00    -0.223 NA
ENDROOT
BRANCH   1   2
HETATM    2  N1  UNL     1      26.326  -0.067  52.186  1.00  0.00    -0.316 N 
HETATM    3  H8  UNL     1      26.574  -0.258  51.166  1.00  0.00     0.181 HD
BRANCH   2   4
HETATM    4  C7  UNL     1      27.537  -0.582  52.671  1.00  0.00     0.076 A 
HETATM    5  C2  UNL     1      28.657   0.104  53.092  1.00  0.00     0.095 A 
HETATM    6  C3  UNL     1      29.769  -0.587  53.527  1.00  0.00     0.039 A 
HETATM    7  C4  UNL     1      29.726  -1.964  53.526  1.00  0.00     0.003 A 
HETATM    8  C5  UNL     1      28.650  -2.724  53.122  1.00  0.00     0.002 A 
HETATM    9  C6  UNL     1      27.545  -1.983  52.689  1.00  0.00     0.033 A 
BRANCH   5  10
HETATM   10  O1  UNL     1      28.557   1.486  53.039  1.00  0.00    -0.354 OA
HETATM   11  C1  UNL     1      29.029   2.242  54.112  1.00  0.00     0.210 C 
ENDBRANCH   5  10
ENDBRANCH   2   4
ENDBRANCH   1   2
BRANCH   1  12
HETATM   12  C8  UNL     1      24.729  -0.033  53.821  1.00  0.00     0.148 C 
BRANCH  12  13
HETATM   13  C9  UNL     1      23.300  -0.413  53.877  1.00  0.00    -0.059 A 
HETATM   14  C10 UNL     1      22.639  -1.130  54.755  1.00  0.00     0.007 A 
HETATM   15  C11 UNL     1      21.234  -1.280  54.462  1.00  0.00     0.038 A 
HETATM   16  C12 UNL     1      21.008  -0.618  53.335  1.00  0.00     0.098 A 
HETATM   17  F1  UNL     1      19.912  -0.401  52.579  1.00  0.00    -0.211 F 
HETATM   18  C13 UNL     1      22.282  -0.018  52.870  1.00  0.00     0.105 A 
ENDBRANCH  12  13
ENDBRANCH   1  12
BRANCH   1  19
HETATM   19  C14 UNL     1      25.172   1.951  52.651  1.00  0.00     0.155 C 
BRANCH  19  20
HETATM   20  C15 UNL     1      24.796   2.682  51.432  1.00  0.00    -0.010 A 
HETATM   21  C16 UNL     1      23.591   2.919  50.807  1.00  0.00     0.011 A 
HETATM   22  C17 UNL     1      23.524   3.649  49.643  1.00  0.00     0.001 A 
HETATM   23  C18 UNL     1      24.653   4.175  49.050  1.00  0.00     0.009 A 
HETATM   24  C19 UNL     1      25.872   3.954  49.653  1.00  0.00    -0.028 A 
HETATM   25  C20 UNL     1      27.045   4.548  48.962  1.00  0.00     0.051 C 
HETATM   26  C21 UNL     1      25.947   3.211  50.838  1.00  0.00     0.079 A 
BRANCH  26  27
HETATM   27  O2  UNL     1      27.268   3.099  51.289  1.00  0.00    -0.360 OA
HETATM   28  H23 UNL     1      27.421   3.202  52.270  1.00  0.00     0.217 HD
ENDBRANCH  26  27
ENDBRANCH  19  20
ENDBRANCH   1  19
TORSDOF 8
ENDMDL
MODEL 2
REMARK VINA RESULT:      -8.4      2.529      6.674
REMARK  8 active torsions:
REMARK  status: ('A' for Active; 'I' for Inactive)
REMARK    1  A    between atoms: O1_2  and  C2_3 
REMARK    2  A    between atoms: C7_8  and  N1_9 
REMARK    3  A    between atoms: N1_9  and  N2_10 
REMARK    4  A    between atoms: N2_10  and  C8_11 
REMARK    5  A    between atoms: N2_10  and  C14_18 
REMARK    6  A    between atoms: C8_11  and  C9_12 
REMARK    7  A    between atoms: C14_18  and  C15_19 
REMARK    8  A    between atoms: C21_25  and  O2_26 
ROOT
HETATM    1  N2  UNL     1      25.265   1.295  52.570  1.00  0.00    -0.223 NA
ENDROOT
BRANCH   1   2
HETATM    2  N1  UNL     1      24.230   0.364  52.482  1.00  0.00    -0.316 N 
HETATM    3  H8  UNL     1      24.359  -0.548  51.944  1.00  0.00     0.181 HD
BRANCH   2   4
HETATM    4  C7  UNL     1      22.905   0.072  52.837  1.00  0.00     0.076 A 
HETATM    5  C2  UNL     1      21.749   0.316  52.124  1.00  0.00     0.095 A 
HETATM    6  C3  UNL     1      20.523  -0.035  52.651  1.00  0.00     0.039 A 
HETATM    7  C4  UNL     1      20.491  -0.628  53.895  1.00  0.00     0.003 A 
HETATM    8  C5  UNL     1      21.596  -0.906  54.671  1.00  0.00     0.002 A 
HETATM    9  C6  UNL     1      22.817  -0.533  54.097  1.00  0.00     0.033 A 
BRANCH   5  10
HETATM   10  O1  UNL     1      21.933   0.917  50.888  1.00  0.00    -0.354 OA
HETATM   11  C1  UNL     1      21.382   2.176  50.656  1.00  0.00     0.210 C 
ENDBRANCH   5  10
ENDBRANCH   2   4
ENDBRANCH   1   2
BRANCH   1  12
HETATM   12  C8  UNL     1      24.664   2.607  52.434  1.00  0.00     0.148 C 
BRANCH  12  13
HETATM   13  C9  UNL     1      25.136   3.316  51.224  1.00  0.00    -0.059 A 
HETATM   14  C10 UNL     1      24.550   4.227  50.483  1.00  0.00     0.007 A 
HETATM   15  C11 UNL     1      25.343   4.685  49.368  1.00  0.00     0.038 A 
HETATM   16  C12 UNL     1      26.489   4.019  49.418  1.00  0.00     0.098 A 
HETATM   17  F1  UNL     1      27.605   4.015  48.659  1.00  0.00    -0.211 F 
HETATM   18  C13 UNL     1      26.460   3.103  50.584  1.00  0.00     0.105 A 
ENDBRANCH  12  13
ENDBRANCH   1  12
BRANCH   1  19
HETATM   19  C14 UNL     1      25.957   1.249  53.844  1.00  0.00     0.155 C 
BRANCH  19  20
HETATM   20  C15 UNL     1      27.380   0.895  53.748  1.00  0.00    -0.010 A 
HETATM   21  C16 UNL     1      28.543   1.630  53.811  1.00  0.00     0.011 A 
HETATM   22  C17 UNL     1      29.774   1.030  53.681  1.00  0.00     0.001 A 
HETATM   23  C18 UNL     1      29.901  -0.329  53.484  1.00  0.00     0.009 A 
HETATM   24  C19 UNL     1      28.755  -1.091  53.417  1.00  0.00    -0.028 A 
HETATM   25  C20 UNL     1      28.965  -2.545  53.203  1.00  0.00     0.051 C 
HETATM   26  C21 UNL     1      27.499  -0.485  53.547  1.00  0.00     0.079 A 
BRANCH  26  27
HETATM   27  O2  UNL     1      26.466  -1.425  53.450  1.00  0.00    -0.360 OA
HETATM   28  H23 UNL     1      26.358  -1.890  52.574  1.00  0.00     0.217 HD
ENDBRANCH  26  27
ENDBRANCH  19  20
ENDBRANCH   1  19
TORSDOF 8
ENDMDL
MODEL 3
REMARK VINA RESULT:      -8.3      2.776      6.435
REMARK  8 active torsions:
REMARK  status: ('A' for Active; 'I' for Inactive)
REMARK    1  A    between atoms: O1_2  and  C2_3 
REMARK    2  A    between atoms: C7_8  and  N1_9 
REMARK    3  A    between atoms: N1_9  and  N2_10 
REMARK    4  A    between atoms: N2_10  and  C8_11 
REMARK    5  A    between atoms: N2_10  and  C14_18 
REMARK    6  A    between atoms: C8_11  and  C9_12 
REMARK    7  A    between atoms: C14_18  and  C15_19 
REMARK    8  A    between atoms: C21_25  and  O2_26 
ROOT
HETATM    1  N2  UNL     1      25.607   1.600  51.920  1.00  0.00    -0.223 NA
ENDROOT
BRANCH   1   2
HETATM    2  N1  UNL     1      25.475   2.398  50.784  1.00  0.00    -0.316 N 
HETATM    3  H8  UNL     1      25.033   2.011  49.893  1.00  0.00     0.181 HD
BRANCH   2   4
HETATM    4  C7  UNL     1      25.712   3.662  50.225  1.00  0.00     0.076 A 
HETATM    5  C2  UNL     1      24.968   4.816  50.359  1.00  0.00     0.095 A 
HETATM    6  C3  UNL     1      25.359   5.970  49.713  1.00  0.00     0.039 A 
HETATM    7  C4  UNL     1      26.499   5.935  48.940  1.00  0.00     0.003 A 
HETATM    8  C5  UNL     1      27.297   4.826  48.754  1.00  0.00     0.002 A 
HETATM    9  C6  UNL     1      26.864   3.678  49.427  1.00  0.00     0.033 A 
BRANCH   5  10
HETATM   10  O1  UNL     1      23.846   4.705  51.167  1.00  0.00    -0.354 OA
HETATM   11  C1  UNL     1      23.073   5.838  51.414  1.00  0.00     0.210 C 
ENDBRANCH   5  10
ENDBRANCH   2   4
ENDBRANCH   1   2
BRANCH   1  12
HETATM   12  C8  UNL     1      26.928   1.857  52.463  1.00  0.00     0.148 C 
BRANCH  12  13
HETATM   13  C9  UNL     1      27.644   0.608  52.805  1.00  0.00    -0.059 A 
HETATM   14  C10 UNL     1      27.271  -0.646  52.706  1.00  0.00     0.007 A 
HETATM   15  C11 UNL     1      28.263  -1.597  53.146  1.00  0.00     0.038 A 
HETATM   16  C12 UNL     1      29.315  -0.893  53.542  1.00  0.00     0.098 A 
HETATM   17  F1  UNL     1      30.524  -1.217  54.045  1.00  0.00    -0.211 F 
HETATM   18  C13 UNL     1      29.019   0.549  53.364  1.00  0.00     0.105 A 
ENDBRANCH  12  13
ENDBRANCH   1  12
BRANCH   1  19
HETATM   19  C14 UNL     1      24.633   1.915  52.947  1.00  0.00     0.155 C 
BRANCH  19  20
HETATM   20  C15 UNL     1      23.611   0.879  53.151  1.00  0.00    -0.010 A 
HETATM   21  C16 UNL     1      23.514  -0.196  54.007  1.00  0.00     0.011 A 
HETATM   22  C17 UNL     1      22.421  -1.031  53.981  1.00  0.00     0.001 A 
HETATM   23  C18 UNL     1      21.376  -0.832  53.102  1.00  0.00     0.009 A 
HETATM   24  C19 UNL     1      21.446   0.235  52.234  1.00  0.00    -0.028 A 
HETATM   25  C20 UNL     1      20.288   0.390  51.316  1.00  0.00     0.051 C 
HETATM   26  C21 UNL     1      22.556   1.088  52.255  1.00  0.00     0.079 A 
BRANCH  26  27
HETATM   27  O2  UNL     1      22.438   2.106  51.301  1.00  0.00    -0.360 OA
HETATM   28  H23 UNL     1      22.791   3.005  51.552  1.00  0.00     0.217 HD
ENDBRANCH  26  27
ENDBRANCH  19  20
ENDBRANCH   1  19
TORSDOF 8
ENDMDL
MODEL 4
REMARK VINA RESULT:      -8.2      2.975      5.733
REMARK  8 active torsions:
REMARK  status: ('A' for Active; 'I' for Inactive)
REMARK    1  A    between atoms: O1_2  and  C2_3 
REMARK    2  A    between atoms: C7_8  and  N1_9 
REMARK    3  A    between atoms: N1_9  and  N2_10 
REMARK    4  A    between atoms: N2_10  and  C8_11 
REMARK    5  A    between atoms: N2_10  and  C14_18 
REMARK    6  A    between atoms: C8_11  and  C9_12 
REMARK    7  A    between atoms: C14_18  and  C15_19 
REMARK    8  A    between atoms: C21_25  and  O2_26 
ROOT
HETATM    1  N2  UNL     1      25.892   2.554  51.781  1.00  0.00    -0.223 NA
ENDROOT
BRANCH   1   2
HETATM    2  N1  UNL     1      24.869   2.258  52.682  1.00  0.00    -0.316 N 
HETATM    3  H8  UNL     1      24.876   2.664  53.669  1.00  0.00     0.181 HD
BRANCH   2   4
HETATM    4  C7  UNL     1      23.674   1.553  52.884  1.00  0.00     0.076 A 
HETATM    5  C2  UNL     1      22.381   1.955  52.617  1.00  0.00     0.095 A 
HETATM    6  C3  UNL     1      21.323   1.117  52.901  1.00  0.00     0.039 A 
HETATM    7  C4  UNL     1      21.593  -0.116  53.451  1.00  0.00     0.003 A 
HETATM    8  C5  UNL     1      22.852  -0.594  53.749  1.00  0.00     0.002 A 
HETATM    9  C6  UNL     1      23.895   0.289  53.445  1.00  0.00     0.033 A 
BRANCH   5  10
HETATM   10  O1  UNL     1      22.259   3.221  52.062  1.00  0.00    -0.354 OA
HETATM   11  C1  UNL     1      21.139   3.517  51.287  1.00  0.00     0.210 C 
ENDBRANCH   5  10
ENDBRANCH   2   4
ENDBRANCH   1   2
BRANCH   1  12
HETATM   12  C8  UNL     1      26.723   1.369  51.685  1.00  0.00     0.148 C 
BRANCH  12  13
HETATM   13  C9  UNL     1      27.630   1.227  52.846  1.00  0.00    -0.059 A 
HETATM   14  C10 UNL     1      27.849   0.206  53.641  1.00  0.00     0.007 A 
HETATM   15  C11 UNL     1      28.822   0.458  54.676  1.00  0.00     0.038 A 
HETATM   16  C12 UNL     1      29.233   1.709  54.516  1.00  0.00     0.098 A 
HETATM   17  F1  UNL     1      30.116   2.496  55.164  1.00  0.00    -0.211 F 
HETATM   18  C13 UNL     1      28.521   2.300  53.357  1.00  0.00     0.105 A 
ENDBRANCH  12  13
ENDBRANCH   1  12
BRANCH   1  19
HETATM   19  C14 UNL     1      25.400   2.863  50.452  1.00  0.00     0.155 C 
BRANCH  19  20
HETATM   20  C15 UNL     1      25.986   4.071  49.856  1.00  0.00    -0.010 A 
HETATM   21  C16 UNL     1      27.010   4.279  48.957  1.00  0.00     0.011 A 
HETATM   22  C17 UNL     1      27.366   5.549  48.564  1.00  0.00     0.001 A 
HETATM   23  C18 UNL     1      26.718   6.667  49.047  1.00  0.00     0.009 A 
HETATM   24  C19 UNL     1      25.690   6.489  49.947  1.00  0.00    -0.028 A 
HETATM   25  C20 UNL     1      25.037   7.734  50.426  1.00  0.00     0.051 C 
HETATM   26  C21 UNL     1      25.324   5.200  50.352  1.00  0.00     0.079 A 
BRANCH  26  27
HETATM   27  O2  UNL     1      24.264   5.232  51.266  1.00  0.00    -0.360 OA
HETATM   28  H23 UNL     1      23.516   4.589  51.115  1.00  0.00     0.217 HD
ENDBRANCH  26  27
ENDBRANCH  19  20
ENDBRANCH   1  19
TORSDOF 8
ENDMDL
MODEL 5
REMARK VINA RESULT:      -8.1      1.987      5.820
REMARK  8 active torsions:
REMARK  status: ('A' for Active; 'I' for Inactive)
REMARK    1  A    between atoms: O1_2  and  C2_3 
REMARK    2  A    between atoms: C7_8  and  N1_9 
REMARK    3  A    between atoms: N1_9  and  N2_10 
REMARK    4  A    between atoms: N2_10  and  C8_11 
REMARK    5  A    between atoms: N2_10  and  C14_18 
REMARK    6  A    between atoms: C8_11  and  C9_12 
REMARK    7  A    between atoms: C14_18  and  C15_19 
REMARK    8  A    between atoms: C21_25  and  O2_26 
ROOT
HETATM    1  N2  UNL     1      24.943   1.916  52.238  1.00  0.00    -0.223 NA
ENDROOT
BRANCH   1   2
HETATM    2  N1  UNL     1      24.854   3.285  51.986  1.00  0.00    -0.316 N 
HETATM    3  H8  UNL     1      25.050   3.996  52.756  1.00  0.00     0.181 HD
BRANCH   2   4
HETATM    4  C7  UNL     1      24.570   4.268  51.027  1.00  0.00     0.076 A 
HETATM    5  C2  UNL     1      23.452   5.070  50.921  1.00  0.00     0.095 A 
HETATM    6  C3  UNL     1      23.347   5.979  49.888  1.00  0.00     0.039 A 
HETATM    7  C4  UNL     1      24.379   6.058  48.979  1.00  0.00     0.003 A 
HETATM    8  C5  UNL     1      25.527   5.296  49.012  1.00  0.00     0.002 A 
HETATM    9  C6  UNL     1      25.591   4.388  50.075  1.00  0.00     0.033 A 
BRANCH   5  10
HETATM   10  O1  UNL     1      22.495   4.882  51.907  1.00  0.00    -0.354 OA
HETATM   11  C1  UNL     1      21.328   4.184  51.595  1.00  0.00     0.210 C 
ENDBRANCH   5  10
ENDBRANCH   2   4
ENDBRANCH   1   2
BRANCH   1  12
HETATM   12  C8  UNL     1      23.688   1.327  51.810  1.00  0.00     0.148 C 
BRANCH  12  13
HETATM   13  C9  UNL     1      23.013   0.595  52.905  1.00  0.00    -0.059 A 
HETATM   14  C10 UNL     1      21.795   0.702  53.381  1.00  0.00     0.007 A 
HETATM   15  C11 UNL     1      21.501  -0.200  54.468  1.00  0.00     0.038 A 
HETATM   16  C12 UNL     1      22.602  -0.909  54.681  1.00  0.00     0.098 A 
HETATM   17  F1  UNL     1      22.933  -1.888  55.548  1.00  0.00    -0.211 F 
HETATM   18  C13 UNL     1      23.645  -0.473  53.721  1.00  0.00     0.105 A 
ENDBRANCH  12  13
ENDBRANCH   1  12
BRANCH   1  19
HETATM   19  C14 UNL     1      26.013   1.275  51.497  1.00  0.00     0.155 C 
BRANCH  19  20
HETATM   20  C15 UNL     1      27.001   0.585  52.336  1.00  0.00    -0.010 A 
HETATM   21  C16 UNL     1      27.233  -0.741  52.626  1.00  0.00     0.011 A 
HETATM   22  C17 UNL     1      28.250  -1.120  53.472  1.00  0.00     0.001 A 
HETATM   23  C18 UNL     1      29.082  -0.193  54.065  1.00  0.00     0.009 A 
HETATM   24  C19 UNL     1      28.875   1.142  53.794  1.00  0.00    -0.028 A 
HETATM   25  C20 UNL     1      29.806   2.083  54.466  1.00  0.00     0.051 C 
HETATM   26  C21 UNL     1      27.841   1.532  52.935  1.00  0.00     0.079 A 
BRANCH  26  27
HETATM   27  O2  UNL     1      27.794   2.924  52.789  1.00  0.00    -0.360 OA
HETATM   28  H23 UNL     1      28.601   3.436  53.079  1.00  0.00     0.217 HD
ENDBRANCH  26  27
ENDBRANCH  19  20
ENDBRANCH   1  19
TORSDOF 8
ENDMDL
MODEL 6
REMARK VINA RESULT:      -7.9      2.758      5.491
REMARK  8 active torsions:
REMARK  status: ('A' for Active; 'I' for Inactive)
REMARK    1  A    between atoms: O1_2  and  C2_3 
REMARK    2  A    between atoms: C7_8  and  N1_9 
REMARK    3  A    between atoms: N1_9  and  N2_10 
REMARK    4  A    between atoms: N2_10  and  C8_11 
REMARK    5  A    between atoms: N2_10  and  C14_18 
REMARK    6  A    between atoms: C8_11  and  C9_12 
REMARK    7  A    between atoms: C14_18  and  C15_19 
REMARK    8  A    between atoms: C21_25  and  O2_26 
ROOT
HETATM    1  N2  UNL     1      25.279   2.112  52.125  1.00  0.00    -0.223 NA
ENDROOT
BRANCH   1   2
HETATM    2  N1  UNL     1      24.289   1.726  53.028  1.00  0.00    -0.316 N 
HETATM    3  H8  UNL     1      24.143   2.259  53.940  1.00  0.00     0.181 HD
BRANCH   2   4
HETATM    4  C7  UNL     1      23.265   0.806  53.297  1.00  0.00     0.076 A 
HETATM    5  C2  UNL     1      23.354  -0.427  53.910  1.00  0.00     0.095 A 
HETATM    6  C3  UNL     1      22.225  -1.202  54.074  1.00  0.00     0.039 A 
HETATM    7  C4  UNL     1      21.022  -0.713  53.614  1.00  0.00     0.003 A 
HETATM    8  C5  UNL     1      20.847   0.505  52.992  1.00  0.00     0.002 A 
HETATM    9  C6  UNL     1      22.018   1.257  52.846  1.00  0.00     0.033 A 
BRANCH   5  10
HETATM   10  O1  UNL     1      24.628  -0.790  54.324  1.00  0.00    -0.354 OA
HETATM   11  C1  UNL     1      24.839  -1.113  55.663  1.00  0.00     0.210 C 
ENDBRANCH   5  10
ENDBRANCH   2   4
ENDBRANCH   1   2
BRANCH   1  12
HETATM   12  C8  UNL     1      26.113   0.948  51.892  1.00  0.00     0.148 C 
BRANCH  12  13
HETATM   13  C9  UNL     1      27.303   0.929  52.772  1.00  0.00    -0.059 A 
HETATM   14  C10 UNL     1      27.989  -0.077  53.262  1.00  0.00     0.007 A 
HETATM   15  C11 UNL     1      29.103   0.313  54.091  1.00  0.00     0.038 A 
HETATM   16  C12 UNL     1      29.111   1.639  54.120  1.00  0.00     0.098 A 
HETATM   17  F1  UNL     1      29.896   2.559  54.717  1.00  0.00    -0.211 F 
HETATM   18  C13 UNL     1      27.984   2.141  53.297  1.00  0.00     0.105 A 
ENDBRANCH  12  13
ENDBRANCH   1  12
BRANCH   1  19
HETATM   19  C14 UNL     1      24.741   2.539  50.847  1.00  0.00     0.155 C 
BRANCH  19  20
HETATM   20  C15 UNL     1      25.525   3.587  50.180  1.00  0.00    -0.010 A 
HETATM   21  C16 UNL     1      26.642   3.563  49.375  1.00  0.00     0.011 A 
HETATM   22  C17 UNL     1      27.188   4.724  48.877  1.00  0.00     0.001 A 
HETATM   23  C18 UNL     1      26.644   5.960  49.159  1.00  0.00     0.009 A 
HETATM   24  C19 UNL     1      25.525   6.015  49.962  1.00  0.00    -0.028 A 
HETATM   25  C20 UNL     1      24.993   7.377  50.224  1.00  0.00     0.051 C 
HETATM   26  C21 UNL     1      24.967   4.837  50.471  1.00  0.00     0.079 A 
BRANCH  26  27
HETATM   27  O2  UNL     1      23.842   5.105  51.261  1.00  0.00    -0.360 OA
HETATM   28  H23 UNL     1      23.145   5.702  50.868  1.00  0.00     0.217 HD
ENDBRANCH  26  27
ENDBRANCH  19  20
ENDBRANCH   1  19
TORSDOF 8
ENDMDL
MODEL 7
REMARK VINA RESULT:      -7.8      2.948      6.843
REMARK  8 active torsions:
REMARK  status: ('A' for Active; 'I' for Inactive)
REMARK    1  A    between atoms: O1_2  and  C2_3 
REMARK    2  A    between atoms: C7_8  and  N1_9 
REMARK    3  A    between atoms: N1_9  and  N2_10 
REMARK    4  A    between atoms: N2_10  and  C8_11 
REMARK    5  A    between atoms: N2_10  and  C14_18 
REMARK    6  A    between atoms: C8_11  and  C9_12 
REMARK    7  A    between atoms: C14_18  and  C15_19 
REMARK    8  A    between atoms: C21_25  and  O2_26 
ROOT
HETATM    1  N2  UNL     1      24.190   2.359  51.853  1.00  0.00    -0.223 NA
ENDROOT
BRANCH   1   2
HETATM    2  N1  UNL     1      22.861   1.954  51.983  1.00  0.00    -0.316 N 
HETATM    3  H8  UNL     1      22.091   2.413  51.405  1.00  0.00     0.181 HD
BRANCH   2   4
HETATM    4  C7  UNL     1      21.975   1.089  52.642  1.00  0.00     0.076 A 
HETATM    5  C2  UNL     1      20.686   1.338  53.067  1.00  0.00     0.095 A 
HETATM    6  C3  UNL     1      19.971   0.354  53.718  1.00  0.00     0.039 A 
HETATM    7  C4  UNL     1      20.575  -0.866  53.927  1.00  0.00     0.003 A 
HETATM    8  C5  UNL     1      21.855  -1.195  53.536  1.00  0.00     0.002 A 
HETATM    9  C6  UNL     1      22.544  -0.169  52.880  1.00  0.00     0.033 A 
BRANCH   5  10
HETATM   10  O1  UNL     1      20.207   2.609  52.788  1.00  0.00    -0.354 OA
HETATM   11  C1  UNL     1      19.159   2.755  51.880  1.00  0.00     0.210 C 
ENDBRANCH   5  10
ENDBRANCH   2   4
ENDBRANCH   1   2
BRANCH   1  12
HETATM   12  C8  UNL     1      24.168   3.766  51.501  1.00  0.00     0.148 C 
BRANCH  12  13
HETATM   13  C9  UNL     1      25.219   4.112  50.518  1.00  0.00    -0.059 A 
HETATM   14  C10 UNL     1      26.284   3.447  50.136  1.00  0.00     0.007 A 
HETATM   15  C11 UNL     1      27.079   4.124  49.140  1.00  0.00     0.038 A 
HETATM   16  C12 UNL     1      26.475   5.277  48.889  1.00  0.00     0.098 A 
HETATM   17  F1  UNL     1      26.738   6.316  48.069  1.00  0.00    -0.211 F 
HETATM   18  C13 UNL     1      25.257   5.371  49.731  1.00  0.00     0.105 A 
ENDBRANCH  12  13
ENDBRANCH   1  12
BRANCH   1  19
HETATM   19  C14 UNL     1      24.944   2.219  53.084  1.00  0.00     0.155 C 
BRANCH  19  20
HETATM   20  C15 UNL     1      25.954   1.152  53.057  1.00  0.00    -0.010 A 
HETATM   21  C16 UNL     1      25.939  -0.152  52.613  1.00  0.00     0.011 A 
HETATM   22  C17 UNL     1      27.053  -0.953  52.716  1.00  0.00     0.001 A 
HETATM   23  C18 UNL     1      28.230  -0.491  53.265  1.00  0.00     0.009 A 
HETATM   24  C19 UNL     1      28.275   0.810  53.718  1.00  0.00    -0.028 A 
HETATM   25  C20 UNL     1      29.573   1.240  54.297  1.00  0.00     0.051 C 
HETATM   26  C21 UNL     1      27.145   1.629  53.616  1.00  0.00     0.079 A 
BRANCH  26  27
HETATM   27  O2  UNL     1      27.392   2.908  54.130  1.00  0.00    -0.360 OA
HETATM   28  H23 UNL     1      26.890   3.170  54.952  1.00  0.00     0.217 HD
ENDBRANCH  26  27
ENDBRANCH  19  20
ENDBRANCH   1  19
TORSDOF 8
ENDMDL
MODEL 8
REMARK VINA RESULT:      -7.8      2.482      6.195
REMARK  8 active torsions:
REMARK  status: ('A' for Active; 'I' for Inactive)
REMARK    1  A    between atoms: O1_2  and  C2_3 
REMARK    2  A    between atoms: C7_8  and  N1_9 
REMARK    3  A    between atoms: N1_9  and  N2_10 
REMARK    4  A    between atoms: N2_10  and  C8_11 
REMARK    5  A    between atoms: N2_10  and  C14_18 
REMARK    6  A    between atoms: C8_11  and  C9_12 
REMARK    7  A    between atoms: C14_18  and  C15_19 
REMARK    8  A    between atoms: C21_25  and  O2_26 
ROOT
HETATM    1  N2  UNL     1      25.345   2.028  51.524  1.00  0.00    -0.223 NA
ENDROOT
BRANCH   1   2
HETATM    2  N1  UNL     1      25.283   2.847  50.397  1.00  0.00    -0.316 N 
HETATM    3  H8  UNL     1      24.691   2.571  49.553  1.00  0.00     0.181 HD
BRANCH   2   4
HETATM    4  C7  UNL     1      25.731   4.037  49.806  1.00  0.00     0.076 A 
HETATM    5  C2  UNL     1      25.080   5.250  49.714  1.00  0.00     0.095 A 
HETATM    6  C3  UNL     1      25.685   6.314  49.076  1.00  0.00     0.039 A 
HETATM    7  C4  UNL     1      26.941   6.128  48.541  1.00  0.00     0.003 A 
HETATM    8  C5  UNL     1      27.658   4.951  48.589  1.00  0.00     0.002 A 
HETATM    9  C6  UNL     1      27.007   3.900  49.245  1.00  0.00     0.033 A 
BRANCH   5  10
HETATM   10  O1  UNL     1      23.823   5.292  50.299  1.00  0.00    -0.354 OA
HETATM   11  C1  UNL     1      23.671   5.915  51.537  1.00  0.00     0.210 C 
ENDBRANCH   5  10
ENDBRANCH   2   4
ENDBRANCH   1   2
BRANCH   1  12
HETATM   12  C8  UNL     1      26.684   2.159  52.066  1.00  0.00     0.148 C 
BRANCH  12  13
HETATM   13  C9  UNL     1      27.232   0.862  52.522  1.00  0.00    -0.059 A 
HETATM   14  C10 UNL     1      28.184   0.591  53.383  1.00  0.00     0.007 A 
HETATM   15  C11 UNL     1      28.435  -0.818  53.567  1.00  0.00     0.038 A 
HETATM   16  C12 UNL     1      27.589  -1.461  52.773  1.00  0.00     0.098 A 
HETATM   17  F1  UNL     1      27.353  -2.764  52.514  1.00  0.00    -0.211 F 
HETATM   18  C13 UNL     1      26.762  -0.466  52.049  1.00  0.00     0.105 A 
ENDBRANCH  12  13
ENDBRANCH   1  12
BRANCH   1  19
HETATM   19  C14 UNL     1      24.405   2.418  52.557  1.00  0.00     0.155 C 
BRANCH  19  20
HETATM   20  C15 UNL     1      23.073   1.814  52.423  1.00  0.00    -0.010 A 
HETATM   21  C16 UNL     1      21.921   2.199  51.773  1.00  0.00     0.011 A 
HETATM   22  C17 UNL     1      20.784   1.426  51.817  1.00  0.00     0.001 A 
HETATM   23  C18 UNL     1      20.743   0.235  52.511  1.00  0.00     0.009 A 
HETATM   24  C19 UNL     1      21.881  -0.177  53.172  1.00  0.00    -0.028 A 
HETATM   25  C20 UNL     1      21.766  -1.468  53.898  1.00  0.00     0.051 C 
HETATM   26  C21 UNL     1      23.040   0.606  53.130  1.00  0.00     0.079 A 
BRANCH  26  27
HETATM   27  O2  UNL     1      24.081   0.019  53.861  1.00  0.00    -0.360 OA
HETATM   28  H23 UNL     1      24.928   0.540  53.940  1.00  0.00     0.217 HD
ENDBRANCH  26  27
ENDBRANCH  19  20
ENDBRANCH   1  19
TORSDOF 8
ENDMDL
MODEL 9
REMARK VINA RESULT:      -7.7      2.664      6.886
REMARK  8 active torsions:
REMARK  status: ('A' for Active; 'I' for Inactive)
REMARK    1  A    between atoms: O1_2  and  C2_3 
REMARK    2  A    between atoms: C7_8  and  N1_9 
REMARK    3  A    between atoms: N1_9  and  N2_10 
REMARK    4  A    between atoms: N2_10  and  C8_11 
REMARK    5  A    between atoms: N2_10  and  C14_18 
REMARK    6  A    between atoms: C8_11  and  C9_12 
REMARK    7  A    between atoms: C14_18  and  C15_19 
REMARK    8  A    between atoms: C21_25  and  O2_26 
ROOT
HETATM    1  N2  UNL     1      24.644   1.539  52.096  1.00  0.00    -0.223 NA
ENDROOT
BRANCH   1   2
HETATM    2  N1  UNL     1      24.797   2.333  50.959  1.00  0.00    -0.316 N 
HETATM    3  H8  UNL     1      25.761   2.490  50.528  1.00  0.00     0.181 HD
BRANCH   2   4
HETATM    4  C7  UNL     1      24.143   3.132  50.010  1.00  0.00     0.076 A 
HETATM    5  C2  UNL     1      23.020   2.838  49.264  1.00  0.00     0.095 A 
HETATM    6  C3  UNL     1      22.528   3.758  48.361  1.00  0.00     0.039 A 
HETATM    7  C4  UNL     1      23.185   4.961  48.230  1.00  0.00     0.003 A 
HETATM    8  C5  UNL     1      24.311   5.333  48.934  1.00  0.00     0.002 A 
HETATM    9  C6  UNL     1      24.774   4.370  49.838  1.00  0.00     0.033 A 
BRANCH   5  10
HETATM   10  O1  UNL     1      22.463   1.590  49.502  1.00  0.00    -0.354 OA
HETATM   11  C1  UNL     1      21.390   1.165  48.720  1.00  0.00     0.210 C 
ENDBRANCH   5  10
ENDBRANCH   2   4
ENDBRANCH   1   2
BRANCH   1  12
HETATM   12  C8  UNL     1      25.792   1.795  52.945  1.00  0.00     0.148 C 
BRANCH  12  13
HETATM   13  C9  UNL     1      26.711   0.637  53.007  1.00  0.00    -0.059 A 
HETATM   14  C10 UNL     1      27.957   0.555  53.408  1.00  0.00     0.007 A 
HETATM   15  C11 UNL     1      28.524  -0.769  53.318  1.00  0.00     0.038 A 
HETATM   16  C12 UNL     1      27.574  -1.557  52.830  1.00  0.00     0.098 A 
HETATM   17  F1  UNL     1      27.508  -2.870  52.528  1.00  0.00    -0.211 F 
HETATM   18  C13 UNL     1      26.356  -0.745  52.593  1.00  0.00     0.105 A 
ENDBRANCH  12  13
ENDBRANCH   1  12
BRANCH   1  19
HETATM   19  C14 UNL     1      23.448   1.861  52.851  1.00  0.00     0.155 C 
BRANCH  19  20
HETATM   20  C15 UNL     1      22.705   0.690  53.335  1.00  0.00    -0.010 A 
HETATM   21  C16 UNL     1      23.049  -0.390  54.117  1.00  0.00     0.011 A 
HETATM   22  C17 UNL     1      22.134  -1.372  54.420  1.00  0.00     0.001 A 
HETATM   23  C18 UNL     1      20.835  -1.320  53.959  1.00  0.00     0.009 A 
HETATM   24  C19 UNL     1      20.462  -0.251  53.175  1.00  0.00    -0.028 A 
HETATM   25  C20 UNL     1      19.050  -0.259  52.713  1.00  0.00     0.051 C 
HETATM   26  C21 UNL     1      21.389   0.750  52.862  1.00  0.00     0.079 A 
BRANCH  26  27
HETATM   27  O2  UNL     1      20.817   1.744  52.058  1.00  0.00    -0.360 OA
HETATM   28  H23 UNL     1      20.891   1.624  51.069  1.00  0.00     0.217 HD
ENDBRANCH  26  27
ENDBRANCH  19  20
ENDBRANCH   1  19
TORSDOF 8
ENDMDL
