MODEL 1
REMARK VINA RESULT:      -8.5      0.000      0.000
REMARK  6 active torsions:
REMARK  status: ('A' for Active; 'I' for Inactive)
REMARK    1  A    between atoms: C5_5  and  C6_6 
REMARK    2  A    between atoms: C6_6  and  N1_7 
REMARK    3  A    between atoms: N1_7  and  P1_8 
REMARK       I    between atoms: N1_7  and  C14_17 
REMARK    4  A    between atoms: P1_8  and  C7_9 
REMARK    5  A    between atoms: C7_9  and  C8_10 
REMARK       I    between atoms: C14_17  and  N2_19 
REMARK    6  A    between atoms: N2_19  and  C15_20 
ROOT
HETATM    1  N1  UNL     1      24.696   3.364  50.940  1.00  0.00    -0.308 N 
HETATM    2  C14 UNL     1      25.927   2.755  51.240  1.00  0.00     0.326 C 
HETATM    3  O1  UNL     1      26.804   2.653  50.373  1.00  0.00    -0.247 OA
HETATM    4  N2  UNL     1      26.125   2.271  52.553  1.00  0.00    -0.309 N 
HETATM    5  H17 UNL     1      25.411   2.339  53.307  1.00  0.00     0.170 HD
ENDROOT
BRANCH   1   6
HETATM    6  C6  UNL     1      24.401   3.892  49.621  1.00  0.00     0.168 C 
BRANCH   6   7
HETATM    7  C5  UNL     1      24.439   5.420  49.726  1.00  0.00     0.162 C 
HETATM    8  C4  UNL     1      23.813   6.027  48.504  1.00  0.00     0.003 C 
HETATM    9  C3  UNL     1      24.363   6.981  47.758  1.00  0.00    -0.022 C 
HETATM   10  C2  UNL     1      25.717   7.429  48.249  1.00  0.00     0.028 C 
HETATM   11  C1  UNL     1      26.505   8.062  47.124  1.00  0.00     0.016 C 
HETATM   12  C21 UNL     1      26.375   6.160  48.748  1.00  0.00     0.176 C 
HETATM   13  O2  UNL     1      25.746   5.791  49.919  1.00  0.00    -0.380 OA
ENDBRANCH   6   7
ENDBRANCH   1   6
BRANCH   1  14
HETATM   14  P1  UNL     1      23.383   3.542  52.159  1.00  0.00    -0.018 P 
HETATM   15  H10 UNL     1      23.861   3.370  53.498  1.00  0.00     0.081 HD
BRANCH  14  16
HETATM   16  C7  UNL     1      22.080   2.283  51.744  1.00  0.00     0.092 C 
BRANCH  16  17
HETATM   17  C8  UNL     1      22.167   1.188  52.730  1.00  0.00    -0.052 A 
HETATM   18  C9  UNL     1      23.357   0.481  52.795  1.00  0.00     0.010 A 
HETATM   19  C10 UNL     1      23.513  -0.564  53.699  1.00  0.00     0.043 A 
HETATM   20  C11 UNL     1      22.462  -0.888  54.534  1.00  0.00     0.116 A 
HETATM   21  F1  UNL     1      22.624  -1.904  55.408  1.00  0.00    -0.206 F 
HETATM   22  C12 UNL     1      21.257  -0.181  54.476  1.00  0.00     0.043 A 
HETATM   23  C13 UNL     1      21.119   0.862  53.563  1.00  0.00     0.010 A 
ENDBRANCH  16  17
ENDBRANCH  14  16
ENDBRANCH   1  14
BRANCH   4  24
HETATM   24  C15 UNL     1      27.290   1.629  53.052  1.00  0.00     0.036 A 
HETATM   25  C16 UNL     1      27.403   0.265  52.894  1.00  0.00     0.029 A 
HETATM   26  C17 UNL     1      28.545  -0.376  53.380  1.00  0.00     0.002 A 
HETATM   27  C18 UNL     1      29.544   0.334  54.007  1.00  0.00     0.000 A 
HETATM   28  C19 UNL     1      29.453   1.714  54.178  1.00  0.00     0.002 A 
HETATM   29  C20 UNL     1      28.303   2.319  53.682  1.00  0.00     0.029 A 
ENDBRANCH   4  24
TORSDOF 6
ENDMDL
MODEL 2
REMARK VINA RESULT:      -8.3      2.305      7.135
REMARK  6 active torsions:
REMARK  status: ('A' for Active; 'I' for Inactive)
REMARK    1  A    between atoms: C5_5  and  C6_6 
REMARK    2  A    between atoms: C6_6  and  N1_7 
REMARK    3  A    between atoms: N1_7  and  P1_8 
REMARK       I    between atoms: N1_7  and  C14_17 
REMARK    4  A    between atoms: P1_8  and  C7_9 
REMARK    5  A    between atoms: C7_9  and  C8_10 
REMARK       I    between atoms: C14_17  and  N2_19 
REMARK    6  A    between atoms: N2_19  and  C15_20 
ROOT
HETATM    1  N1  UNL     1      24.185   2.293  51.864  1.00  0.00    -0.308 N 
HETATM    2  C14 UNL     1      24.088   3.401  51.004  1.00  0.00     0.326 C 
HETATM    3  O1  UNL     1      23.260   3.410  50.084  1.00  0.00    -0.247 OA
HETATM    4  N2  UNL     1      24.959   4.492  51.225  1.00  0.00    -0.309 N 
HETATM    5  H17 UNL     1      25.668   4.519  51.987  1.00  0.00     0.170 HD
ENDROOT
BRANCH   1   6
HETATM    6  C6  UNL     1      23.333   1.128  51.716  1.00  0.00     0.168 C 
BRANCH   6   7
HETATM    7  C5  UNL     1      22.543   0.976  53.019  1.00  0.00     0.162 C 
HETATM    8  C4  UNL     1      22.513  -0.468  53.428  1.00  0.00     0.003 C 
HETATM    9  C3  UNL     1      21.417  -1.145  53.759  1.00  0.00    -0.022 C 
HETATM   10  C2  UNL     1      20.154  -0.324  53.693  1.00  0.00     0.028 C 
HETATM   11  C1  UNL     1      18.947  -1.221  53.531  1.00  0.00     0.016 C 
HETATM   12  C21 UNL     1      20.350   0.573  52.488  1.00  0.00     0.176 C 
HETATM   13  O2  UNL     1      21.299   1.519  52.817  1.00  0.00    -0.380 OA
ENDBRANCH   6   7
ENDBRANCH   1   6
BRANCH   1  14
HETATM   14  P1  UNL     1      25.369   2.223  53.218  1.00  0.00    -0.018 P 
HETATM   15  H10 UNL     1      25.292   3.375  54.065  1.00  0.00     0.081 HD
BRANCH  14  16
HETATM   16  C7  UNL     1      27.058   2.059  52.458  1.00  0.00     0.092 C 
BRANCH  16  17
HETATM   17  C8  UNL     1      27.536   0.682  52.691  1.00  0.00    -0.052 A 
HETATM   18  C9  UNL     1      26.704  -0.356  52.301  1.00  0.00     0.010 A 
HETATM   19  C10 UNL     1      27.086  -1.681  52.489  1.00  0.00     0.043 A 
HETATM   20  C11 UNL     1      28.310  -1.947  53.071  1.00  0.00     0.116 A 
HETATM   21  F1  UNL     1      28.672  -3.235  53.248  1.00  0.00    -0.206 F 
HETATM   22  C12 UNL     1      29.157  -0.906  53.467  1.00  0.00     0.043 A 
HETATM   23  C13 UNL     1      28.756   0.413  53.271  1.00  0.00     0.010 A 
ENDBRANCH  16  17
ENDBRANCH  14  16
ENDBRANCH   1  14
BRANCH   4  24
HETATM   24  C15 UNL     1      25.018   5.695  50.471  1.00  0.00     0.036 A 
HETATM   25  C16 UNL     1      24.346   6.798  50.948  1.00  0.00     0.029 A 
HETATM   26  C17 UNL     1      24.397   7.986  50.215  1.00  0.00     0.002 A 
HETATM   27  C18 UNL     1      25.104   8.062  49.036  1.00  0.00     0.000 A 
HETATM   28  C19 UNL     1      25.793   6.960  48.534  1.00  0.00     0.002 A 
HETATM   29  C20 UNL     1      25.720   5.793  49.289  1.00  0.00     0.029 A 
ENDBRANCH   4  24
TORSDOF 6
ENDMDL
MODEL 3
REMARK VINA RESULT:      -8.3      1.685      2.520
REMARK  6 active torsions:
REMARK  status: ('A' for Active; 'I' for Inactive)
REMARK    1  A    between atoms: C5_5  and  C6_6 
REMARK    2  A    between atoms: C6_6  and  N1_7 
REMARK    3  A    between atoms: N1_7  and  P1_8 
REMARK       I    between atoms: N1_7  and  C14_17 
REMARK    4  A    between atoms: P1_8  and  C7_9 
REMARK    5  A    between atoms: C7_9  and  C8_10 
REMARK       I    between atoms: C14_17  and  N2_19 
REMARK    6  A    between atoms: N2_19  and  C15_20 
ROOT
HETATM    1  N1  UNL     1      24.675   3.367  51.139  1.00  0.00    -0.308 N 
HETATM    2  C14 UNL     1      25.888   2.693  51.366  1.00  0.00     0.326 C 
HETATM    3  O1  UNL     1      26.791   2.726  50.521  1.00  0.00    -0.247 OA
HETATM    4  N2  UNL     1      26.037   1.985  52.581  1.00  0.00    -0.309 N 
HETATM    5  H17 UNL     1      25.300   1.935  53.313  1.00  0.00     0.170 HD
ENDROOT
BRANCH   1   6
HETATM    6  C6  UNL     1      24.430   4.120  49.924  1.00  0.00     0.168 C 
BRANCH   6   7
HETATM    7  C5  UNL     1      23.011   3.779  49.457  1.00  0.00     0.162 C 
HETATM    8  C4  UNL     1      23.053   2.594  48.537  1.00  0.00     0.003 C 
HETATM    9  C3  UNL     1      22.473   2.535  47.341  1.00  0.00    -0.022 C 
HETATM   10  C2  UNL     1      21.740   3.796  46.961  1.00  0.00     0.028 C 
HETATM   11  C1  UNL     1      21.592   3.890  45.458  1.00  0.00     0.016 C 
HETATM   12  C21 UNL     1      22.603   4.914  47.508  1.00  0.00     0.176 C 
HETATM   13  O2  UNL     1      22.481   4.906  48.883  1.00  0.00    -0.380 OA
ENDBRANCH   6   7
ENDBRANCH   1   6
BRANCH   1  14
HETATM   14  P1  UNL     1      23.326   3.355  52.331  1.00  0.00    -0.018 P 
HETATM   15  H10 UNL     1      23.795   3.225  53.679  1.00  0.00     0.081 HD
BRANCH  14  16
HETATM   16  C7  UNL     1      22.204   1.946  51.872  1.00  0.00     0.092 C 
BRANCH  16  17
HETATM   17  C8  UNL     1      22.316   0.909  52.916  1.00  0.00    -0.052 A 
HETATM   18  C9  UNL     1      23.526   0.240  53.024  1.00  0.00     0.010 A 
HETATM   19  C10 UNL     1      23.706  -0.750  53.984  1.00  0.00     0.043 A 
HETATM   20  C11 UNL     1      22.659  -1.058  54.831  1.00  0.00     0.116 A 
HETATM   21  F1  UNL     1      22.845  -2.020  55.760  1.00  0.00    -0.206 F 
HETATM   22  C12 UNL     1      21.435  -0.389  54.731  1.00  0.00     0.043 A 
HETATM   23  C13 UNL     1      21.274   0.600  53.762  1.00  0.00     0.010 A 
ENDBRANCH  16  17
ENDBRANCH  14  16
ENDBRANCH   1  14
BRANCH   4  24
HETATM   24  C15 UNL     1      27.177   1.246  52.994  1.00  0.00     0.036 A 
HETATM   25  C16 UNL     1      28.212   1.923  53.599  1.00  0.00     0.029 A 
HETATM   26  C17 UNL     1      29.338   1.205  54.010  1.00  0.00     0.002 A 
HETATM   27  C18 UNL     1      29.420  -0.155  53.818  1.00  0.00     0.000 A 
HETATM   28  C19 UNL     1      28.386  -0.863  53.210  1.00  0.00     0.002 A 
HETATM   29  C20 UNL     1      27.280  -0.117  52.813  1.00  0.00     0.029 A 
ENDBRANCH   4  24
TORSDOF 6
ENDMDL
MODEL 4
REMARK VINA RESULT:      -8.2      3.395      8.022
REMARK  6 active torsions:
REMARK  status: ('A' for Active; 'I' for Inactive)
REMARK    1  A    between atoms: C5_5  and  C6_6 
REMARK    2  A    between atoms: C6_6  and  N1_7 
REMARK    3  A    between atoms: N1_7  and  P1_8 
REMARK       I    between atoms: N1_7  and  C14_17 
REMARK    4  A    between atoms: P1_8  and  C7_9 
REMARK    5  A    between atoms: C7_9  and  C8_10 
REMARK       I    between atoms: C14_17  and  N2_19 
REMARK    6  A    between atoms: N2_19  and  C15_20 
ROOT
HETATM    1  N1  UNL     1      23.540   1.674  52.254  1.00  0.00    -0.308 N 
HETATM    2  C14 UNL     1      22.384   0.975  52.647  1.00  0.00     0.326 C 
HETATM    3  O1  UNL     1      22.344   0.395  53.739  1.00  0.00    -0.247 OA
HETATM    4  N2  UNL     1      21.283   0.961  51.761  1.00  0.00    -0.309 N 
HETATM    5  H17 UNL     1      21.281   1.436  50.835  1.00  0.00     0.170 HD
ENDROOT
BRANCH   1   6
HETATM    6  C6  UNL     1      24.718   1.746  53.096  1.00  0.00     0.168 C 
BRANCH   6   7
HETATM    7  C5  UNL     1      25.870   1.099  52.320  1.00  0.00     0.162 C 
HETATM    8  C4  UNL     1      25.961  -0.358  52.670  1.00  0.00     0.003 C 
HETATM    9  C3  UNL     1      27.072  -0.987  53.040  1.00  0.00    -0.022 C 
HETATM   10  C2  UNL     1      28.287  -0.095  53.084  1.00  0.00     0.028 C 
HETATM   11  C1  UNL     1      29.340  -0.678  54.000  1.00  0.00     0.016 C 
HETATM   12  C21 UNL     1      27.764   1.228  53.604  1.00  0.00     0.176 C 
HETATM   13  O2  UNL     1      27.011   1.807  52.604  1.00  0.00    -0.380 OA
ENDBRANCH   6   7
ENDBRANCH   1   6
BRANCH   1  14
HETATM   14  P1  UNL     1      23.657   2.536  50.678  1.00  0.00    -0.018 P 
HETATM   15  H10 UNL     1      24.625   1.942  49.806  1.00  0.00     0.081 HD
BRANCH  14  16
HETATM   16  C7  UNL     1      24.088   4.305  51.056  1.00  0.00     0.092 C 
BRANCH  16  17
HETATM   17  C8  UNL     1      25.224   4.695  50.198  1.00  0.00    -0.052 A 
HETATM   18  C9  UNL     1      25.325   6.031  49.841  1.00  0.00     0.010 A 
HETATM   19  C10 UNL     1      26.368   6.473  49.035  1.00  0.00     0.043 A 
HETATM   20  C11 UNL     1      27.305   5.559  48.594  1.00  0.00     0.116 A 
HETATM   21  F1  UNL     1      28.314   5.999  47.812  1.00  0.00    -0.206 F 
HETATM   22  C12 UNL     1      27.213   4.210  48.949  1.00  0.00     0.043 A 
HETATM   23  C13 UNL     1      26.160   3.786  49.757  1.00  0.00     0.010 A 
ENDBRANCH  16  17
ENDBRANCH  14  16
ENDBRANCH   1  14
BRANCH   4  24
HETATM   24  C15 UNL     1      20.035   0.316  51.972  1.00  0.00     0.036 A 
HETATM   25  C16 UNL     1      19.047   0.478  51.027  1.00  0.00     0.029 A 
HETATM   26  C17 UNL     1      17.816  -0.152  51.226  1.00  0.00     0.002 A 
HETATM   27  C18 UNL     1      17.586  -0.923  52.342  1.00  0.00     0.000 A 
HETATM   28  C19 UNL     1      18.570  -1.102  53.312  1.00  0.00     0.002 A 
HETATM   29  C20 UNL     1      19.783  -0.461  53.083  1.00  0.00     0.029 A 
ENDBRANCH   4  24
TORSDOF 6
ENDMDL
MODEL 5
REMARK VINA RESULT:      -8.1      3.324      6.901
REMARK  6 active torsions:
REMARK  status: ('A' for Active; 'I' for Inactive)
REMARK    1  A    between atoms: C5_5  and  C6_6 
REMARK    2  A    between atoms: C6_6  and  N1_7 
REMARK    3  A    between atoms: N1_7  and  P1_8 
REMARK       I    between atoms: N1_7  and  C14_17 
REMARK    4  A    between atoms: P1_8  and  C7_9 
REMARK    5  A    between atoms: C7_9  and  C8_10 
REMARK       I    between atoms: C14_17  and  N2_19 
REMARK    6  A    between atoms: N2_19  and  C15_20 
ROOT
HETATM    1  N1  UNL     1      23.770   2.281  51.688  1.00  0.00    -0.308 N 
HETATM    2  C14 UNL     1      24.730   1.599  52.456  1.00  0.00     0.326 C 
HETATM    3  O1  UNL     1      24.408   1.055  53.520  1.00  0.00    -0.247 OA
HETATM    4  N2  UNL     1      26.058   1.556  51.975  1.00  0.00    -0.309 N 
HETATM    5  H17 UNL     1      26.364   2.002  51.086  1.00  0.00     0.170 HD
ENDROOT
BRANCH   1   6
HETATM    6  C6  UNL     1      22.383   2.378  52.099  1.00  0.00     0.168 C 
BRANCH   6   7
HETATM    7  C5  UNL     1      21.589   1.376  51.255  1.00  0.00     0.162 C 
HETATM    8  C4  UNL     1      20.248   1.955  50.908  1.00  0.00     0.003 C 
HETATM    9  C3  UNL     1      19.082   1.339  51.078  1.00  0.00    -0.022 C 
HETATM   10  C2  UNL     1      19.209  -0.044  51.668  1.00  0.00     0.028 C 
HETATM   11  C1  UNL     1      17.914  -0.456  52.333  1.00  0.00     0.016 C 
HETATM   12  C21 UNL     1      20.339   0.076  52.669  1.00  0.00     0.176 C 
HETATM   13  O2  UNL     1      21.517   0.202  51.962  1.00  0.00    -0.380 OA
ENDBRANCH   6   7
ENDBRANCH   1   6
BRANCH   1  14
HETATM   14  P1  UNL     1      24.178   3.091  50.132  1.00  0.00    -0.018 P 
HETATM   15  H10 UNL     1      25.267   2.450  49.457  1.00  0.00     0.081 HD
BRANCH  14  16
HETATM   16  C7  UNL     1      24.582   4.862  50.529  1.00  0.00     0.092 C 
BRANCH  16  17
HETATM   17  C8  UNL     1      25.771   5.249  49.745  1.00  0.00    -0.052 A 
HETATM   18  C9  UNL     1      25.922   6.593  49.438  1.00  0.00     0.010 A 
HETATM   19  C10 UNL     1      27.017   7.033  48.702  1.00  0.00     0.043 A 
HETATM   20  C11 UNL     1      27.954   6.110  48.280  1.00  0.00     0.116 A 
HETATM   21  F1  UNL     1      29.013   6.549  47.567  1.00  0.00    -0.206 F 
HETATM   22  C12 UNL     1      27.810   4.753  48.584  1.00  0.00     0.043 A 
HETATM   23  C13 UNL     1      26.707   4.331  49.323  1.00  0.00     0.010 A 
ENDBRANCH  16  17
ENDBRANCH  14  16
ENDBRANCH   1  14
BRANCH   4  24
HETATM   24  C15 UNL     1      27.165   0.922  52.601  1.00  0.00     0.036 A 
HETATM   25  C16 UNL     1      28.095   1.711  53.240  1.00  0.00     0.029 A 
HETATM   26  C17 UNL     1      29.186   1.096  53.859  1.00  0.00     0.002 A 
HETATM   27  C18 UNL     1      29.338  -0.271  53.835  1.00  0.00     0.000 A 
HETATM   28  C19 UNL     1      28.410  -1.090  53.196  1.00  0.00     0.002 A 
HETATM   29  C20 UNL     1      27.336  -0.446  52.590  1.00  0.00     0.029 A 
ENDBRANCH   4  24
TORSDOF 6
ENDMDL
MODEL 6
REMARK VINA RESULT:      -8.1      2.763      6.215
REMARK  6 active torsions:
REMARK  status: ('A' for Active; 'I' for Inactive)
REMARK    1  A    between atoms: C5_5  and  C6_6 
REMARK    2  A    between atoms: C6_6  and  N1_7 
REMARK    3  A    between atoms: N1_7  and  P1_8 
REMARK       I    between atoms: N1_7  and  C14_17 
REMARK    4  A    between atoms: P1_8  and  C7_9 
REMARK    5  A    between atoms: C7_9  and  C8_10 
REMARK       I    between atoms: C14_17  and  N2_19 
REMARK    6  A    between atoms: N2_19  and  C15_20 
ROOT
HETATM    1  N1  UNL     1      23.501   2.331  52.141  1.00  0.00    -0.308 N 
HETATM    2  C14 UNL     1      22.133   2.096  51.916  1.00  0.00     0.326 C 
HETATM    3  O1  UNL     1      21.404   2.999  51.488  1.00  0.00    -0.247 OA
HETATM    4  N2  UNL     1      21.627   0.805  52.191  1.00  0.00    -0.309 N 
HETATM    5  H17 UNL     1      22.210   0.022  52.552  1.00  0.00     0.170 HD
ENDROOT
BRANCH   1   6
HETATM    6  C6  UNL     1      24.110   3.623  51.886  1.00  0.00     0.168 C 
BRANCH   6   7
HETATM    7  C5  UNL     1      24.438   3.683  50.391  1.00  0.00     0.162 C 
HETATM    8  C4  UNL     1      25.857   3.250  50.165  1.00  0.00     0.003 C 
HETATM    9  C3  UNL     1      26.757   3.923  49.453  1.00  0.00    -0.022 C 
HETATM   10  C2  UNL     1      26.225   5.204  48.862  1.00  0.00     0.028 C 
HETATM   11  C1  UNL     1      27.360   6.159  48.560  1.00  0.00     0.016 C 
HETATM   12  C21 UNL     1      25.300   5.755  49.926  1.00  0.00     0.176 C 
HETATM   13  O2  UNL     1      24.174   4.958  49.959  1.00  0.00    -0.380 OA
ENDBRANCH   6   7
ENDBRANCH   1   6
BRANCH   1  14
HETATM   14  P1  UNL     1      24.610   1.057  52.761  1.00  0.00    -0.018 P 
HETATM   15  H10 UNL     1      23.955   0.162  53.667  1.00  0.00     0.081 HD
BRANCH  14  16
HETATM   16  C7  UNL     1      26.032   1.926  53.587  1.00  0.00     0.092 C 
BRANCH  16  17
HETATM   17  C8  UNL     1      27.195   1.018  53.576  1.00  0.00    -0.052 A 
HETATM   18  C9  UNL     1      26.976  -0.294  53.188  1.00  0.00     0.010 A 
HETATM   19  C10 UNL     1      28.024  -1.208  53.154  1.00  0.00     0.043 A 
HETATM   20  C11 UNL     1      29.290  -0.788  53.512  1.00  0.00     0.116 A 
HETATM   21  F1  UNL     1      30.300  -1.683  53.475  1.00  0.00    -0.206 F 
HETATM   22  C12 UNL     1      29.521   0.535  53.905  1.00  0.00     0.043 A 
HETATM   23  C13 UNL     1      28.459   1.435  53.933  1.00  0.00     0.010 A 
ENDBRANCH  16  17
ENDBRANCH  14  16
ENDBRANCH   1  14
BRANCH   4  24
HETATM   24  C15 UNL     1      20.284   0.370  52.031  1.00  0.00     0.036 A 
HETATM   25  C16 UNL     1      19.693  -0.320  53.065  1.00  0.00     0.029 A 
HETATM   26  C17 UNL     1      18.373  -0.752  52.918  1.00  0.00     0.002 A 
HETATM   27  C18 UNL     1      17.668  -0.497  51.764  1.00  0.00     0.000 A 
HETATM   28  C19 UNL     1      18.244   0.201  50.704  1.00  0.00     0.002 A 
HETATM   29  C20 UNL     1      19.560   0.616  50.885  1.00  0.00     0.029 A 
ENDBRANCH   4  24
TORSDOF 6
ENDMDL
MODEL 7
REMARK VINA RESULT:      -8.0      3.199      6.729
REMARK  6 active torsions:
REMARK  status: ('A' for Active; 'I' for Inactive)
REMARK    1  A    between atoms: C5_5  and  C6_6 
REMARK    2  A    between atoms: C6_6  and  N1_7 
REMARK    3  A    between atoms: N1_7  and  P1_8 
REMARK       I    between atoms: N1_7  and  C14_17 
REMARK    4  A    between atoms: P1_8  and  C7_9 
REMARK    5  A    between atoms: C7_9  and  C8_10 
REMARK       I    between atoms: C14_17  and  N2_19 
REMARK    6  A    between atoms: N2_19  and  C15_20 
ROOT
HETATM    1  N1  UNL     1      24.242   3.277  51.391  1.00  0.00    -0.308 N 
HETATM    2  C14 UNL     1      25.102   2.664  52.319  1.00  0.00     0.326 C 
HETATM    3  O1  UNL     1      24.749   2.512  53.495  1.00  0.00    -0.247 OA
HETATM    4  N2  UNL     1      26.369   2.231  51.865  1.00  0.00    -0.309 N 
HETATM    5  H17 UNL     1      26.700   2.343  50.885  1.00  0.00     0.170 HD
ENDROOT
BRANCH   1   6
HETATM    6  C6  UNL     1      22.923   3.752  51.763  1.00  0.00     0.168 C 
BRANCH   6   7
HETATM    7  C5  UNL     1      21.902   2.849  51.063  1.00  0.00     0.162 C 
HETATM    8  C4  UNL     1      20.534   3.099  51.628  1.00  0.00     0.003 C 
HETATM    9  C3  UNL     1      19.701   2.157  52.059  1.00  0.00    -0.022 C 
HETATM   10  C2  UNL     1      20.253   0.758  51.934  1.00  0.00     0.028 C 
HETATM   11  C1  UNL     1      19.555  -0.174  52.899  1.00  0.00     0.016 C 
HETATM   12  C21 UNL     1      21.724   0.903  52.261  1.00  0.00     0.176 C 
HETATM   13  O2  UNL     1      22.329   1.553  51.205  1.00  0.00    -0.380 OA
ENDBRANCH   6   7
ENDBRANCH   1   6
BRANCH   1  14
HETATM   14  P1  UNL     1      24.700   3.525  49.668  1.00  0.00    -0.018 P 
HETATM   15  H10 UNL     1      25.968   2.938  49.354  1.00  0.00     0.081 HD
BRANCH  14  16
HETATM   16  C7  UNL     1      24.716   5.360  49.366  1.00  0.00     0.092 C 
BRANCH  16  17
HETATM   17  C8  UNL     1      26.048   5.729  48.849  1.00  0.00    -0.052 A 
HETATM   18  C9  UNL     1      27.055   4.782  48.946  1.00  0.00     0.010 A 
HETATM   19  C10 UNL     1      28.337   5.058  48.480  1.00  0.00     0.043 A 
HETATM   20  C11 UNL     1      28.591   6.294  47.919  1.00  0.00     0.116 A 
HETATM   21  F1  UNL     1      29.838   6.552  47.470  1.00  0.00    -0.206 F 
HETATM   22  C12 UNL     1      27.582   7.257  47.817  1.00  0.00     0.043 A 
HETATM   23  C13 UNL     1      26.305   6.961  48.289  1.00  0.00     0.010 A 
ENDBRANCH  16  17
ENDBRANCH  14  16
ENDBRANCH   1  14
BRANCH   4  24
HETATM   24  C15 UNL     1      27.374   1.595  52.641  1.00  0.00     0.036 A 
HETATM   25  C16 UNL     1      27.438   0.219  52.627  1.00  0.00     0.029 A 
HETATM   26  C17 UNL     1      28.423  -0.416  53.387  1.00  0.00     0.002 A 
HETATM   27  C18 UNL     1      29.318   0.311  54.139  1.00  0.00     0.000 A 
HETATM   28  C19 UNL     1      29.274   1.703  54.169  1.00  0.00     0.002 A 
HETATM   29  C20 UNL     1      28.281   2.303  53.401  1.00  0.00     0.029 A 
ENDBRANCH   4  24
TORSDOF 6
ENDMDL
MODEL 8
REMARK VINA RESULT:      -7.8      3.149      4.511
REMARK  6 active torsions:
REMARK  status: ('A' for Active; 'I' for Inactive)
REMARK    1  A    between atoms: C5_5  and  C6_6 
REMARK    2  A    between atoms: C6_6  and  N1_7 
REMARK    3  A    between atoms: N1_7  and  P1_8 
REMARK       I    between atoms: N1_7  and  C14_17 
REMARK    4  A    between atoms: P1_8  and  C7_9 
REMARK    5  A    between atoms: C7_9  and  C8_10 
REMARK       I    between atoms: C14_17  and  N2_19 
REMARK    6  A    between atoms: N2_19  and  C15_20 
ROOT
HETATM    1  N1  UNL     1      23.888   3.574  50.656  1.00  0.00    -0.308 N 
HETATM    2  C14 UNL     1      23.701   2.830  51.835  1.00  0.00     0.326 C 
HETATM    3  O1  UNL     1      24.245   3.180  52.890  1.00  0.00    -0.247 OA
HETATM    4  N2  UNL     1      22.878   1.683  51.773  1.00  0.00    -0.309 N 
HETATM    5  H17 UNL     1      22.405   1.359  50.904  1.00  0.00     0.170 HD
ENDROOT
BRANCH   1   6
HETATM    6  C6  UNL     1      24.713   4.766  50.623  1.00  0.00     0.168 C 
BRANCH   6   7
HETATM    7  C5  UNL     1      25.316   4.861  49.218  1.00  0.00     0.162 C 
HETATM    8  C4  UNL     1      26.689   4.254  49.213  1.00  0.00     0.003 C 
HETATM    9  C3  UNL     1      27.780   4.836  48.724  1.00  0.00    -0.022 C 
HETATM   10  C2  UNL     1      27.529   6.207  48.149  1.00  0.00     0.028 C 
HETATM   11  C1  UNL     1      28.808   7.015  48.126  1.00  0.00     0.016 C 
HETATM   12  C21 UNL     1      26.497   6.820  49.072  1.00  0.00     0.176 C 
HETATM   13  O2  UNL     1      25.295   6.182  48.845  1.00  0.00    -0.380 OA
ENDBRANCH   6   7
ENDBRANCH   1   6
BRANCH   1  14
HETATM   14  P1  UNL     1      23.122   3.115  49.093  1.00  0.00    -0.018 P 
HETATM   15  H10 UNL     1      23.934   3.469  47.967  1.00  0.00     0.081 HD
BRANCH  14  16
HETATM   16  C7  UNL     1      21.470   3.966  49.025  1.00  0.00     0.092 C 
BRANCH  16  17
HETATM   17  C8  UNL     1      20.495   3.135  49.757  1.00  0.00    -0.052 A 
HETATM   18  C9  UNL     1      19.885   3.698  50.868  1.00  0.00     0.010 A 
HETATM   19  C10 UNL     1      18.955   2.975  51.608  1.00  0.00     0.043 A 
HETATM   20  C11 UNL     1      18.646   1.687  51.220  1.00  0.00     0.116 A 
HETATM   21  F1  UNL     1      17.742   0.995  51.945  1.00  0.00    -0.206 F 
HETATM   22  C12 UNL     1      19.255   1.110  50.100  1.00  0.00     0.043 A 
HETATM   23  C13 UNL     1      20.185   1.850  49.371  1.00  0.00     0.010 A 
ENDBRANCH  16  17
ENDBRANCH  14  16
ENDBRANCH   1  14
BRANCH   4  24
HETATM   24  C15 UNL     1      22.567   0.805  52.845  1.00  0.00     0.036 A 
HETATM   25  C16 UNL     1      23.528  -0.092  53.254  1.00  0.00     0.029 A 
HETATM   26  C17 UNL     1      23.232  -0.960  54.309  1.00  0.00     0.002 A 
HETATM   27  C18 UNL     1      22.006  -0.926  54.933  1.00  0.00     0.000 A 
HETATM   28  C19 UNL     1      21.019  -0.027  54.537  1.00  0.00     0.002 A 
HETATM   29  C20 UNL     1      21.346   0.822  53.484  1.00  0.00     0.029 A 
ENDBRANCH   4  24
TORSDOF 6
ENDMDL
MODEL 9
REMARK VINA RESULT:      -7.7      2.392      6.814
REMARK  6 active torsions:
REMARK  status: ('A' for Active; 'I' for Inactive)
REMARK    1  A    between atoms: C5_5  and  C6_6 
REMARK    2  A    between atoms: C6_6  and  N1_7 
REMARK    3  A    between atoms: N1_7  and  P1_8 
REMARK       I    between atoms: N1_7  and  C14_17 
REMARK    4  A    between atoms: P1_8  and  C7_9 
REMARK    5  A    between atoms: C7_9  and  C8_10 
REMARK       I    between atoms: C14_17  and  N2_19 
REMARK    6  A    between atoms: N2_19  and  C15_20 
ROOT
HETATM    1  N1  UNL     1      24.127   3.482  51.672  1.00  0.00    -0.308 N 
HETATM    2  C14 UNL     1      24.326   4.735  51.066  1.00  0.00     0.326 C 
HETATM    3  O1  UNL     1      23.428   5.585  51.076  1.00  0.00    -0.247 OA
HETATM    4  N2  UNL     1      25.576   4.986  50.455  1.00  0.00    -0.309 N 
HETATM    5  H17 UNL     1      26.354   4.295  50.428  1.00  0.00     0.170 HD
ENDROOT
BRANCH   1   6
HETATM    6  C6  UNL     1      22.879   3.133  52.324  1.00  0.00     0.168 C 
BRANCH   6   7
HETATM    7  C5  UNL     1      22.616   1.652  52.038  1.00  0.00     0.162 C 
HETATM    8  C4  UNL     1      21.621   1.521  50.921  1.00  0.00     0.003 C 
HETATM    9  C3  UNL     1      20.529   0.763  50.956  1.00  0.00    -0.022 C 
HETATM   10  C2  UNL     1      20.353   0.013  52.252  1.00  0.00     0.028 C 
HETATM   11  C1  UNL     1      18.901  -0.362  52.454  1.00  0.00     0.016 C 
HETATM   12  C21 UNL     1      20.835   0.978  53.315  1.00  0.00     0.176 C 
HETATM   13  O2  UNL     1      22.208   1.068  53.211  1.00  0.00    -0.380 OA
ENDBRANCH   6   7
ENDBRANCH   1   6
BRANCH   1  14
HETATM   14  P1  UNL     1      25.396   2.205  51.690  1.00  0.00    -0.018 P 
HETATM   15  H10 UNL     1      24.895   0.937  51.251  1.00  0.00     0.081 HD
BRANCH  14  16
HETATM   16  C7  UNL     1      26.044   2.106  53.430  1.00  0.00     0.092 C 
BRANCH  16  17
HETATM   17  C8  UNL     1      27.104   1.080  53.468  1.00  0.00    -0.052 A 
HETATM   18  C9  UNL     1      28.366   1.482  53.878  1.00  0.00     0.010 A 
HETATM   19  C10 UNL     1      29.416   0.571  53.938  1.00  0.00     0.043 A 
HETATM   20  C11 UNL     1      29.181  -0.743  53.585  1.00  0.00     0.116 A 
HETATM   21  F1  UNL     1      30.207  -1.620  53.648  1.00  0.00    -0.206 F 
HETATM   22  C12 UNL     1      27.911  -1.159  53.171  1.00  0.00     0.043 A 
HETATM   23  C13 UNL     1      26.873  -0.231  53.116  1.00  0.00     0.010 A 
ENDBRANCH  16  17
ENDBRANCH  14  16
ENDBRANCH   1  14
BRANCH   4  24
HETATM   24  C15 UNL     1      25.971   6.180  49.795  1.00  0.00     0.036 A 
HETATM   25  C16 UNL     1      26.579   6.076  48.564  1.00  0.00     0.029 A 
HETATM   26  C17 UNL     1      26.970   7.245  47.906  1.00  0.00     0.002 A 
HETATM   27  C18 UNL     1      26.757   8.482  48.470  1.00  0.00     0.000 A 
HETATM   28  C19 UNL     1      26.143   8.612  49.714  1.00  0.00     0.002 A 
HETATM   29  C20 UNL     1      25.766   7.429  50.341  1.00  0.00     0.029 A 
ENDBRANCH   4  24
TORSDOF 6
ENDMDL
