MODEL 1
REMARK VINA RESULT:      -8.0      0.000      0.000
REMARK  4 active torsions:
REMARK  status: ('A' for Active; 'I' for Inactive)
REMARK    1  A    between atoms: O1_2  and  C2_3 
REMARK    2  A    between atoms: C6_10  and  N3_11 
REMARK    3  A    between atoms: N3_11  and  C8_13 
REMARK    4  A    between atoms: C16_21  and  O2_22 
ROOT
HETATM    1  C2  UNL     1      26.912  -0.081  53.794  1.00  0.00     0.103 A 
HETATM    2  C3  UNL     1      25.816  -0.800  54.212  1.00  0.00     0.072 A 
HETATM    3  C4  UNL     1      24.555  -0.353  53.851  1.00  0.00     0.077 A 
HETATM    4  N1  UNL     1      23.469  -1.038  54.247  1.00  0.00    -0.218 NA
HETATM    5  C5  UNL     1      22.257  -0.556  53.866  1.00  0.00     0.225 A 
HETATM    6 CL1  UNL     1      20.843  -1.471  54.396  1.00  0.00    -0.041 Cl
HETATM    7  N2  UNL     1      22.152   0.556  53.128  1.00  0.00    -0.200 NA
HETATM    8  C6  UNL     1      23.225   1.263  52.717  1.00  0.00     0.145 A 
HETATM    9  C14 UNL     1      24.467   0.787  53.095  1.00  0.00     0.042 A 
HETATM   10  C15 UNL     1      25.572   1.496  52.685  1.00  0.00     0.057 A 
HETATM   11  C16 UNL     1      26.841   1.067  53.034  1.00  0.00     0.102 A 
ENDROOT
BRANCH   8  12
HETATM   12  N3  UNL     1      23.024   2.435  51.934  1.00  0.00    -0.335 N 
HETATM   13  C7  UNL     1      23.070   3.801  52.483  1.00  0.00     0.158 C 
BRANCH  12  14
HETATM   14  C8  UNL     1      22.765   2.283  50.542  1.00  0.00     0.035 A 
HETATM   15  C9  UNL     1      23.386   3.062  49.590  1.00  0.00     0.029 A 
HETATM   16  C10 UNL     1      23.115   2.893  48.233  1.00  0.00     0.002 A 
HETATM   17  C11 UNL     1      22.205   1.925  47.812  1.00  0.00     0.000 A 
HETATM   18  C12 UNL     1      21.577   1.141  48.741  1.00  0.00     0.002 A 
HETATM   19  C13 UNL     1      21.874   1.341  50.073  1.00  0.00     0.029 A 
ENDBRANCH  12  14
ENDBRANCH   8  12
BRANCH  11  20
HETATM   20  O2  UNL     1      28.022   1.686  52.688  1.00  0.00    -0.353 OA
HETATM   21  C17 UNL     1      28.725   2.587  53.508  1.00  0.00     0.210 C 
ENDBRANCH  11  20
BRANCH   1  22
HETATM   22  O1  UNL     1      28.150  -0.572  54.182  1.00  0.00    -0.353 OA
HETATM   23  C1  UNL     1      28.891  -1.443  53.369  1.00  0.00     0.210 C 
ENDBRANCH   1  22
TORSDOF 4
ENDMDL
MODEL 2
REMARK VINA RESULT:      -7.8      2.276      5.701
REMARK  4 active torsions:
REMARK  status: ('A' for Active; 'I' for Inactive)
REMARK    1  A    between atoms: O1_2  and  C2_3 
REMARK    2  A    between atoms: C6_10  and  N3_11 
REMARK    3  A    between atoms: N3_11  and  C8_13 
REMARK    4  A    between atoms: C16_21  and  O2_22 
ROOT
HETATM    1  C2  UNL     1      23.047   2.497  49.885  1.00  0.00     0.103 A 
HETATM    2  C3  UNL     1      22.257   1.615  50.586  1.00  0.00     0.072 A 
HETATM    3  C4  UNL     1      22.805   0.964  51.680  1.00  0.00     0.077 A 
HETATM    4  N1  UNL     1      22.055   0.098  52.382  1.00  0.00    -0.218 NA
HETATM    5  C5  UNL     1      22.641  -0.513  53.445  1.00  0.00     0.225 A 
HETATM    6 CL1  UNL     1      21.637  -1.647  54.354  1.00  0.00    -0.041 Cl
HETATM    7  N2  UNL     1      23.913  -0.261  53.777  1.00  0.00    -0.200 NA
HETATM    8  C6  UNL     1      24.689   0.603  53.090  1.00  0.00     0.145 A 
HETATM    9  C14 UNL     1      24.109   1.234  52.005  1.00  0.00     0.042 A 
HETATM   10  C15 UNL     1      24.886   2.119  51.293  1.00  0.00     0.057 A 
HETATM   11  C16 UNL     1      24.359   2.780  50.198  1.00  0.00     0.102 A 
ENDROOT
BRANCH   8  12
HETATM   12  N3  UNL     1      26.032   0.812  53.511  1.00  0.00    -0.335 N 
HETATM   13  C7  UNL     1      26.511   2.065  54.120  1.00  0.00     0.158 C 
BRANCH  12  14
HETATM   14  C8  UNL     1      26.970  -0.246  53.337  1.00  0.00     0.035 A 
HETATM   15  C9  UNL     1      26.622  -1.450  52.765  1.00  0.00     0.029 A 
HETATM   16  C10 UNL     1      27.559  -2.469  52.606  1.00  0.00     0.002 A 
HETATM   17  C11 UNL     1      28.875  -2.287  53.026  1.00  0.00     0.000 A 
HETATM   18  C12 UNL     1      29.243  -1.098  53.597  1.00  0.00     0.002 A 
HETATM   19  C13 UNL     1      28.284  -0.117  53.736  1.00  0.00     0.029 A 
ENDBRANCH  12  14
ENDBRANCH   8  12
BRANCH  11  20
HETATM   20  O2  UNL     1      25.031   3.685  49.406  1.00  0.00    -0.353 OA
HETATM   21  C17 UNL     1      26.423   3.890  49.427  1.00  0.00     0.210 C 
ENDBRANCH  11  20
BRANCH   1  22
HETATM   22  O1  UNL     1      22.450   3.121  48.799  1.00  0.00    -0.353 OA
HETATM   23  C1  UNL     1      21.061   3.306  48.721  1.00  0.00     0.210 C 
ENDBRANCH   1  22
TORSDOF 4
ENDMDL
MODEL 3
REMARK VINA RESULT:      -7.7      2.913      4.073
REMARK  4 active torsions:
REMARK  status: ('A' for Active; 'I' for Inactive)
REMARK    1  A    between atoms: O1_2  and  C2_3 
REMARK    2  A    between atoms: C6_10  and  N3_11 
REMARK    3  A    between atoms: N3_11  and  C8_13 
REMARK    4  A    between atoms: C16_21  and  O2_22 
ROOT
HETATM    1  C2  UNL     1      26.087  -0.175  52.971  1.00  0.00     0.103 A 
HETATM    2  C3  UNL     1      26.805   0.593  52.084  1.00  0.00     0.072 A 
HETATM    3  C4  UNL     1      26.185   1.691  51.509  1.00  0.00     0.077 A 
HETATM    4  N1  UNL     1      26.864   2.458  50.639  1.00  0.00    -0.218 NA
HETATM    5  C5  UNL     1      26.210   3.521  50.104  1.00  0.00     0.225 A 
HETATM    6 CL1  UNL     1      27.121   4.516  48.964  1.00  0.00    -0.041 Cl
HETATM    7  N2  UNL     1      24.940   3.793  50.431  1.00  0.00    -0.200 NA
HETATM    8  C6  UNL     1      24.234   3.040  51.301  1.00  0.00     0.145 A 
HETATM    9  C14 UNL     1      24.885   1.954  51.856  1.00  0.00     0.042 A 
HETATM   10  C15 UNL     1      24.180   1.175  52.744  1.00  0.00     0.057 A 
HETATM   11  C16 UNL     1      24.779   0.075  53.331  1.00  0.00     0.102 A 
ENDROOT
BRANCH   8  12
HETATM   12  N3  UNL     1      22.889   3.399  51.593  1.00  0.00    -0.335 N 
HETATM   13  C7  UNL     1      22.513   4.581  52.389  1.00  0.00     0.158 C 
BRANCH  12  14
HETATM   14  C8  UNL     1      21.842   2.574  51.090  1.00  0.00     0.035 A 
HETATM   15  C9  UNL     1      20.747   2.230  51.852  1.00  0.00     0.029 A 
HETATM   16  C10 UNL     1      19.736   1.421  51.335  1.00  0.00     0.002 A 
HETATM   17  C11 UNL     1      19.816   0.942  50.029  1.00  0.00     0.000 A 
HETATM   18  C12 UNL     1      20.896   1.272  49.255  1.00  0.00     0.002 A 
HETATM   19  C13 UNL     1      21.873   2.074  49.805  1.00  0.00     0.029 A 
ENDBRANCH  12  14
ENDBRANCH   8  12
BRANCH  11  20
HETATM   20  O2  UNL     1      24.184  -0.780  54.232  1.00  0.00    -0.353 OA
HETATM   21  C17 UNL     1      22.794  -0.922  54.404  1.00  0.00     0.210 C 
ENDBRANCH  11  20
BRANCH   1  22
HETATM   22  O1  UNL     1      26.754  -1.261  53.518  1.00  0.00    -0.353 OA
HETATM   23  C1  UNL     1      27.263  -2.297  52.720  1.00  0.00     0.210 C 
ENDBRANCH   1  22
TORSDOF 4
ENDMDL
MODEL 4
REMARK VINA RESULT:      -7.6      1.195      1.646
REMARK  4 active torsions:
REMARK  status: ('A' for Active; 'I' for Inactive)
REMARK    1  A    between atoms: O1_2  and  C2_3 
REMARK    2  A    between atoms: C6_10  and  N3_11 
REMARK    3  A    between atoms: N3_11  and  C8_13 
REMARK    4  A    between atoms: C16_21  and  O2_22 
ROOT
HETATM    1  C2  UNL     1      26.481   0.717  52.659  1.00  0.00     0.103 A 
HETATM    2  C3  UNL     1      25.651  -0.174  53.299  1.00  0.00     0.072 A 
HETATM    3  C4  UNL     1      24.282   0.025  53.219  1.00  0.00     0.077 A 
HETATM    4  N1  UNL     1      23.449  -0.831  53.835  1.00  0.00    -0.218 NA
HETATM    5  C5  UNL     1      22.117  -0.591  53.725  1.00  0.00     0.225 A 
HETATM    6 CL1  UNL     1      21.040  -1.727  54.542  1.00  0.00    -0.041 Cl
HETATM    7  N2  UNL     1      21.654   0.457  53.032  1.00  0.00    -0.200 NA
HETATM    8  C6  UNL     1      22.467   1.332  52.404  1.00  0.00     0.145 A 
HETATM    9  C14 UNL     1      23.826   1.103  52.504  1.00  0.00     0.042 A 
HETATM   10  C15 UNL     1      24.670   1.985  51.870  1.00  0.00     0.057 A 
HETATM   11  C16 UNL     1      26.040   1.805  51.936  1.00  0.00     0.102 A 
ENDROOT
BRANCH   8  12
HETATM   12  N3  UNL     1      21.892   2.420  51.687  1.00  0.00    -0.335 N 
HETATM   13  C7  UNL     1      21.173   3.533  52.331  1.00  0.00     0.158 C 
BRANCH  12  14
HETATM   14  C8  UNL     1      22.017   2.438  50.268  1.00  0.00     0.035 A 
HETATM   15  C9  UNL     1      21.705   1.346  49.489  1.00  0.00     0.029 A 
HETATM   16  C10 UNL     1      21.836   1.391  48.102  1.00  0.00     0.002 A 
HETATM   17  C11 UNL     1      22.288   2.550  47.474  1.00  0.00     0.000 A 
HETATM   18  C12 UNL     1      22.604   3.647  48.230  1.00  0.00     0.002 A 
HETATM   19  C13 UNL     1      22.460   3.559  49.599  1.00  0.00     0.029 A 
ENDBRANCH  12  14
ENDBRANCH   8  12
BRANCH  11  20
HETATM   20  O2  UNL     1      26.986   2.615  51.348  1.00  0.00    -0.353 OA
HETATM   21  C17 UNL     1      26.755   3.433  50.226  1.00  0.00     0.210 C 
ENDBRANCH  11  20
BRANCH   1  22
HETATM   22  O1  UNL     1      27.842   0.472  52.770  1.00  0.00    -0.353 OA
HETATM   23  C1  UNL     1      28.339  -0.748  53.252  1.00  0.00     0.210 C 
ENDBRANCH   1  22
TORSDOF 4
ENDMDL
MODEL 5
REMARK VINA RESULT:      -7.2      1.673      2.755
REMARK  4 active torsions:
REMARK  status: ('A' for Active; 'I' for Inactive)
REMARK    1  A    between atoms: O1_2  and  C2_3 
REMARK    2  A    between atoms: C6_10  and  N3_11 
REMARK    3  A    between atoms: N3_11  and  C8_13 
REMARK    4  A    between atoms: C16_21  and  O2_22 
ROOT
HETATM    1  C2  UNL     1      26.927   1.748  52.406  1.00  0.00     0.103 A 
HETATM    2  C3  UNL     1      26.258   0.887  53.246  1.00  0.00     0.072 A 
HETATM    3  C4  UNL     1      24.910   0.660  53.020  1.00  0.00     0.077 A 
HETATM    4  N1  UNL     1      24.233  -0.175  53.826  1.00  0.00    -0.218 NA
HETATM    5  C5  UNL     1      22.914  -0.363  53.561  1.00  0.00     0.225 A 
HETATM    6 CL1  UNL     1      22.043  -1.465  54.631  1.00  0.00    -0.041 Cl
HETATM    7  N2  UNL     1      22.315   0.261  52.539  1.00  0.00    -0.200 NA
HETATM    8  C6  UNL     1      22.969   1.106  51.715  1.00  0.00     0.145 A 
HETATM    9  C14 UNL     1      24.313   1.308  51.969  1.00  0.00     0.042 A 
HETATM   10  C15 UNL     1      24.996   2.166  51.139  1.00  0.00     0.057 A 
HETATM   11  C16 UNL     1      26.343   2.406  51.346  1.00  0.00     0.102 A 
ENDROOT
BRANCH   8  12
HETATM   12  N3  UNL     1      22.256   1.728  50.653  1.00  0.00    -0.335 N 
HETATM   13  C7  UNL     1      21.671   0.989  49.520  1.00  0.00     0.158 C 
BRANCH  12  14
HETATM   14  C8  UNL     1      22.094   3.143  50.681  1.00  0.00     0.035 A 
HETATM   15  C9  UNL     1      21.773   3.823  51.836  1.00  0.00     0.029 A 
HETATM   16  C10 UNL     1      21.621   5.208  51.837  1.00  0.00     0.002 A 
HETATM   17  C11 UNL     1      21.795   5.936  50.662  1.00  0.00     0.000 A 
HETATM   18  C12 UNL     1      22.115   5.281  49.503  1.00  0.00     0.002 A 
HETATM   19  C13 UNL     1      22.255   3.909  49.547  1.00  0.00     0.029 A 
ENDBRANCH  12  14
ENDBRANCH   8  12
BRANCH  11  20
HETATM   20  O2  UNL     1      27.135   3.240  50.588  1.00  0.00    -0.353 OA
HETATM   21  C17 UNL     1      26.712   3.910  49.425  1.00  0.00     0.210 C 
ENDBRANCH  11  20
BRANCH   1  22
HETATM   22  O1  UNL     1      28.275   1.940  52.675  1.00  0.00    -0.353 OA
HETATM   23  C1  UNL     1      28.848   1.559  53.898  1.00  0.00     0.210 C 
ENDBRANCH   1  22
TORSDOF 4
ENDMDL
MODEL 6
REMARK VINA RESULT:      -6.8      3.845      5.352
REMARK  4 active torsions:
REMARK  status: ('A' for Active; 'I' for Inactive)
REMARK    1  A    between atoms: O1_2  and  C2_3 
REMARK    2  A    between atoms: C6_10  and  N3_11 
REMARK    3  A    between atoms: N3_11  and  C8_13 
REMARK    4  A    between atoms: C16_21  and  O2_22 
ROOT
HETATM    1  C2  UNL     1      25.089   1.286  51.811  1.00  0.00     0.103 A 
HETATM    2  C3  UNL     1      26.204   1.874  51.260  1.00  0.00     0.072 A 
HETATM    3  C4  UNL     1      26.032   2.985  50.450  1.00  0.00     0.077 A 
HETATM    4  N1  UNL     1      27.104   3.579  49.899  1.00  0.00    -0.218 NA
HETATM    5  C5  UNL     1      26.880   4.663  49.113  1.00  0.00     0.225 A 
HETATM    6 CL1  UNL     1      28.304   5.429  48.401  1.00  0.00    -0.041 Cl
HETATM    7  N2  UNL     1      25.641   5.120  48.896  1.00  0.00    -0.200 NA
HETATM    8  C6  UNL     1      24.546   4.544  49.434  1.00  0.00     0.145 A 
HETATM    9  C14 UNL     1      24.755   3.439  50.239  1.00  0.00     0.042 A 
HETATM   10  C15 UNL     1      23.650   2.838  50.796  1.00  0.00     0.057 A 
HETATM   11  C16 UNL     1      23.799   1.729  51.609  1.00  0.00     0.102 A 
ENDROOT
BRANCH   8  12
HETATM   12  N3  UNL     1      23.264   5.094  49.152  1.00  0.00    -0.335 N 
HETATM   13  C7  UNL     1      22.459   5.836  50.137  1.00  0.00     0.158 C 
BRANCH  12  14
HETATM   14  C8  UNL     1      22.725   4.920  47.845  1.00  0.00     0.035 A 
HETATM   15  C9  UNL     1      22.278   3.698  47.390  1.00  0.00     0.029 A 
HETATM   16  C10 UNL     1      21.754   3.556  46.107  1.00  0.00     0.002 A 
HETATM   17  C11 UNL     1      21.672   4.654  45.254  1.00  0.00     0.000 A 
HETATM   18  C12 UNL     1      22.111   5.877  45.685  1.00  0.00     0.002 A 
HETATM   19  C13 UNL     1      22.622   5.974  46.962  1.00  0.00     0.029 A 
ENDBRANCH  12  14
ENDBRANCH   8  12
BRANCH  11  20
HETATM   20  O2  UNL     1      22.777   1.040  52.224  1.00  0.00    -0.353 OA
HETATM   21  C17 UNL     1      21.671   0.483  51.556  1.00  0.00     0.210 C 
ENDBRANCH  11  20
BRANCH   1  22
HETATM   22  O1  UNL     1      25.316   0.178  52.615  1.00  0.00    -0.353 OA
HETATM   23  C1  UNL     1      26.509  -0.558  52.543  1.00  0.00     0.210 C 
ENDBRANCH   1  22
TORSDOF 4
ENDMDL
MODEL 7
REMARK VINA RESULT:      -6.8      9.626     11.386
REMARK  4 active torsions:
REMARK  status: ('A' for Active; 'I' for Inactive)
REMARK    1  A    between atoms: O1_2  and  C2_3 
REMARK    2  A    between atoms: C6_10  and  N3_11 
REMARK    3  A    between atoms: N3_11  and  C8_13 
REMARK    4  A    between atoms: C16_21  and  O2_22 
ROOT
HETATM    1  C2  UNL     1      33.008   5.916  43.747  1.00  0.00     0.103 A 
HETATM    2  C3  UNL     1      33.281   4.701  44.333  1.00  0.00     0.072 A 
HETATM    3  C4  UNL     1      32.914   4.508  45.655  1.00  0.00     0.077 A 
HETATM    4  N1  UNL     1      33.169   3.331  46.251  1.00  0.00    -0.218 NA
HETATM    5  C5  UNL     1      32.788   3.195  47.548  1.00  0.00     0.225 A 
HETATM    6 CL1  UNL     1      33.132   1.640  48.312  1.00  0.00    -0.041 Cl
HETATM    7  N2  UNL     1      32.185   4.194  48.204  1.00  0.00    -0.200 NA
HETATM    8  C6  UNL     1      31.917   5.386  47.631  1.00  0.00     0.145 A 
HETATM    9  C14 UNL     1      32.296   5.542  46.311  1.00  0.00     0.042 A 
HETATM   10  C15 UNL     1      32.031   6.751  45.711  1.00  0.00     0.057 A 
HETATM   11  C16 UNL     1      32.389   6.965  44.392  1.00  0.00     0.102 A 
ENDROOT
BRANCH   8  12
HETATM   12  N3  UNL     1      31.272   6.394  48.401  1.00  0.00    -0.335 N 
HETATM   13  C7  UNL     1      31.993   7.370  49.236  1.00  0.00     0.158 C 
BRANCH  12  14
HETATM   14  C8  UNL     1      29.850   6.469  48.364  1.00  0.00     0.035 A 
HETATM   15  C9  UNL     1      29.052   5.347  48.435  1.00  0.00     0.029 A 
HETATM   16  C10 UNL     1      27.663   5.448  48.398  1.00  0.00     0.002 A 
HETATM   17  C11 UNL     1      27.050   6.695  48.287  1.00  0.00     0.000 A 
HETATM   18  C12 UNL     1      27.824   7.822  48.214  1.00  0.00     0.002 A 
HETATM   19  C13 UNL     1      29.194   7.677  48.255  1.00  0.00     0.029 A 
ENDBRANCH  12  14
ENDBRANCH   8  12
BRANCH  11  20
HETATM   20  O2  UNL     1      32.179   8.126  43.680  1.00  0.00    -0.353 OA
HETATM   21  C17 UNL     1      32.561   9.410  44.111  1.00  0.00     0.210 C 
ENDBRANCH  11  20
BRANCH   1  22
HETATM   22  O1  UNL     1      33.396   6.056  42.423  1.00  0.00    -0.353 OA
HETATM   23  C1  UNL     1      34.699   5.759  41.996  1.00  0.00     0.210 C 
ENDBRANCH   1  22
TORSDOF 4
ENDMDL
MODEL 8
REMARK VINA RESULT:      -6.7      3.885      5.970
REMARK  4 active torsions:
REMARK  status: ('A' for Active; 'I' for Inactive)
REMARK    1  A    between atoms: O1_2  and  C2_3 
REMARK    2  A    between atoms: C6_10  and  N3_11 
REMARK    3  A    between atoms: N3_11  and  C8_13 
REMARK    4  A    between atoms: C16_21  and  O2_22 
ROOT
HETATM    1  C2  UNL     1      19.139  -0.548  53.118  1.00  0.00     0.103 A 
HETATM    2  C3  UNL     1      20.330  -0.854  53.737  1.00  0.00     0.072 A 
HETATM    3  C4  UNL     1      21.499  -0.325  53.214  1.00  0.00     0.077 A 
HETATM    4  N1  UNL     1      22.675  -0.608  53.799  1.00  0.00    -0.218 NA
HETATM    5  C5  UNL     1      23.791  -0.064  53.247  1.00  0.00     0.225 A 
HETATM    6 CL1  UNL     1      25.326  -0.448  54.032  1.00  0.00    -0.041 Cl
HETATM    7  N2  UNL     1      23.720   0.720  52.165  1.00  0.00    -0.200 NA
HETATM    8  C6  UNL     1      22.553   1.021  51.557  1.00  0.00     0.145 A 
HETATM    9  C14 UNL     1      21.407   0.476  52.106  1.00  0.00     0.042 A 
HETATM   10  C15 UNL     1      20.208   0.772  51.499  1.00  0.00     0.057 A 
HETATM   11  C16 UNL     1      19.028   0.255  52.004  1.00  0.00     0.102 A 
ENDROOT
BRANCH   8  12
HETATM   12  N3  UNL     1      22.567   1.863  50.410  1.00  0.00    -0.335 N 
HETATM   13  C7  UNL     1      22.012   1.471  49.103  1.00  0.00     0.158 C 
BRANCH  12  14
HETATM   14  C8  UNL     1      23.147   3.159  50.528  1.00  0.00     0.035 A 
HETATM   15  C9  UNL     1      24.194   3.570  49.733  1.00  0.00     0.029 A 
HETATM   16  C10 UNL     1      24.744   4.844  49.868  1.00  0.00     0.002 A 
HETATM   17  C11 UNL     1      24.239   5.731  50.816  1.00  0.00     0.000 A 
HETATM   18  C12 UNL     1      23.198   5.343  51.616  1.00  0.00     0.002 A 
HETATM   19  C13 UNL     1      22.685   4.074  51.449  1.00  0.00     0.029 A 
ENDBRANCH  12  14
ENDBRANCH   8  12
BRANCH  11  20
HETATM   20  O2  UNL     1      17.769   0.475  51.489  1.00  0.00    -0.353 OA
HETATM   21  C17 UNL     1      17.276  -0.102  50.305  1.00  0.00     0.210 C 
ENDBRANCH  11  20
BRANCH   1  22
HETATM   22  O1  UNL     1      17.999  -1.103  53.681  1.00  0.00    -0.353 OA
HETATM   23  C1  UNL     1      17.721  -2.475  53.596  1.00  0.00     0.210 C 
ENDBRANCH   1  22
TORSDOF 4
ENDMDL
MODEL 9
REMARK VINA RESULT:      -6.6      1.861      2.903
REMARK  4 active torsions:
REMARK  status: ('A' for Active; 'I' for Inactive)
REMARK    1  A    between atoms: O1_2  and  C2_3 
REMARK    2  A    between atoms: C6_10  and  N3_11 
REMARK    3  A    between atoms: N3_11  and  C8_13 
REMARK    4  A    between atoms: C16_21  and  O2_22 
ROOT
HETATM    1  C2  UNL     1      24.851  -0.159  53.349  1.00  0.00     0.103 A 
HETATM    2  C3  UNL     1      23.553  -0.529  53.617  1.00  0.00     0.072 A 
HETATM    3  C4  UNL     1      22.540  -0.005  52.829  1.00  0.00     0.077 A 
HETATM    4  N1  UNL     1      21.265  -0.351  53.070  1.00  0.00    -0.218 NA
HETATM    5  C5  UNL     1      20.311   0.192  52.269  1.00  0.00     0.225 A 
HETATM    6 CL1  UNL     1      18.641  -0.276  52.601  1.00  0.00    -0.041 Cl
HETATM    7  N2  UNL     1      20.632   1.037  51.281  1.00  0.00    -0.200 NA
HETATM    8  C6  UNL     1      21.903   1.403  51.017  1.00  0.00     0.145 A 
HETATM    9  C14 UNL     1      22.888   0.859  51.823  1.00  0.00     0.042 A 
HETATM   10  C15 UNL     1      24.190   1.221  51.568  1.00  0.00     0.057 A 
HETATM   11  C16 UNL     1      25.216   0.708  52.342  1.00  0.00     0.102 A 
ENDROOT
BRANCH   8  12
HETATM   12  N3  UNL     1      22.157   2.307  49.948  1.00  0.00    -0.335 N 
HETATM   13  C7  UNL     1      22.129   1.919  48.527  1.00  0.00     0.158 C 
BRANCH  12  14
HETATM   14  C8  UNL     1      22.453   3.664  50.264  1.00  0.00     0.035 A 
HETATM   15  C9  UNL     1      23.559   4.312  49.757  1.00  0.00     0.029 A 
HETATM   16  C10 UNL     1      23.826   5.641  50.082  1.00  0.00     0.002 A 
HETATM   17  C11 UNL     1      22.973   6.344  50.930  1.00  0.00     0.000 A 
HETATM   18  C12 UNL     1      21.869   5.719  51.445  1.00  0.00     0.002 A 
HETATM   19  C13 UNL     1      21.642   4.403  51.098  1.00  0.00     0.029 A 
ENDBRANCH  12  14
ENDBRANCH   8  12
BRANCH  11  20
HETATM   20  O2  UNL     1      26.556   0.991  52.189  1.00  0.00    -0.353 OA
HETATM   21  C17 UNL     1      27.099   2.288  52.122  1.00  0.00     0.210 C 
ENDBRANCH  11  20
BRANCH   1  22
HETATM   22  O1  UNL     1      25.825  -0.712  54.166  1.00  0.00    -0.353 OA
HETATM   23  C1  UNL     1      26.256  -0.079  55.342  1.00  0.00     0.210 C 
ENDBRANCH   1  22
TORSDOF 4
ENDMDL
