MODEL 1
REMARK VINA RESULT:      -9.5      0.000      0.000
REMARK  4 active torsions:
REMARK  status: ('A' for Active; 'I' for Inactive)
REMARK    1  A    between atoms: C6_7  and  C7_8 
REMARK    2  A    between atoms: C7_8  and  N2_9 
REMARK       I    between atoms: N2_9  and  C8_10 
REMARK       I    between atoms: C8_10  and  N3_12 
REMARK    3  A    between atoms: N3_12  and  C9_13 
REMARK    4  A    between atoms: C14_19  and  N5_20 
ROOT
HETATM    1  C9  UNL     1      23.913   2.858  52.157  1.00  0.00     0.026 A 
HETATM    2  C10 UNL     1      22.588   2.914  51.928  1.00  0.00     0.028 A 
HETATM    3  C11 UNL     1      21.937   1.747  52.520  1.00  0.00     0.030 A 
HETATM    4  C12 UNL     1      22.904   1.019  53.087  1.00  0.00     0.046 A 
HETATM    5  N4  UNL     1      23.323  -0.151  53.831  1.00  0.00    -0.267 NA
HETATM    6  C13 UNL     1      24.566  -0.453  53.486  1.00  0.00     0.116 C 
HETATM    7  C14 UNL     1      25.058   0.580  52.433  1.00  0.00     0.140 C 
HETATM    8  C20 UNL     1      24.259   1.728  52.943  1.00  0.00     0.115 A 
ENDROOT
BRANCH   1   9
HETATM    9  N3  UNL     1      24.670   3.930  51.627  1.00  0.00    -0.312 N 
HETATM   10  C8  UNL     1      25.525   3.973  50.530  1.00  0.00     0.320 C 
HETATM   11  N2  UNL     1      26.243   5.108  50.071  1.00  0.00    -0.341 N 
HETATM   12  O1  UNL     1      25.728   2.948  49.835  1.00  0.00    -0.247 OA
HETATM   13  H15 UNL     1      26.122   6.016  50.610  1.00  0.00     0.164 HD
HETATM   14  H16 UNL     1      24.612   4.859  52.088  1.00  0.00     0.170 HD
BRANCH  11  15
HETATM   15  C7  UNL     1      27.069   4.890  48.903  1.00  0.00     0.160 C 
BRANCH  15  16
HETATM   16  C6  UNL     1      27.619   6.107  48.286  1.00  0.00     0.241 C 
HETATM   17  C2  UNL     1      26.813   7.345  48.426  1.00  0.00     0.016 C 
HETATM   18  C1  UNL     1      26.671   8.063  47.092  1.00  0.00     0.012 C 
HETATM   19  C3  UNL     1      27.537   8.334  49.338  1.00  0.00     0.008 C 
HETATM   20  C4  UNL     1      28.883   8.674  48.730  1.00  0.00     0.030 C 
HETATM   21  C5  UNL     1      29.610   7.430  48.318  1.00  0.00     0.270 C 
HETATM   22  N1  UNL     1      28.941   6.306  48.899  1.00  0.00     0.090 N 
HETATM   23  H11 UNL     1      28.899   6.301  49.933  1.00  0.00     0.316 HD
ENDBRANCH  15  16
ENDBRANCH  11  15
ENDBRANCH   1   9
BRANCH   7  24
HETATM   24  N5  UNL     1      26.446   0.772  52.761  1.00  0.00    -0.374 N 
HETATM   25  C15 UNL     1      27.038  -0.553  52.801  1.00  0.00     0.113 A 
HETATM   26  C16 UNL     1      28.303  -0.895  53.130  1.00  0.00     0.087 A 
HETATM   27 CL1  UNL     1      29.045  -2.487  53.191  1.00  0.00    -0.080 Cl
HETATM   28  C17 UNL     1      29.235   0.200  53.470  1.00  0.00     0.137 A 
HETATM   29  F1  UNL     1      30.534   0.071  53.828  1.00  0.00    -0.205 F 
HETATM   30  C18 UNL     1      28.702   1.395  53.402  1.00  0.00     0.037 A 
HETATM   31  C19 UNL     1      27.344   1.875  53.048  1.00  0.00     0.153 A 
ENDBRANCH   7  24
TORSDOF 4
ENDMDL
MODEL 2
REMARK VINA RESULT:      -9.0      1.750      2.380
REMARK  4 active torsions:
REMARK  status: ('A' for Active; 'I' for Inactive)
REMARK    1  A    between atoms: C6_7  and  C7_8 
REMARK    2  A    between atoms: C7_8  and  N2_9 
REMARK       I    between atoms: N2_9  and  C8_10 
REMARK       I    between atoms: C8_10  and  N3_12 
REMARK    3  A    between atoms: N3_12  and  C9_13 
REMARK    4  A    between atoms: C14_19  and  N5_20 
ROOT
HETATM    1  C9  UNL     1      22.611   1.002  52.292  1.00  0.00     0.026 A 
HETATM    2  C10 UNL     1      21.361   0.515  52.176  1.00  0.00     0.028 A 
HETATM    3  C11 UNL     1      21.112  -0.460  53.236  1.00  0.00     0.030 A 
HETATM    4  C12 UNL     1      22.234  -0.530  53.960  1.00  0.00     0.046 A 
HETATM    5  N4  UNL     1      22.982  -1.089  55.067  1.00  0.00    -0.267 NA
HETATM    6  C13 UNL     1      24.272  -1.070  54.764  1.00  0.00     0.116 C 
HETATM    7  C14 UNL     1      24.444  -0.448  53.349  1.00  0.00     0.140 C 
HETATM    8  C20 UNL     1      23.274   0.469  53.429  1.00  0.00     0.115 A 
ENDROOT
BRANCH   1   9
HETATM    9  N3  UNL     1      22.988   1.955  51.317  1.00  0.00    -0.312 N 
HETATM   10  C8  UNL     1      23.330   3.298  51.456  1.00  0.00     0.320 C 
HETATM   11  N2  UNL     1      23.701   4.179  50.407  1.00  0.00    -0.341 N 
HETATM   12  O1  UNL     1      23.333   3.845  52.584  1.00  0.00    -0.247 OA
HETATM   13  H15 UNL     1      23.722   3.786  49.420  1.00  0.00     0.164 HD
HETATM   14  H16 UNL     1      23.039   1.661  50.323  1.00  0.00     0.170 HD
BRANCH  11  15
HETATM   15  C7  UNL     1      24.012   5.532  50.815  1.00  0.00     0.160 C 
BRANCH  15  16
HETATM   16  C6  UNL     1      25.288   6.063  50.311  1.00  0.00     0.241 C 
HETATM   17  C2  UNL     1      25.608   5.784  48.889  1.00  0.00     0.016 C 
HETATM   18  C1  UNL     1      27.031   5.269  48.737  1.00  0.00     0.012 C 
HETATM   19  C3  UNL     1      25.565   7.082  48.084  1.00  0.00     0.008 C 
HETATM   20  C4  UNL     1      26.583   8.050  48.651  1.00  0.00     0.030 C 
HETATM   21  C5  UNL     1      26.461   8.140  50.141  1.00  0.00     0.270 C 
HETATM   22  N1  UNL     1      25.232   7.517  50.529  1.00  0.00     0.090 N 
HETATM   23  H11 UNL     1      24.376   7.941  50.132  1.00  0.00     0.316 HD
ENDBRANCH  15  16
ENDBRANCH  11  15
ENDBRANCH   1   9
BRANCH   7  24
HETATM   24  N5  UNL     1      25.662   0.311  53.452  1.00  0.00    -0.374 N 
HETATM   25  C15 UNL     1      26.746  -0.650  53.352  1.00  0.00     0.113 A 
HETATM   26  C16 UNL     1      28.073  -0.428  53.459  1.00  0.00     0.087 A 
HETATM   27 CL1  UNL     1      29.406  -1.570  53.346  1.00  0.00    -0.080 Cl
HETATM   28  C17 UNL     1      28.513   0.966  53.678  1.00  0.00     0.137 A 
HETATM   29  F1  UNL     1      29.789   1.396  53.816  1.00  0.00    -0.205 F 
HETATM   30  C18 UNL     1      27.532   1.831  53.736  1.00  0.00     0.037 A 
HETATM   31  C19 UNL     1      26.059   1.696  53.624  1.00  0.00     0.153 A 
ENDBRANCH   7  24
TORSDOF 4
ENDMDL
MODEL 3
REMARK VINA RESULT:      -8.9      2.891      4.406
REMARK  4 active torsions:
REMARK  status: ('A' for Active; 'I' for Inactive)
REMARK    1  A    between atoms: C6_7  and  C7_8 
REMARK    2  A    between atoms: C7_8  and  N2_9 
REMARK       I    between atoms: N2_9  and  C8_10 
REMARK       I    between atoms: C8_10  and  N3_12 
REMARK    3  A    between atoms: N3_12  and  C9_13 
REMARK    4  A    between atoms: C14_19  and  N5_20 
ROOT
HETATM    1  C9  UNL     1      27.038   1.784  52.515  1.00  0.00     0.026 A 
HETATM    2  C10 UNL     1      28.314   1.728  52.943  1.00  0.00     0.028 A 
HETATM    3  C11 UNL     1      28.606   0.385  53.443  1.00  0.00     0.030 A 
HETATM    4  C12 UNL     1      27.482  -0.326  53.302  1.00  0.00     0.046 A 
HETATM    5  N4  UNL     1      26.756  -1.570  53.453  1.00  0.00    -0.267 NA
HETATM    6  C13 UNL     1      25.470  -1.296  53.616  1.00  0.00     0.116 C 
HETATM    7  C14 UNL     1      25.277   0.247  53.570  1.00  0.00     0.140 C 
HETATM    8  C20 UNL     1      26.395   0.524  52.626  1.00  0.00     0.115 A 
ENDROOT
BRANCH   1   9
HETATM    9  N3  UNL     1      26.619   3.037  52.010  1.00  0.00    -0.312 N 
HETATM   10  C8  UNL     1      26.547   3.502  50.700  1.00  0.00     0.320 C 
HETATM   11  N2  UNL     1      26.105   4.786  50.290  1.00  0.00    -0.341 N 
HETATM   12  O1  UNL     1      26.888   2.769  49.740  1.00  0.00    -0.247 OA
HETATM   13  H15 UNL     1      25.798   5.465  51.048  1.00  0.00     0.164 HD
HETATM   14  H16 UNL     1      26.298   3.764  52.678  1.00  0.00     0.170 HD
BRANCH  11  15
HETATM   15  C7  UNL     1      26.125   5.024  48.863  1.00  0.00     0.160 C 
BRANCH  15  16
HETATM   16  C6  UNL     1      26.598   6.355  48.453  1.00  0.00     0.241 C 
HETATM   17  C2  UNL     1      25.796   7.516  48.913  1.00  0.00     0.016 C 
HETATM   18  C1  UNL     1      25.516   8.479  47.770  1.00  0.00     0.012 C 
HETATM   19  C3  UNL     1      26.596   8.326  49.933  1.00  0.00     0.008 C 
HETATM   20  C4  UNL     1      27.871   8.820  49.281  1.00  0.00     0.030 C 
HETATM   21  C5  UNL     1      28.568   7.705  48.562  1.00  0.00     0.270 C 
HETATM   22  N1  UNL     1      27.972   6.469  48.966  1.00  0.00     0.090 N 
HETATM   23  H11 UNL     1      28.032   6.257  49.977  1.00  0.00     0.316 HD
ENDBRANCH  15  16
ENDBRANCH  11  15
ENDBRANCH   1   9
BRANCH   7  24
HETATM   24  N5  UNL     1      24.019   0.416  52.893  1.00  0.00    -0.374 N 
HETATM   25  C15 UNL     1      23.064  -0.416  53.603  1.00  0.00     0.113 A 
HETATM   26  C16 UNL     1      21.766  -0.641  53.305  1.00  0.00     0.087 A 
HETATM   27 CL1  UNL     1      20.589  -1.644  54.142  1.00  0.00    -0.080 Cl
HETATM   28  C17 UNL     1      21.209   0.059  52.129  1.00  0.00     0.137 A 
HETATM   29  F1  UNL     1      19.942  -0.032  51.663  1.00  0.00    -0.205 F 
HETATM   30  C18 UNL     1      22.068   0.832  51.512  1.00  0.00     0.037 A 
HETATM   31  C19 UNL     1      23.495   1.151  51.758  1.00  0.00     0.153 A 
ENDBRANCH   7  24
TORSDOF 4
ENDMDL
MODEL 4
REMARK VINA RESULT:      -8.7      2.994      4.070
REMARK  4 active torsions:
REMARK  status: ('A' for Active; 'I' for Inactive)
REMARK    1  A    between atoms: C6_7  and  C7_8 
REMARK    2  A    between atoms: C7_8  and  N2_9 
REMARK       I    between atoms: N2_9  and  C8_10 
REMARK       I    between atoms: C8_10  and  N3_12 
REMARK    3  A    between atoms: N3_12  and  C9_13 
REMARK    4  A    between atoms: C14_19  and  N5_20 
ROOT
HETATM    1  C9  UNL     1      21.471   0.202  52.759  1.00  0.00     0.026 A 
HETATM    2  C10 UNL     1      20.380  -0.562  52.953  1.00  0.00     0.028 A 
HETATM    3  C11 UNL     1      20.585  -1.425  54.116  1.00  0.00     0.030 A 
HETATM    4  C12 UNL     1      21.807  -1.149  54.583  1.00  0.00     0.046 A 
HETATM    5  N4  UNL     1      22.866  -1.381  55.543  1.00  0.00    -0.267 NA
HETATM    6  C13 UNL     1      24.029  -1.113  54.969  1.00  0.00     0.116 C 
HETATM    7  C14 UNL     1      23.770  -0.655  53.505  1.00  0.00     0.140 C 
HETATM    8  C20 UNL     1      22.449  -0.019  53.764  1.00  0.00     0.115 A 
ENDROOT
BRANCH   1   9
HETATM    9  N3  UNL     1      21.410   1.083  51.654  1.00  0.00    -0.312 N 
HETATM   10  C8  UNL     1      21.339   2.473  51.612  1.00  0.00     0.320 C 
HETATM   11  N2  UNL     1      21.285   3.274  50.443  1.00  0.00    -0.341 N 
HETATM   12  O1  UNL     1      21.319   3.145  52.671  1.00  0.00    -0.247 OA
HETATM   13  H15 UNL     1      21.298   2.774  49.504  1.00  0.00     0.164 HD
HETATM   14  H16 UNL     1      21.420   0.685  50.695  1.00  0.00     0.170 HD
BRANCH  11  15
HETATM   15  C7  UNL     1      21.216   4.701  50.670  1.00  0.00     0.160 C 
BRANCH  15  16
HETATM   16  C6  UNL     1      22.378   5.470  50.196  1.00  0.00     0.241 C 
HETATM   17  C2  UNL     1      23.604   5.404  51.030  1.00  0.00     0.016 C 
HETATM   18  C1  UNL     1      24.179   6.790  51.274  1.00  0.00     0.012 C 
HETATM   19  C3  UNL     1      24.698   4.641  50.283  1.00  0.00     0.008 C 
HETATM   20  C4  UNL     1      25.007   5.364  48.987  1.00  0.00     0.030 C 
HETATM   21  C5  UNL     1      23.746   5.695  48.248  1.00  0.00     0.270 C 
HETATM   22  N1  UNL     1      22.671   4.964  48.846  1.00  0.00     0.090 N 
HETATM   23  H11 UNL     1      22.769   3.934  48.825  1.00  0.00     0.316 HD
ENDBRANCH  15  16
ENDBRANCH  11  15
ENDBRANCH   1   9
BRANCH   7  24
HETATM   24  N5  UNL     1      24.762   0.364  53.283  1.00  0.00    -0.374 N 
HETATM   25  C15 UNL     1      25.950  -0.067  53.999  1.00  0.00     0.113 A 
HETATM   26  C16 UNL     1      27.123   0.586  54.143  1.00  0.00     0.087 A 
HETATM   27 CL1  UNL     1      28.573   0.093  55.005  1.00  0.00    -0.080 Cl
HETATM   28  C17 UNL     1      27.256   1.897  53.475  1.00  0.00     0.137 A 
HETATM   29  F1  UNL     1      28.339   2.708  53.499  1.00  0.00    -0.205 F 
HETATM   30  C18 UNL     1      26.191   2.265  52.806  1.00  0.00     0.037 A 
HETATM   31  C19 UNL     1      24.872   1.627  52.579  1.00  0.00     0.153 A 
ENDBRANCH   7  24
TORSDOF 4
ENDMDL
MODEL 5
REMARK VINA RESULT:      -8.6      3.273      4.814
REMARK  4 active torsions:
REMARK  status: ('A' for Active; 'I' for Inactive)
REMARK    1  A    between atoms: C6_7  and  C7_8 
REMARK    2  A    between atoms: C7_8  and  N2_9 
REMARK       I    between atoms: N2_9  and  C8_10 
REMARK       I    between atoms: C8_10  and  N3_12 
REMARK    3  A    between atoms: N3_12  and  C9_13 
REMARK    4  A    between atoms: C14_19  and  N5_20 
ROOT
HETATM    1  C9  UNL     1      26.238   1.647  52.259  1.00  0.00     0.026 A 
HETATM    2  C10 UNL     1      27.092   0.818  52.888  1.00  0.00     0.028 A 
HETATM    3  C11 UNL     1      26.357  -0.321  53.436  1.00  0.00     0.030 A 
HETATM    4  C12 UNL     1      25.072  -0.134  53.117  1.00  0.00     0.046 A 
HETATM    5  N4  UNL     1      23.692  -0.572  53.154  1.00  0.00    -0.267 NA
HETATM    6  C13 UNL     1      22.905   0.493  53.104  1.00  0.00     0.116 C 
HETATM    7  C14 UNL     1      23.792   1.767  53.020  1.00  0.00     0.140 C 
HETATM    8  C20 UNL     1      24.913   1.138  52.270  1.00  0.00     0.115 A 
ENDROOT
BRANCH   1   9
HETATM    9  N3  UNL     1      26.821   2.802  51.686  1.00  0.00    -0.312 N 
HETATM   10  C8  UNL     1      26.572   3.427  50.467  1.00  0.00     0.320 C 
HETATM   11  N2  UNL     1      27.212   4.595  49.979  1.00  0.00    -0.341 N 
HETATM   12  O1  UNL     1      25.713   2.968  49.676  1.00  0.00    -0.247 OA
HETATM   13  H15 UNL     1      27.953   5.043  50.595  1.00  0.00     0.164 HD
HETATM   14  H16 UNL     1      27.554   3.309  52.218  1.00  0.00     0.170 HD
BRANCH  11  15
HETATM   15  C7  UNL     1      26.771   5.046  48.676  1.00  0.00     0.160 C 
BRANCH  15  16
HETATM   16  C6  UNL     1      26.140   6.375  48.652  1.00  0.00     0.241 C 
HETATM   17  C2  UNL     1      24.657   6.408  48.705  1.00  0.00     0.016 C 
HETATM   18  C1  UNL     1      24.089   7.336  47.642  1.00  0.00     0.012 C 
HETATM   19  C3  UNL     1      24.199   6.997  50.038  1.00  0.00     0.008 C 
HETATM   20  C4  UNL     1      24.741   8.407  50.167  1.00  0.00     0.030 C 
HETATM   21  C5  UNL     1      26.202   8.447  49.842  1.00  0.00     0.270 C 
HETATM   22  N1  UNL     1      26.692   7.103  49.805  1.00  0.00     0.090 N 
HETATM   23  H11 UNL     1      26.596   6.572  50.687  1.00  0.00     0.316 HD
ENDBRANCH  15  16
ENDBRANCH  11  15
ENDBRANCH   1   9
BRANCH   7  24
HETATM   24  N5  UNL     1      23.056   2.642  52.147  1.00  0.00    -0.374 N 
HETATM   25  C15 UNL     1      22.777   1.874  50.947  1.00  0.00     0.113 A 
HETATM   26  C16 UNL     1      22.168   2.283  49.814  1.00  0.00     0.087 A 
HETATM   27 CL1  UNL     1      21.821   1.379  48.347  1.00  0.00    -0.080 Cl
HETATM   28  C17 UNL     1      21.684   3.679  49.769  1.00  0.00     0.137 A 
HETATM   29  F1  UNL     1      21.056   4.282  48.733  1.00  0.00    -0.205 F 
HETATM   30  C18 UNL     1      21.912   4.357  50.867  1.00  0.00     0.037 A 
HETATM   31  C19 UNL     1      22.558   4.004  52.155  1.00  0.00     0.153 A 
ENDBRANCH   7  24
TORSDOF 4
ENDMDL
MODEL 6
REMARK VINA RESULT:      -8.5      4.136      5.960
REMARK  4 active torsions:
REMARK  status: ('A' for Active; 'I' for Inactive)
REMARK    1  A    between atoms: C6_7  and  C7_8 
REMARK    2  A    between atoms: C7_8  and  N2_9 
REMARK       I    between atoms: N2_9  and  C8_10 
REMARK       I    between atoms: C8_10  and  N3_12 
REMARK    3  A    between atoms: N3_12  and  C9_13 
REMARK    4  A    between atoms: C14_19  and  N5_20 
ROOT
HETATM    1  C9  UNL     1      23.982   0.494  52.815  1.00  0.00     0.026 A 
HETATM    2  C10 UNL     1      25.084   0.333  53.572  1.00  0.00     0.028 A 
HETATM    3  C11 UNL     1      24.801  -0.602  54.660  1.00  0.00     0.030 A 
HETATM    4  C12 UNL     1      23.524  -0.972  54.520  1.00  0.00     0.046 A 
HETATM    5  N4  UNL     1      22.382  -1.739  54.973  1.00  0.00    -0.267 NA
HETATM    6  C13 UNL     1      21.274  -1.100  54.626  1.00  0.00     0.116 C 
HETATM    7  C14 UNL     1      21.663   0.202  53.870  1.00  0.00     0.140 C 
HETATM    8  C20 UNL     1      22.916  -0.328  53.265  1.00  0.00     0.115 A 
ENDROOT
BRANCH   1   9
HETATM    9  N3  UNL     1      24.116   1.385  51.725  1.00  0.00    -0.312 N 
HETATM   10  C8  UNL     1      24.115   2.777  51.694  1.00  0.00     0.320 C 
HETATM   11  N2  UNL     1      24.261   3.589  50.540  1.00  0.00    -0.341 N 
HETATM   12  O1  UNL     1      23.976   3.441  52.750  1.00  0.00    -0.247 OA
HETATM   13  H15 UNL     1      24.384   3.097  49.605  1.00  0.00     0.164 HD
HETATM   14  H16 UNL     1      24.244   0.995  50.772  1.00  0.00     0.170 HD
BRANCH  11  15
HETATM   15  C7  UNL     1      24.225   5.017  50.776  1.00  0.00     0.160 C 
BRANCH  15  16
HETATM   16  C6  UNL     1      25.396   5.764  50.291  1.00  0.00     0.241 C 
HETATM   17  C2  UNL     1      25.727   5.620  48.852  1.00  0.00     0.016 C 
HETATM   18  C1  UNL     1      27.208   5.336  48.653  1.00  0.00     0.012 C 
HETATM   19  C3  UNL     1      25.471   6.941  48.127  1.00  0.00     0.008 C 
HETATM   20  C4  UNL     1      26.344   8.018  48.741  1.00  0.00     0.030 C 
HETATM   21  C5  UNL     1      26.239   8.001  50.235  1.00  0.00     0.270 C 
HETATM   22  N1  UNL     1      25.126   7.177  50.598  1.00  0.00     0.090 N 
HETATM   23  H11 UNL     1      24.208   7.488  50.237  1.00  0.00     0.316 HD
ENDBRANCH  15  16
ENDBRANCH  11  15
ENDBRANCH   1   9
BRANCH   7  24
HETATM   24  N5  UNL     1      20.650   0.328  52.856  1.00  0.00    -0.374 N 
HETATM   25  C15 UNL     1      19.550  -0.521  53.278  1.00  0.00     0.113 A 
HETATM   26  C16 UNL     1      18.399  -0.785  52.623  1.00  0.00     0.087 A 
HETATM   27 CL1  UNL     1      17.053  -1.808  53.106  1.00  0.00    -0.080 Cl
HETATM   28  C17 UNL     1      18.189  -0.117  51.322  1.00  0.00     0.137 A 
HETATM   29  F1  UNL     1      17.113  -0.249  50.512  1.00  0.00    -0.205 F 
HETATM   30  C18 UNL     1      19.172   0.671  50.963  1.00  0.00     0.037 A 
HETATM   31  C19 UNL     1      20.461   1.033  51.603  1.00  0.00     0.153 A 
ENDBRANCH   7  24
TORSDOF 4
ENDMDL
MODEL 7
REMARK VINA RESULT:      -8.4      4.751      6.673
REMARK  4 active torsions:
REMARK  status: ('A' for Active; 'I' for Inactive)
REMARK    1  A    between atoms: C6_7  and  C7_8 
REMARK    2  A    between atoms: C7_8  and  N2_9 
REMARK       I    between atoms: N2_9  and  C8_10 
REMARK       I    between atoms: C8_10  and  N3_12 
REMARK    3  A    between atoms: N3_12  and  C9_13 
REMARK    4  A    between atoms: C14_19  and  N5_20 
ROOT
HETATM    1  C9  UNL     1      24.353   0.179  53.184  1.00  0.00     0.026 A 
HETATM    2  C10 UNL     1      25.356  -0.050  54.052  1.00  0.00     0.028 A 
HETATM    3  C11 UNL     1      24.884  -0.919  55.129  1.00  0.00     0.030 A 
HETATM    4  C12 UNL     1      23.599  -1.183  54.870  1.00  0.00     0.046 A 
HETATM    5  N4  UNL     1      22.354  -1.832  55.224  1.00  0.00    -0.267 NA
HETATM    6  C13 UNL     1      21.348  -1.113  54.751  1.00  0.00     0.116 C 
HETATM    7  C14 UNL     1      21.925   0.125  54.006  1.00  0.00     0.140 C 
HETATM    8  C20 UNL     1      23.178  -0.531  53.544  1.00  0.00     0.115 A 
ENDROOT
BRANCH   1   9
HETATM    9  N3  UNL     1      24.673   1.019  52.091  1.00  0.00    -0.312 N 
HETATM   10  C8  UNL     1      24.419   2.373  51.890  1.00  0.00     0.320 C 
HETATM   11  N2  UNL     1      24.787   3.134  50.751  1.00  0.00    -0.341 N 
HETATM   12  O1  UNL     1      23.813   3.046  52.758  1.00  0.00    -0.247 OA
HETATM   13  H15 UNL     1      25.306   2.631  49.971  1.00  0.00     0.164 HD
HETATM   14  H16 UNL     1      25.183   0.615  51.282  1.00  0.00     0.170 HD
BRANCH  11  15
HETATM   15  C7  UNL     1      24.406   4.529  50.786  1.00  0.00     0.160 C 
BRANCH  15  16
HETATM   16  C6  UNL     1      23.223   4.879  49.983  1.00  0.00     0.241 C 
HETATM   17  C2  UNL     1      23.076   4.185  48.680  1.00  0.00     0.016 C 
HETATM   18  C1  UNL     1      22.755   5.170  47.566  1.00  0.00     0.012 C 
HETATM   19  C3  UNL     1      21.882   3.234  48.731  1.00  0.00     0.008 C 
HETATM   20  C4  UNL     1      20.627   4.032  49.023  1.00  0.00     0.030 C 
HETATM   21  C5  UNL     1      20.842   4.958  50.180  1.00  0.00     0.270 C 
HETATM   22  N1  UNL     1      22.059   4.585  50.833  1.00  0.00     0.090 N 
HETATM   23  H11 UNL     1      22.083   3.622  51.212  1.00  0.00     0.316 HD
ENDBRANCH  15  16
ENDBRANCH  11  15
ENDBRANCH   1   9
BRANCH   7  24
HETATM   24  N5  UNL     1      21.032   0.303  52.891  1.00  0.00    -0.374 N 
HETATM   25  C15 UNL     1      19.776  -0.314  53.278  1.00  0.00     0.113 A 
HETATM   26  C16 UNL     1      18.653  -0.459  52.542  1.00  0.00     0.087 A 
HETATM   27 CL1  UNL     1      17.122  -1.203  52.981  1.00  0.00    -0.080 Cl
HETATM   28  C17 UNL     1      18.664   0.095  51.172  1.00  0.00     0.137 A 
HETATM   29  F1  UNL     1      17.650   0.050  50.277  1.00  0.00    -0.205 F 
HETATM   30  C18 UNL     1      19.790   0.677  50.841  1.00  0.00     0.037 A 
HETATM   31  C19 UNL     1      21.064   0.896  51.568  1.00  0.00     0.153 A 
ENDBRANCH   7  24
TORSDOF 4
ENDMDL
MODEL 8
REMARK VINA RESULT:      -8.3      1.744      2.730
REMARK  4 active torsions:
REMARK  status: ('A' for Active; 'I' for Inactive)
REMARK    1  A    between atoms: C6_7  and  C7_8 
REMARK    2  A    between atoms: C7_8  and  N2_9 
REMARK       I    between atoms: N2_9  and  C8_10 
REMARK       I    between atoms: C8_10  and  N3_12 
REMARK    3  A    between atoms: N3_12  and  C9_13 
REMARK    4  A    between atoms: C14_19  and  N5_20 
ROOT
HETATM    1  C9  UNL     1      25.186   3.285  50.078  1.00  0.00     0.026 A 
HETATM    2  C10 UNL     1      24.047   3.637  49.453  1.00  0.00     0.028 A 
HETATM    3  C11 UNL     1      22.898   3.248  50.269  1.00  0.00     0.030 A 
HETATM    4  C12 UNL     1      23.392   2.666  51.367  1.00  0.00     0.046 A 
HETATM    5  N4  UNL     1      23.185   2.008  52.641  1.00  0.00    -0.267 NA
HETATM    6  C13 UNL     1      24.199   1.185  52.866  1.00  0.00     0.116 C 
HETATM    7  C14 UNL     1      25.191   1.276  51.671  1.00  0.00     0.140 C 
HETATM    8  C20 UNL     1      24.927   2.705  51.347  1.00  0.00     0.115 A 
ENDROOT
BRANCH   1   9
HETATM    9  N3  UNL     1      26.382   3.598  49.388  1.00  0.00    -0.312 N 
HETATM   10  C8  UNL     1      26.933   4.832  49.055  1.00  0.00     0.320 C 
HETATM   11  N2  UNL     1      28.150   5.045  48.359  1.00  0.00    -0.341 N 
HETATM   12  O1  UNL     1      26.352   5.899  49.369  1.00  0.00    -0.247 OA
HETATM   13  H15 UNL     1      28.701   4.186  48.059  1.00  0.00     0.164 HD
HETATM   14  H16 UNL     1      26.987   2.821  49.059  1.00  0.00     0.170 HD
BRANCH  11  15
HETATM   15  C7  UNL     1      28.505   6.430  48.136  1.00  0.00     0.160 C 
BRANCH  15  16
HETATM   16  C6  UNL     1      29.945   6.726  48.182  1.00  0.00     0.241 C 
HETATM   17  C2  UNL     1      30.842   5.605  48.557  1.00  0.00     0.016 C 
HETATM   18  C1  UNL     1      31.843   6.033  49.619  1.00  0.00     0.012 C 
HETATM   19  C3  UNL     1      31.687   5.194  47.352  1.00  0.00     0.008 C 
HETATM   20  C4  UNL     1      32.519   6.378  46.904  1.00  0.00     0.030 C 
HETATM   21  C5  UNL     1      31.673   7.609  46.786  1.00  0.00     0.270 C 
HETATM   22  N1  UNL     1      30.298   7.215  46.841  1.00  0.00     0.090 N 
HETATM   23  H11 UNL     1      29.992   6.568  46.094  1.00  0.00     0.316 HD
ENDBRANCH  15  16
ENDBRANCH  11  15
ENDBRANCH   1   9
BRANCH   7  24
HETATM   24  N5  UNL     1      26.485   1.150  52.289  1.00  0.00    -0.374 N 
HETATM   25  C15 UNL     1      26.762  -0.273  52.358  1.00  0.00     0.113 A 
HETATM   26  C16 UNL     1      27.826  -0.892  52.914  1.00  0.00     0.087 A 
HETATM   27 CL1  UNL     1      28.186  -2.610  53.017  1.00  0.00    -0.080 Cl
HETATM   28  C17 UNL     1      28.873  -0.038  53.511  1.00  0.00     0.137 A 
HETATM   29  F1  UNL     1      30.007  -0.458  54.118  1.00  0.00    -0.205 F 
HETATM   30  C18 UNL     1      28.631   1.246  53.417  1.00  0.00     0.037 A 
HETATM   31  C19 UNL     1      27.512   2.021  52.827  1.00  0.00     0.153 A 
ENDBRANCH   7  24
TORSDOF 4
ENDMDL
MODEL 9
REMARK VINA RESULT:      -8.2      4.587      6.592
REMARK  4 active torsions:
REMARK  status: ('A' for Active; 'I' for Inactive)
REMARK    1  A    between atoms: C6_7  and  C7_8 
REMARK    2  A    between atoms: C7_8  and  N2_9 
REMARK       I    between atoms: N2_9  and  C8_10 
REMARK       I    between atoms: C8_10  and  N3_12 
REMARK    3  A    between atoms: N3_12  and  C9_13 
REMARK    4  A    between atoms: C14_19  and  N5_20 
ROOT
HETATM    1  C9  UNL     1      21.629   0.213  53.015  1.00  0.00     0.026 A 
HETATM    2  C10 UNL     1      20.561  -0.595  53.151  1.00  0.00     0.028 A 
HETATM    3  C11 UNL     1      20.785  -1.527  54.255  1.00  0.00     0.030 A 
HETATM    4  C12 UNL     1      21.996  -1.247  54.748  1.00  0.00     0.046 A 
HETATM    5  N4  UNL     1      23.057  -1.511  55.698  1.00  0.00    -0.267 NA
HETATM    6  C13 UNL     1      24.215  -1.171  55.150  1.00  0.00     0.116 C 
HETATM    7  C14 UNL     1      23.949  -0.623  53.719  1.00  0.00     0.140 C 
HETATM    8  C20 UNL     1      22.608  -0.046  54.010  1.00  0.00     0.115 A 
ENDROOT
BRANCH   1   9
HETATM    9  N3  UNL     1      21.546   1.164  51.971  1.00  0.00    -0.312 N 
HETATM   10  C8  UNL     1      20.836   2.358  51.895  1.00  0.00     0.320 C 
HETATM   11  N2  UNL     1      20.820   3.254  50.794  1.00  0.00    -0.341 N 
HETATM   12  O1  UNL     1      20.122   2.742  52.852  1.00  0.00    -0.247 OA
HETATM   13  H15 UNL     1      21.403   2.997  49.943  1.00  0.00     0.164 HD
HETATM   14  H16 UNL     1      22.085   0.998  51.099  1.00  0.00     0.170 HD
BRANCH  11  15
HETATM   15  C7  UNL     1      19.998   4.433  50.965  1.00  0.00     0.160 C 
BRANCH  15  16
HETATM   16  C6  UNL     1      18.692   4.392  50.288  1.00  0.00     0.241 C 
HETATM   17  C2  UNL     1      18.554   3.429  49.168  1.00  0.00     0.016 C 
HETATM   18  C1  UNL     1      17.925   4.089  47.950  1.00  0.00     0.012 C 
HETATM   19  C3  UNL     1      17.589   2.311  49.561  1.00  0.00     0.008 C 
HETATM   20  C4  UNL     1      16.236   2.915  49.877  1.00  0.00     0.030 C 
HETATM   21  C5  UNL     1      16.378   4.083  50.804  1.00  0.00     0.270 C 
HETATM   22  N1  UNL     1      17.707   4.077  51.334  1.00  0.00     0.090 N 
HETATM   23  H11 UNL     1      17.965   3.233  51.875  1.00  0.00     0.316 HD
ENDBRANCH  15  16
ENDBRANCH  11  15
ENDBRANCH   1   9
BRANCH   7  24
HETATM   24  N5  UNL     1      24.911   0.437  53.572  1.00  0.00    -0.374 N 
HETATM   25  C15 UNL     1      26.193  -0.125  53.958  1.00  0.00     0.113 A 
HETATM   26  C16 UNL     1      27.387   0.499  54.049  1.00  0.00     0.087 A 
HETATM   27 CL1  UNL     1      28.951  -0.153  54.516  1.00  0.00    -0.080 Cl
HETATM   28  C17 UNL     1      27.434   1.930  53.686  1.00  0.00     0.137 A 
HETATM   29  F1  UNL     1      28.523   2.733  53.712  1.00  0.00    -0.205 F 
HETATM   30  C18 UNL     1      26.280   2.423  53.309  1.00  0.00     0.037 A 
HETATM   31  C19 UNL     1      24.928   1.830  53.168  1.00  0.00     0.153 A 
ENDBRANCH   7  24
TORSDOF 4
ENDMDL
