MODEL 1
REMARK VINA RESULT:      -9.5      0.000      0.000
REMARK  2 active torsions:
REMARK  status: ('A' for Active; 'I' for Inactive)
REMARK    1  A    between atoms: C4_4  and  N1_5 
REMARK    2  A    between atoms: N1_5  and  C5_6 
ROOT
HETATM    1  C5  UNL     1      26.068   2.787  50.762  1.00  0.00     0.205 C 
HETATM    2  N2  UNL     1      26.927   2.712  51.591  1.00  0.00    -0.282 NA
HETATM    3  N3  UNL     1      28.037   2.732  52.327  1.00  0.00    -0.104 NA
HETATM    4  C6  UNL     1      28.142   1.827  53.375  1.00  0.00     0.052 C 
HETATM    5  C7  UNL     1      28.950   1.233  54.533  1.00  0.00     0.084 C 
HETATM    6  C8  UNL     1      29.318  -0.139  54.073  1.00  0.00    -0.020 C 
HETATM    7  C9  UNL     1      29.727  -1.290  53.703  1.00  0.00     0.009 C 
HETATM    8  C10 UNL     1      29.289  -2.503  53.166  1.00  0.00     0.205 C 
HETATM    9  N4  UNL     1      28.150  -2.977  52.661  1.00  0.00    -0.316 NA
HETATM   10  C11 UNL     1      26.985  -2.073  52.584  1.00  0.00     0.041 C 
HETATM   11  C12 UNL     1      26.096  -1.043  52.843  1.00  0.00     0.087 C 
HETATM   12  C13 UNL     1      26.215  -0.047  53.874  1.00  0.00     0.232 C 
HETATM   13  C14 UNL     1      26.899   1.168  53.673  1.00  0.00     0.093 C 
HETATM   14  N5  UNL     1      24.812   0.486  54.089  1.00  0.00     0.092 NA
HETATM   15  C15 UNL     1      24.415   1.563  53.318  1.00  0.00     0.297 C 
HETATM   16  C16 UNL     1      24.043   1.617  51.921  1.00  0.00     0.008 C 
HETATM   17  C17 UNL     1      24.727   2.132  50.902  1.00  0.00     0.064 C 
HETATM   18  H13 UNL     1      24.192  -0.343  54.154  1.00  0.00     0.316 HD
ENDROOT
BRANCH   1  19
HETATM   19  N1  UNL     1      26.421   3.328  49.475  1.00  0.00    -0.334 N 
HETATM   20  H2  UNL     1      27.142   2.820  48.894  1.00  0.00     0.168 HD
BRANCH  19  21
HETATM   21  C4  UNL     1      25.662   4.579  49.141  1.00  0.00     0.022 A 
HETATM   22  C3  UNL     1      25.363   5.659  49.947  1.00  0.00     0.053 A 
HETATM   23  C2  UNL     1      23.909   5.508  50.506  1.00  0.00     0.003 C 
HETATM   24  C21 UNL     1      25.924   7.116  50.156  1.00  0.00    -0.010 C 
HETATM   25  C18 UNL     1      24.906   5.737  48.663  1.00  0.00     0.050 A 
HETATM   26  C1  UNL     1      23.710   5.157  49.134  1.00  0.00    -0.037 C 
HETATM   27  C20 UNL     1      26.906   7.151  49.182  1.00  0.00    -0.028 C 
HETATM   28  C19 UNL     1      25.929   6.728  48.035  1.00  0.00     0.049 C 
ENDBRANCH  19  21
ENDBRANCH   1  19
TORSDOF 2
ENDMDL
MODEL 2
REMARK VINA RESULT:      -8.9      1.803      7.239
REMARK  2 active torsions:
REMARK  status: ('A' for Active; 'I' for Inactive)
REMARK    1  A    between atoms: C4_4  and  N1_5 
REMARK    2  A    between atoms: N1_5  and  C5_6 
ROOT
HETATM    1  C5  UNL     1      25.036   2.455  52.389  1.00  0.00     0.205 C 
HETATM    2  N2  UNL     1      25.839   2.843  51.591  1.00  0.00    -0.282 NA
HETATM    3  N3  UNL     1      26.899   3.263  50.905  1.00  0.00    -0.104 NA
HETATM    4  C6  UNL     1      26.680   4.042  49.775  1.00  0.00     0.052 C 
HETATM    5  C7  UNL     1      27.235   4.845  48.596  1.00  0.00     0.084 C 
HETATM    6  C8  UNL     1      26.928   6.268  48.929  1.00  0.00    -0.020 C 
HETATM    7  C9  UNL     1      26.760   7.505  49.197  1.00  0.00     0.009 C 
HETATM    8  C10 UNL     1      25.795   8.434  49.592  1.00  0.00     0.205 C 
HETATM    9  N4  UNL     1      24.527   8.389  50.003  1.00  0.00    -0.316 NA
HETATM   10  C11 UNL     1      23.873   7.070  50.125  1.00  0.00     0.041 C 
HETATM   11  C12 UNL     1      23.549   5.737  49.936  1.00  0.00     0.087 C 
HETATM   12  C13 UNL     1      24.173   4.824  49.016  1.00  0.00     0.232 C 
HETATM   13  C14 UNL     1      25.302   4.057  49.365  1.00  0.00     0.093 C 
HETATM   14  N5  UNL     1      23.167   3.711  48.802  1.00  0.00     0.092 NA
HETATM   15  C15 UNL     1      23.222   2.629  49.662  1.00  0.00     0.297 C 
HETATM   16  C16 UNL     1      22.803   2.518  51.041  1.00  0.00     0.008 C 
HETATM   17  C17 UNL     1      23.560   2.435  52.132  1.00  0.00     0.064 C 
HETATM   18  H13 UNL     1      22.255   4.172  48.629  1.00  0.00     0.316 HD
ENDROOT
BRANCH   1  19
HETATM   19  N1  UNL     1      25.488   2.223  53.737  1.00  0.00    -0.334 N 
HETATM   20  H2  UNL     1      25.212   2.912  54.489  1.00  0.00     0.168 HD
BRANCH  19  21
HETATM   21  C4  UNL     1      26.306   0.971  53.869  1.00  0.00     0.022 A 
HETATM   22  C3  UNL     1      27.323   0.504  53.062  1.00  0.00     0.053 A 
HETATM   23  C2  UNL     1      26.752  -0.556  52.061  1.00  0.00     0.003 C 
HETATM   24  C21 UNL     1      28.897   0.476  53.112  1.00  0.00    -0.010 C 
HETATM   25  C18 UNL     1      27.014  -0.282  54.135  1.00  0.00     0.050 A 
HETATM   26  C1  UNL     1      26.129  -0.969  53.279  1.00  0.00    -0.037 C 
HETATM   27  C20 UNL     1      29.120   1.054  54.349  1.00  0.00    -0.028 C 
HETATM   28  C19 UNL     1      28.187   0.049  55.102  1.00  0.00     0.049 C 
ENDBRANCH  19  21
ENDBRANCH   1  19
TORSDOF 2
ENDMDL
MODEL 3
REMARK VINA RESULT:      -8.6      2.476      7.319
REMARK  2 active torsions:
REMARK  status: ('A' for Active; 'I' for Inactive)
REMARK    1  A    between atoms: C4_4  and  N1_5 
REMARK    2  A    between atoms: N1_5  and  C5_6 
ROOT
HETATM    1  C5  UNL     1      26.122   2.546  50.997  1.00  0.00     0.205 C 
HETATM    2  N2  UNL     1      25.096   2.722  51.585  1.00  0.00    -0.282 NA
HETATM    3  N3  UNL     1      24.001   2.681  52.342  1.00  0.00    -0.104 NA
HETATM    4  C6  UNL     1      22.907   3.443  51.951  1.00  0.00     0.052 C 
HETATM    5  C7  UNL     1      21.464   3.899  52.183  1.00  0.00     0.084 C 
HETATM    6  C8  UNL     1      20.685   3.262  51.079  1.00  0.00    -0.020 C 
HETATM    7  C9  UNL     1      19.956   2.682  50.205  1.00  0.00     0.009 C 
HETATM    8  C10 UNL     1      19.841   2.455  48.832  1.00  0.00     0.205 C 
HETATM    9  N4  UNL     1      20.589   2.684  47.752  1.00  0.00    -0.316 NA
HETATM   10  C11 UNL     1      21.906   3.327  47.932  1.00  0.00     0.041 C 
HETATM   11  C12 UNL     1      22.942   4.090  48.447  1.00  0.00     0.087 C 
HETATM   12  C13 UNL     1      22.904   4.897  49.636  1.00  0.00     0.232 C 
HETATM   13  C14 UNL     1      23.222   4.381  50.908  1.00  0.00     0.093 C 
HETATM   14  N5  UNL     1      24.027   5.902  49.483  1.00  0.00     0.092 NA
HETATM   15  C15 UNL     1      25.274   5.541  49.961  1.00  0.00     0.297 C 
HETATM   16  C16 UNL     1      26.246   4.620  49.417  1.00  0.00     0.008 C 
HETATM   17  C17 UNL     1      26.583   3.412  49.863  1.00  0.00     0.064 C 
HETATM   18  H13 UNL     1      23.948   6.284  48.522  1.00  0.00     0.316 HD
ENDROOT
BRANCH   1  19
HETATM   19  N1  UNL     1      26.826   1.312  51.229  1.00  0.00    -0.334 N 
HETATM   20  H2  UNL     1      27.013   0.673  50.409  1.00  0.00     0.168 HD
BRANCH  19  21
HETATM   21  C4  UNL     1      27.216   1.126  52.668  1.00  0.00     0.022 A 
HETATM   22  C3  UNL     1      27.497  -0.040  53.352  1.00  0.00     0.053 A 
HETATM   23  C2  UNL     1      26.227  -0.501  54.142  1.00  0.00     0.003 C 
HETATM   24  C21 UNL     1      28.792  -0.799  53.827  1.00  0.00    -0.010 C 
HETATM   25  C18 UNL     1      27.586   1.110  54.083  1.00  0.00     0.050 A 
HETATM   26  C1  UNL     1      26.237   0.898  54.438  1.00  0.00    -0.037 C 
HETATM   27  C20 UNL     1      29.770   0.087  53.414  1.00  0.00    -0.028 C 
HETATM   28  C19 UNL     1      29.127   1.304  54.159  1.00  0.00     0.049 C 
ENDBRANCH  19  21
ENDBRANCH   1  19
TORSDOF 2
ENDMDL
MODEL 4
REMARK VINA RESULT:      -8.6      3.010      7.388
REMARK  2 active torsions:
REMARK  status: ('A' for Active; 'I' for Inactive)
REMARK    1  A    between atoms: C4_4  and  N1_5 
REMARK    2  A    between atoms: N1_5  and  C5_6 
ROOT
HETATM    1  C5  UNL     1      24.911   1.805  52.735  1.00  0.00     0.205 C 
HETATM    2  N2  UNL     1      24.351   2.861  52.771  1.00  0.00    -0.282 NA
HETATM    3  N3  UNL     1      23.587   3.926  53.004  1.00  0.00    -0.104 NA
HETATM    4  C6  UNL     1      23.395   4.832  51.969  1.00  0.00     0.052 C 
HETATM    5  C7  UNL     1      22.751   6.116  51.438  1.00  0.00     0.084 C 
HETATM    6  C8  UNL     1      21.738   5.648  50.445  1.00  0.00    -0.020 C 
HETATM    7  C9  UNL     1      20.805   5.304  49.644  1.00  0.00     0.009 C 
HETATM    8  C10 UNL     1      20.540   4.510  48.526  1.00  0.00     0.205 C 
HETATM    9  N4  UNL     1      21.201   3.595  47.817  1.00  0.00    -0.316 NA
HETATM   10  C11 UNL     1      22.571   3.235  48.235  1.00  0.00     0.041 C 
HETATM   11  C12 UNL     1      23.842   3.298  48.783  1.00  0.00     0.087 C 
HETATM   12  C13 UNL     1      24.425   4.419  49.470  1.00  0.00     0.232 C 
HETATM   13  C14 UNL     1      24.281   4.609  50.859  1.00  0.00     0.093 C 
HETATM   14  N5  UNL     1      25.923   4.207  49.397  1.00  0.00     0.092 NA
HETATM   15  C15 UNL     1      26.514   3.481  50.415  1.00  0.00     0.297 C 
HETATM   16  C16 UNL     1      26.492   2.059  50.674  1.00  0.00     0.008 C 
HETATM   17  C17 UNL     1      25.843   1.402  51.632  1.00  0.00     0.064 C 
HETATM   18  H13 UNL     1      26.135   3.958  48.413  1.00  0.00     0.316 HD
ENDROOT
BRANCH   1  19
HETATM   19  N1  UNL     1      24.489   0.788  53.664  1.00  0.00    -0.334 N 
HETATM   20  H2  UNL     1      25.099   0.584  54.502  1.00  0.00     0.168 HD
BRANCH  19  21
HETATM   21  C4  UNL     1      23.179   0.160  53.285  1.00  0.00     0.022 A 
HETATM   22  C3  UNL     1      21.901   0.507  53.674  1.00  0.00     0.053 A 
HETATM   23  C2  UNL     1      21.445  -0.415  54.854  1.00  0.00     0.003 C 
HETATM   24  C21 UNL     1      20.691   1.296  53.044  1.00  0.00    -0.010 C 
HETATM   25  C18 UNL     1      21.990  -0.557  52.822  1.00  0.00     0.050 A 
HETATM   26  C1  UNL     1      22.031  -1.375  53.970  1.00  0.00    -0.037 C 
HETATM   27  C20 UNL     1      21.204   1.585  51.792  1.00  0.00    -0.028 C 
HETATM   28  C19 UNL     1      21.555   0.093  51.477  1.00  0.00     0.049 C 
ENDBRANCH  19  21
ENDBRANCH   1  19
TORSDOF 2
ENDMDL
MODEL 5
REMARK VINA RESULT:      -8.5      2.822      7.224
REMARK  2 active torsions:
REMARK  status: ('A' for Active; 'I' for Inactive)
REMARK    1  A    between atoms: C4_4  and  N1_5 
REMARK    2  A    between atoms: N1_5  and  C5_6 
ROOT
HETATM    1  C5  UNL     1      22.087   0.753  52.071  1.00  0.00     0.205 C 
HETATM    2  N2  UNL     1      22.308   1.153  50.965  1.00  0.00    -0.282 NA
HETATM    3  N3  UNL     1      22.748   1.422  49.738  1.00  0.00    -0.104 NA
HETATM    4  C6  UNL     1      22.496   2.685  49.215  1.00  0.00     0.052 C 
HETATM    5  C7  UNL     1      22.638   3.695  48.073  1.00  0.00     0.084 C 
HETATM    6  C8  UNL     1      23.573   4.733  48.601  1.00  0.00    -0.020 C 
HETATM    7  C9  UNL     1      24.427   5.608  48.970  1.00  0.00     0.009 C 
HETATM    8  C10 UNL     1      24.734   6.488  50.010  1.00  0.00     0.205 C 
HETATM    9  N4  UNL     1      24.270   6.728  51.237  1.00  0.00    -0.316 NA
HETATM   10  C11 UNL     1      23.153   5.904  51.740  1.00  0.00     0.041 C 
HETATM   11  C12 UNL     1      22.024   5.102  51.791  1.00  0.00     0.087 C 
HETATM   12  C13 UNL     1      21.252   4.636  50.671  1.00  0.00     0.232 C 
HETATM   13  C14 UNL     1      21.551   3.436  49.997  1.00  0.00     0.093 C 
HETATM   14  N5  UNL     1      19.892   4.278  51.234  1.00  0.00     0.092 NA
HETATM   15  C15 UNL     1      19.712   2.984  51.691  1.00  0.00     0.297 C 
HETATM   16  C16 UNL     1      20.196   2.351  52.897  1.00  0.00     0.008 C 
HETATM   17  C17 UNL     1      21.154   1.436  53.025  1.00  0.00     0.064 C 
HETATM   18  H13 UNL     1      19.610   5.070  51.842  1.00  0.00     0.316 HD
ENDROOT
BRANCH   1  19
HETATM   19  N1  UNL     1      22.933  -0.291  52.588  1.00  0.00    -0.334 N 
HETATM   20  H2  UNL     1      22.571  -1.284  52.586  1.00  0.00     0.168 HD
BRANCH  19  21
HETATM   21  C4  UNL     1      24.265   0.218  53.059  1.00  0.00     0.022 A 
HETATM   22  C3  UNL     1      25.451   0.330  52.362  1.00  0.00     0.053 A 
HETATM   23  C2  UNL     1      26.360  -0.905  52.676  1.00  0.00     0.003 C 
HETATM   24  C21 UNL     1      26.255   1.487  51.657  1.00  0.00    -0.010 C 
HETATM   25  C18 UNL     1      25.490   0.742  53.664  1.00  0.00     0.050 A 
HETATM   26  C1  UNL     1      25.896  -0.570  53.986  1.00  0.00    -0.037 C 
HETATM   27  C20 UNL     1      25.451   2.572  51.957  1.00  0.00    -0.028 C 
HETATM   28  C19 UNL     1      25.463   2.288  53.495  1.00  0.00     0.049 C 
ENDBRANCH  19  21
ENDBRANCH   1  19
TORSDOF 2
ENDMDL
MODEL 6
REMARK VINA RESULT:      -8.3      2.205      7.802
REMARK  2 active torsions:
REMARK  status: ('A' for Active; 'I' for Inactive)
REMARK    1  A    between atoms: C4_4  and  N1_5 
REMARK    2  A    between atoms: N1_5  and  C5_6 
ROOT
HETATM    1  C5  UNL     1      25.430   2.749  51.491  1.00  0.00     0.205 C 
HETATM    2  N2  UNL     1      25.609   3.574  50.644  1.00  0.00    -0.282 NA
HETATM    3  N3  UNL     1      26.017   4.558  49.845  1.00  0.00    -0.104 NA
HETATM    4  C6  UNL     1      25.071   5.184  49.043  1.00  0.00     0.052 C 
HETATM    5  C7  UNL     1      24.717   6.255  48.007  1.00  0.00     0.084 C 
HETATM    6  C8  UNL     1      23.894   7.249  48.758  1.00  0.00    -0.020 C 
HETATM    7  C9  UNL     1      23.251   8.170  49.365  1.00  0.00     0.009 C 
HETATM    8  C10 UNL     1      22.161   8.389  50.211  1.00  0.00     0.205 C 
HETATM    9  N4  UNL     1      21.309   7.629  50.899  1.00  0.00    -0.316 NA
HETATM   10  C11 UNL     1      21.468   6.163  50.840  1.00  0.00     0.041 C 
HETATM   11  C12 UNL     1      21.791   4.888  50.405  1.00  0.00     0.087 C 
HETATM   12  C13 UNL     1      22.417   4.540  49.158  1.00  0.00     0.232 C 
HETATM   13  C14 UNL     1      23.816   4.483  49.006  1.00  0.00     0.093 C 
HETATM   14  N5  UNL     1      22.077   3.082  48.924  1.00  0.00     0.092 NA
HETATM   15  C15 UNL     1      22.945   2.136  49.438  1.00  0.00     0.297 C 
HETATM   16  C16 UNL     1      23.141   1.701  50.803  1.00  0.00     0.008 C 
HETATM   17  C17 UNL     1      24.166   1.952  51.613  1.00  0.00     0.064 C 
HETATM   18  H13 UNL     1      21.061   2.986  49.108  1.00  0.00     0.316 HD
ENDROOT
BRANCH   1  19
HETATM   19  N1  UNL     1      26.372   2.688  52.578  1.00  0.00    -0.334 N 
HETATM   20  H2  UNL     1      26.674   3.590  53.038  1.00  0.00     0.168 HD
BRANCH  19  21
HETATM   21  C4  UNL     1      26.784   1.283  52.914  1.00  0.00     0.022 A 
HETATM   22  C3  UNL     1      26.869   0.670  54.148  1.00  0.00     0.053 A 
HETATM   23  C2  UNL     1      28.351   0.706  54.648  1.00  0.00     0.003 C 
HETATM   24  C21 UNL     1      25.990  -0.333  54.985  1.00  0.00    -0.010 C 
HETATM   25  C18 UNL     1      27.205  -0.109  53.077  1.00  0.00     0.050 A 
HETATM   26  C1  UNL     1      28.535   0.314  53.286  1.00  0.00    -0.037 C 
HETATM   27  C20 UNL     1      24.965  -0.579  54.090  1.00  0.00    -0.028 C 
HETATM   28  C19 UNL     1      25.934  -0.995  52.934  1.00  0.00     0.049 C 
ENDBRANCH  19  21
ENDBRANCH   1  19
TORSDOF 2
ENDMDL
MODEL 7
REMARK VINA RESULT:      -8.3      2.268      7.596
REMARK  2 active torsions:
REMARK  status: ('A' for Active; 'I' for Inactive)
REMARK    1  A    between atoms: C4_4  and  N1_5 
REMARK    2  A    between atoms: N1_5  and  C5_6 
ROOT
HETATM    1  C5  UNL     1      24.474   3.494  51.683  1.00  0.00     0.205 C 
HETATM    2  N2  UNL     1      25.391   3.707  50.946  1.00  0.00    -0.282 NA
HETATM    3  N3  UNL     1      26.559   3.858  50.325  1.00  0.00    -0.104 NA
HETATM    4  C6  UNL     1      26.638   4.795  49.302  1.00  0.00     0.052 C 
HETATM    5  C7  UNL     1      27.465   5.522  48.237  1.00  0.00     0.084 C 
HETATM    6  C8  UNL     1      27.592   6.920  48.747  1.00  0.00    -0.020 C 
HETATM    7  C9  UNL     1      27.799   8.107  49.169  1.00  0.00     0.009 C 
HETATM    8  C10 UNL     1      27.146   9.235  49.673  1.00  0.00     0.205 C 
HETATM    9  N4  UNL     1      25.908   9.534  50.067  1.00  0.00    -0.316 NA
HETATM   10  C11 UNL     1      24.878   8.477  50.017  1.00  0.00     0.041 C 
HETATM   11  C12 UNL     1      24.171   7.341  49.659  1.00  0.00     0.087 C 
HETATM   12  C13 UNL     1      24.527   6.397  48.634  1.00  0.00     0.232 C 
HETATM   13  C14 UNL     1      25.351   5.283  48.889  1.00  0.00     0.093 C 
HETATM   14  N5  UNL     1      23.240   5.683  48.274  1.00  0.00     0.092 NA
HETATM   15  C15 UNL     1      22.923   4.542  48.990  1.00  0.00     0.297 C 
HETATM   16  C16 UNL     1      22.428   4.403  50.341  1.00  0.00     0.008 C 
HETATM   17  C17 UNL     1      23.074   3.961  51.417  1.00  0.00     0.064 C 
HETATM   18  H13 UNL     1      22.520   6.420  48.156  1.00  0.00     0.316 HD
ENDROOT
BRANCH   1  19
HETATM   19  N1  UNL     1      24.772   2.975  52.994  1.00  0.00    -0.334 N 
HETATM   20  H2  UNL     1      24.351   3.454  53.836  1.00  0.00     0.168 HD
BRANCH  19  21
HETATM   21  C4  UNL     1      25.665   1.768  52.953  1.00  0.00     0.022 A 
HETATM   22  C3  UNL     1      26.402   1.194  53.969  1.00  0.00     0.053 A 
HETATM   23  C2  UNL     1      27.884   1.691  53.884  1.00  0.00     0.003 C 
HETATM   24  C21 UNL     1      26.252  -0.050  54.923  1.00  0.00    -0.010 C 
HETATM   25  C18 UNL     1      26.495   0.580  52.753  1.00  0.00     0.050 A 
HETATM   26  C1  UNL     1      27.617   1.399  52.510  1.00  0.00    -0.037 C 
HETATM   27  C20 UNL     1      25.073  -0.594  54.446  1.00  0.00    -0.028 C 
HETATM   28  C19 UNL     1      25.581  -0.661  52.968  1.00  0.00     0.049 C 
ENDBRANCH  19  21
ENDBRANCH   1  19
TORSDOF 2
ENDMDL
MODEL 8
REMARK VINA RESULT:      -8.3      8.085     11.627
REMARK  2 active torsions:
REMARK  status: ('A' for Active; 'I' for Inactive)
REMARK    1  A    between atoms: C4_4  and  N1_5 
REMARK    2  A    between atoms: N1_5  and  C5_6 
ROOT
HETATM    1  C5  UNL     1      33.271   6.006  48.636  1.00  0.00     0.205 C 
HETATM    2  N2  UNL     1      32.427   6.819  48.397  1.00  0.00    -0.282 NA
HETATM    3  N3  UNL     1      31.323   7.522  48.152  1.00  0.00    -0.104 NA
HETATM    4  C6  UNL     1      31.443   8.689  47.409  1.00  0.00     0.052 C 
HETATM    5  C7  UNL     1      30.791   9.905  46.744  1.00  0.00     0.084 C 
HETATM    6  C8  UNL     1      30.909   9.644  45.279  1.00  0.00    -0.020 C 
HETATM    7  C9  UNL     1      30.912   9.438  44.018  1.00  0.00     0.009 C 
HETATM    8  C10 UNL     1      31.747   9.093  42.953  1.00  0.00     0.205 C 
HETATM    9  N4  UNL     1      33.009   8.684  42.812  1.00  0.00    -0.316 NA
HETATM   10  C11 UNL     1      33.829   8.499  44.026  1.00  0.00     0.041 C 
HETATM   11  C12 UNL     1      34.325   8.623  45.314  1.00  0.00     0.087 C 
HETATM   12  C13 UNL     1      33.828   9.494  46.344  1.00  0.00     0.232 C 
HETATM   13  C14 UNL     1      32.808   9.105  47.234  1.00  0.00     0.093 C 
HETATM   14  N5  UNL     1      34.971   9.657  47.326  1.00  0.00     0.092 NA
HETATM   15  C15 UNL     1      35.056   8.744  48.362  1.00  0.00     0.297 C 
HETATM   16  C16 UNL     1      35.482   7.363  48.349  1.00  0.00     0.008 C 
HETATM   17  C17 UNL     1      34.738   6.266  48.476  1.00  0.00     0.064 C 
HETATM   18  H13 UNL     1      35.817   9.855  46.759  1.00  0.00     0.316 HD
ENDROOT
BRANCH   1  19
HETATM   19  N1  UNL     1      32.849   4.646  48.858  1.00  0.00    -0.334 N 
HETATM   20  H2  UNL     1      32.329   4.417  49.748  1.00  0.00     0.168 HD
BRANCH  19  21
HETATM   21  C4  UNL     1      33.222   3.729  47.728  1.00  0.00     0.022 A 
HETATM   22  C3  UNL     1      32.687   3.649  46.458  1.00  0.00     0.053 A 
HETATM   23  C2  UNL     1      31.636   2.491  46.407  1.00  0.00     0.003 C 
HETATM   24  C21 UNL     1      33.092   4.139  45.017  1.00  0.00    -0.010 C 
HETATM   25  C18 UNL     1      33.700   2.773  46.730  1.00  0.00     0.050 A 
HETATM   26  C1  UNL     1      32.700   1.858  47.121  1.00  0.00    -0.037 C 
HETATM   27  C20 UNL     1      34.319   4.721  45.284  1.00  0.00    -0.028 C 
HETATM   28  C19 UNL     1      34.889   3.442  45.983  1.00  0.00     0.049 C 
ENDBRANCH  19  21
ENDBRANCH   1  19
TORSDOF 2
ENDMDL
MODEL 9
REMARK VINA RESULT:      -8.2      2.296      7.954
REMARK  2 active torsions:
REMARK  status: ('A' for Active; 'I' for Inactive)
REMARK    1  A    between atoms: C4_4  and  N1_5 
REMARK    2  A    between atoms: N1_5  and  C5_6 
ROOT
HETATM    1  C5  UNL     1      24.723   2.935  51.306  1.00  0.00     0.205 C 
HETATM    2  N2  UNL     1      24.273   3.235  50.239  1.00  0.00    -0.282 NA
HETATM    3  N3  UNL     1      23.964   3.416  48.957  1.00  0.00    -0.104 NA
HETATM    4  C6  UNL     1      23.292   4.580  48.605  1.00  0.00     0.052 C 
HETATM    5  C7  UNL     1      22.667   5.471  47.527  1.00  0.00     0.084 C 
HETATM    6  C8  UNL     1      23.574   6.654  47.443  1.00  0.00    -0.020 C 
HETATM    7  C9  UNL     1      24.353   7.652  47.272  1.00  0.00     0.009 C 
HETATM    8  C10 UNL     1      25.023   8.666  47.959  1.00  0.00     0.205 C 
HETATM    9  N4  UNL     1      25.236   8.985  49.237  1.00  0.00    -0.316 NA
HETATM   10  C11 UNL     1      24.681   8.105  50.284  1.00  0.00     0.041 C 
HETATM   11  C12 UNL     1      23.878   7.196  50.953  1.00  0.00     0.087 C 
HETATM   12  C13 UNL     1      22.715   6.531  50.430  1.00  0.00     0.232 C 
HETATM   13  C14 UNL     1      22.794   5.305  49.742  1.00  0.00     0.093 C 
HETATM   14  N5  UNL     1      21.918   6.091  51.642  1.00  0.00     0.092 NA
HETATM   15  C15 UNL     1      22.197   4.842  52.168  1.00  0.00     0.297 C 
HETATM   16  C16 UNL     1      23.326   4.398  52.955  1.00  0.00     0.008 C 
HETATM   17  C17 UNL     1      24.334   3.611  52.586  1.00  0.00     0.064 C 
HETATM   18  H13 UNL     1      21.880   6.909  52.279  1.00  0.00     0.316 HD
ENDROOT
BRANCH   1  19
HETATM   19  N1  UNL     1      25.859   2.050  51.332  1.00  0.00    -0.334 N 
HETATM   20  H2  UNL     1      26.544   2.083  50.529  1.00  0.00     0.168 HD
BRANCH  19  21
HETATM   21  C4  UNL     1      25.899   1.189  52.561  1.00  0.00     0.022 A 
HETATM   22  C3  UNL     1      25.914  -0.188  52.662  1.00  0.00     0.053 A 
HETATM   23  C2  UNL     1      24.464  -0.708  52.937  1.00  0.00     0.003 C 
HETATM   24  C21 UNL     1      26.998  -1.300  52.929  1.00  0.00    -0.010 C 
HETATM   25  C18 UNL     1      25.940   0.491  53.847  1.00  0.00     0.050 A 
HETATM   26  C1  UNL     1      24.533   0.394  53.844  1.00  0.00    -0.037 C 
HETATM   27  C20 UNL     1      28.119  -0.516  53.134  1.00  0.00    -0.028 C 
HETATM   28  C19 UNL     1      27.437   0.349  54.246  1.00  0.00     0.049 C 
ENDBRANCH  19  21
ENDBRANCH   1  19
TORSDOF 2
ENDMDL
