MODEL 1
REMARK VINA RESULT:      -8.7      0.000      0.000
REMARK  5 active torsions:
REMARK  status: ('A' for Active; 'I' for Inactive)
REMARK    1  A    between atoms: C3_3  and  C4_4 
REMARK    2  A    between atoms: C4_4  and  O1_5 
REMARK    3  A    between atoms: O1_5  and  C5_6 
REMARK    4  A    between atoms: C9_10  and  N1_11 
REMARK    5  A    between atoms: N1_11  and  C10_12 
ROOT
HETATM    1  N1  UNL     1      21.896   0.299  51.702  1.00  0.00    -0.188 N 
HETATM    2  H9  UNL     1      21.274  -0.081  50.925  1.00  0.00     0.184 HD
ENDROOT
BRANCH   1   3
HETATM    3  C9  UNL     1      22.479  -0.230  52.893  1.00  0.00     0.052 A 
HETATM    4  C8  UNL     1      21.560  -0.609  53.851  1.00  0.00     0.030 A 
HETATM    5  C7  UNL     1      21.961  -1.111  55.076  1.00  0.00     0.005 A 
HETATM    6  C6  UNL     1      23.328  -1.212  55.301  1.00  0.00     0.037 A 
HETATM    7  C5  UNL     1      24.247  -0.842  54.371  1.00  0.00     0.070 A 
HETATM    8  C19 UNL     1      23.860  -0.332  53.115  1.00  0.00     0.066 A 
BRANCH   7   9
HETATM    9  O1  UNL     1      25.622  -0.884  54.460  1.00  0.00    -0.350 OA
BRANCH   9  10
HETATM   10  C4  UNL     1      26.394   0.228  54.846  1.00  0.00     0.189 C 
BRANCH  10  11
HETATM   11  C3  UNL     1      27.623   0.383  53.952  1.00  0.00     0.074 A 
HETATM   12  C2  UNL     1      27.536   1.643  53.179  1.00  0.00     0.004 A 
HETATM   13  C1  UNL     1      28.518   2.418  53.568  1.00  0.00     0.112 A 
HETATM   14  N5  UNL     1      29.303   1.777  54.583  1.00  0.00    -0.277 NA
HETATM   15  C20 UNL     1      28.816   0.598  54.830  1.00  0.00     0.100 A 
ENDBRANCH  10  11
ENDBRANCH   9  10
ENDBRANCH   7   9
ENDBRANCH   1   3
BRANCH   1  16
HETATM   16  C10 UNL     1      22.258   1.661  51.561  1.00  0.00     0.727 A 
HETATM   17  N2  UNL     1      21.489   2.542  52.057  1.00  0.00    -0.075 NA
HETATM   18  C11 UNL     1      21.389   3.841  52.179  1.00  0.00     0.139 A 
HETATM   19  C12 UNL     1      22.531   4.341  51.523  1.00  0.00     0.053 A 
HETATM   20  C13 UNL     1      23.516   3.560  50.903  1.00  0.00     0.089 A 
HETATM   21  C14 UNL     1      24.681   4.136  50.271  1.00  0.00     0.011 A 
HETATM   22  N4  UNL     1      23.329   2.241  50.954  1.00  0.00    -0.062 NA
HETATM   23  C15 UNL     1      25.654   3.372  49.687  1.00  0.00     0.017 A 
HETATM   24  C18 UNL     1      24.855   5.497  50.268  1.00  0.00     0.130 A 
HETATM   25  C16 UNL     1      26.773   3.932  49.115  1.00  0.00     0.020 A 
HETATM   26  C17 UNL     1      26.899   5.305  49.141  1.00  0.00     0.116 A 
HETATM   27  N3  UNL     1      25.948   6.088  49.711  1.00  0.00    -0.272 NA
ENDBRANCH   1  16
TORSDOF 5
ENDMDL
MODEL 2
REMARK VINA RESULT:      -8.4      2.125      6.161
REMARK  5 active torsions:
REMARK  status: ('A' for Active; 'I' for Inactive)
REMARK    1  A    between atoms: C3_3  and  C4_4 
REMARK    2  A    between atoms: C4_4  and  O1_5 
REMARK    3  A    between atoms: O1_5  and  C5_6 
REMARK    4  A    between atoms: C9_10  and  N1_11 
REMARK    5  A    between atoms: N1_11  and  C10_12 
ROOT
HETATM    1  N1  UNL     1      26.591  -1.278  53.627  1.00  0.00    -0.188 N 
HETATM    2  H9  UNL     1      26.905  -2.295  53.576  1.00  0.00     0.184 HD
ENDROOT
BRANCH   1   3
HETATM    3  C9  UNL     1      27.216  -0.006  53.450  1.00  0.00     0.052 A 
HETATM    4  C8  UNL     1      28.143   0.307  54.423  1.00  0.00     0.030 A 
HETATM    5  C7  UNL     1      28.814   1.517  54.416  1.00  0.00     0.005 A 
HETATM    6  C6  UNL     1      28.511   2.402  53.389  1.00  0.00     0.037 A 
HETATM    7  C5  UNL     1      27.600   2.111  52.424  1.00  0.00     0.070 A 
HETATM    8  C19 UNL     1      26.907   0.883  52.411  1.00  0.00     0.066 A 
BRANCH   7   9
HETATM    9  O1  UNL     1      27.201   2.889  51.358  1.00  0.00    -0.350 OA
BRANCH   9  10
HETATM   10  C4  UNL     1      25.860   2.979  50.942  1.00  0.00     0.189 C 
BRANCH  10  11
HETATM   11  C3  UNL     1      25.763   3.460  49.496  1.00  0.00     0.074 A 
HETATM   12  C2  UNL     1      24.711   4.495  49.371  1.00  0.00     0.004 A 
HETATM   13  C1  UNL     1      25.294   5.616  49.027  1.00  0.00     0.112 A 
HETATM   14  N5  UNL     1      26.710   5.438  48.901  1.00  0.00    -0.277 NA
HETATM   15  C20 UNL     1      27.019   4.203  49.163  1.00  0.00     0.100 A 
ENDBRANCH  10  11
ENDBRANCH   9  10
ENDBRANCH   7   9
ENDBRANCH   1   3
BRANCH   1  16
HETATM   16  C10 UNL     1      25.224  -1.095  53.950  1.00  0.00     0.727 A 
HETATM   17  N2  UNL     1      24.848  -1.339  55.139  1.00  0.00    -0.075 NA
HETATM   18  C11 UNL     1      23.770  -1.328  55.879  1.00  0.00     0.139 A 
HETATM   19  C12 UNL     1      22.751  -0.903  55.003  1.00  0.00     0.053 A 
HETATM   20  C13 UNL     1      22.929  -0.578  53.651  1.00  0.00     0.089 A 
HETATM   21  C14 UNL     1      21.845  -0.120  52.812  1.00  0.00     0.011 A 
HETATM   22  N4  UNL     1      24.174  -0.690  53.185  1.00  0.00    -0.062 NA
HETATM   23  C15 UNL     1      22.024   0.221  51.499  1.00  0.00     0.017 A 
HETATM   24  C18 UNL     1      20.585   0.014  53.337  1.00  0.00     0.130 A 
HETATM   25  C16 UNL     1      20.989   0.683  50.720  1.00  0.00     0.020 A 
HETATM   26  C17 UNL     1      19.743   0.801  51.298  1.00  0.00     0.116 A 
HETATM   27  N3  UNL     1      19.535   0.468  52.598  1.00  0.00    -0.272 NA
ENDBRANCH   1  16
TORSDOF 5
ENDMDL
MODEL 3
REMARK VINA RESULT:      -8.4      1.476      2.085
REMARK  5 active torsions:
REMARK  status: ('A' for Active; 'I' for Inactive)
REMARK    1  A    between atoms: C3_3  and  C4_4 
REMARK    2  A    between atoms: C4_4  and  O1_5 
REMARK    3  A    between atoms: O1_5  and  C5_6 
REMARK    4  A    between atoms: C9_10  and  N1_11 
REMARK    5  A    between atoms: N1_11  and  C10_12 
ROOT
HETATM    1  N1  UNL     1      22.834   2.193  50.068  1.00  0.00    -0.188 N 
HETATM    2  H9  UNL     1      22.412   1.996  49.110  1.00  0.00     0.184 HD
ENDROOT
BRANCH   1   3
HETATM    3  C9  UNL     1      23.096   1.428  51.245  1.00  0.00     0.052 A 
HETATM    4  C8  UNL     1      22.040   0.637  51.650  1.00  0.00     0.030 A 
HETATM    5  C7  UNL     1      22.119  -0.142  52.791  1.00  0.00     0.005 A 
HETATM    6  C6  UNL     1      23.306  -0.089  53.512  1.00  0.00     0.037 A 
HETATM    7  C5  UNL     1      24.355   0.686  53.129  1.00  0.00     0.070 A 
HETATM    8  C19 UNL     1      24.296   1.483  51.968  1.00  0.00     0.066 A 
BRANCH   7   9
HETATM    9  O1  UNL     1      25.579   0.836  53.744  1.00  0.00    -0.350 OA
BRANCH   9  10
HETATM   10  C4  UNL     1      26.509  -0.214  53.853  1.00  0.00     0.189 C 
BRANCH  10  11
HETATM   11  C3  UNL     1      27.906   0.240  53.437  1.00  0.00     0.074 A 
HETATM   12  C2  UNL     1      27.854   1.615  52.887  1.00  0.00     0.004 A 
HETATM   13  C1  UNL     1      28.542   2.390  53.688  1.00  0.00     0.112 A 
HETATM   14  N5  UNL     1      29.082   1.642  54.785  1.00  0.00    -0.277 NA
HETATM   15  C20 UNL     1      28.737   0.394  54.673  1.00  0.00     0.100 A 
ENDBRANCH  10  11
ENDBRANCH   9  10
ENDBRANCH   7   9
ENDBRANCH   1   3
BRANCH   1  16
HETATM   16  C10 UNL     1      23.249   3.531  50.270  1.00  0.00     0.727 A 
HETATM   17  N2  UNL     1      22.532   4.281  51.003  1.00  0.00    -0.075 NA
HETATM   18  C11 UNL     1      22.490   5.506  51.458  1.00  0.00     0.139 A 
HETATM   19  C12 UNL     1      23.637   6.119  50.915  1.00  0.00     0.053 A 
HETATM   20  C13 UNL     1      24.572   5.491  50.081  1.00  0.00     0.089 A 
HETATM   21  C14 UNL     1      25.745   6.170  49.578  1.00  0.00     0.011 A 
HETATM   22  N4  UNL     1      24.330   4.211  49.796  1.00  0.00    -0.062 NA
HETATM   23  C15 UNL     1      26.670   5.549  48.784  1.00  0.00     0.017 A 
HETATM   24  C18 UNL     1      25.976   7.478  49.919  1.00  0.00     0.130 A 
HETATM   25  C16 UNL     1      27.797   6.198  48.336  1.00  0.00     0.020 A 
HETATM   26  C17 UNL     1      27.982   7.512  48.711  1.00  0.00     0.116 A 
HETATM   27  N3  UNL     1      27.080   8.154  49.496  1.00  0.00    -0.272 NA
ENDBRANCH   1  16
TORSDOF 5
ENDMDL
MODEL 4
REMARK VINA RESULT:      -8.1      2.349      5.828
REMARK  5 active torsions:
REMARK  status: ('A' for Active; 'I' for Inactive)
REMARK    1  A    between atoms: C3_3  and  C4_4 
REMARK    2  A    between atoms: C4_4  and  O1_5 
REMARK    3  A    between atoms: O1_5  and  C5_6 
REMARK    4  A    between atoms: C9_10  and  N1_11 
REMARK    5  A    between atoms: N1_11  and  C10_12 
ROOT
HETATM    1  N1  UNL     1      20.385   1.054  51.604  1.00  0.00    -0.188 N 
HETATM    2  H9  UNL     1      19.373   0.937  51.917  1.00  0.00     0.184 HD
ENDROOT
BRANCH   1   3
HETATM    3  C9  UNL     1      21.048   1.675  50.503  1.00  0.00     0.052 A 
HETATM    4  C8  UNL     1      21.129   0.884  49.374  1.00  0.00     0.030 A 
HETATM    5  C7  UNL     1      21.770   1.326  48.230  1.00  0.00     0.005 A 
HETATM    6  C6  UNL     1      22.330   2.596  48.269  1.00  0.00     0.037 A 
HETATM    7  C5  UNL     1      22.261   3.388  49.372  1.00  0.00     0.070 A 
HETATM    8  C19 UNL     1      21.610   2.959  50.547  1.00  0.00     0.066 A 
BRANCH   7   9
HETATM    9  O1  UNL     1      22.770   4.656  49.551  1.00  0.00    -0.350 OA
BRANCH   9  10
HETATM   10  C4  UNL     1      23.907   5.122  48.865  1.00  0.00     0.189 C 
BRANCH  10  11
HETATM   11  C3  UNL     1      25.142   5.096  49.764  1.00  0.00     0.074 A 
HETATM   12  C2  UNL     1      25.589   3.700  49.978  1.00  0.00     0.004 A 
HETATM   13  C1  UNL     1      26.775   3.575  49.435  1.00  0.00     0.112 A 
HETATM   14  N5  UNL     1      27.199   4.808  48.842  1.00  0.00    -0.277 NA
HETATM   15  C20 UNL     1      26.281   5.713  49.014  1.00  0.00     0.100 A 
ENDBRANCH  10  11
ENDBRANCH   9  10
ENDBRANCH   7   9
ENDBRANCH   1   3
BRANCH   1  16
HETATM   16  C10 UNL     1      21.343   0.460  52.462  1.00  0.00     0.727 A 
HETATM   17  N2  UNL     1      20.926  -0.232  53.442  1.00  0.00    -0.075 NA
HETATM   18  C11 UNL     1      21.381  -0.931  54.450  1.00  0.00     0.139 A 
HETATM   19  C12 UNL     1      22.782  -0.829  54.340  1.00  0.00     0.053 A 
HETATM   20  C13 UNL     1      23.466  -0.120  53.343  1.00  0.00     0.089 A 
HETATM   21  C14 UNL     1      24.910  -0.078  53.271  1.00  0.00     0.011 A 
HETATM   22  N4  UNL     1      22.703   0.497  52.441  1.00  0.00    -0.062 NA
HETATM   23  C15 UNL     1      25.577   0.594  52.284  1.00  0.00     0.017 A 
HETATM   24  C18 UNL     1      25.660  -0.753  54.199  1.00  0.00     0.130 A 
HETATM   25  C16 UNL     1      26.950   0.602  52.210  1.00  0.00     0.020 A 
HETATM   26  C17 UNL     1      27.657  -0.095  53.167  1.00  0.00     0.116 A 
HETATM   27  N3  UNL     1      27.021  -0.769  54.160  1.00  0.00    -0.272 NA
ENDBRANCH   1  16
TORSDOF 5
ENDMDL
MODEL 5
REMARK VINA RESULT:      -8.0      1.831      5.583
REMARK  5 active torsions:
REMARK  status: ('A' for Active; 'I' for Inactive)
REMARK    1  A    between atoms: C3_3  and  C4_4 
REMARK    2  A    between atoms: C4_4  and  O1_5 
REMARK    3  A    between atoms: O1_5  and  C5_6 
REMARK    4  A    between atoms: C9_10  and  N1_11 
REMARK    5  A    between atoms: N1_11  and  C10_12 
ROOT
HETATM    1  N1  UNL     1      23.624   5.333  51.539  1.00  0.00    -0.188 N 
HETATM    2  H9  UNL     1      23.450   6.312  51.924  1.00  0.00     0.184 HD
ENDROOT
BRANCH   1   3
HETATM    3  C9  UNL     1      24.713   4.668  50.900  1.00  0.00     0.052 A 
HETATM    4  C8  UNL     1      25.235   5.349  49.819  1.00  0.00     0.030 A 
HETATM    5  C7  UNL     1      26.273   4.824  49.070  1.00  0.00     0.005 A 
HETATM    6  C6  UNL     1      26.764   3.582  49.452  1.00  0.00     0.037 A 
HETATM    7  C5  UNL     1      26.262   2.896  50.512  1.00  0.00     0.070 A 
HETATM    8  C19 UNL     1      25.206   3.414  51.290  1.00  0.00     0.066 A 
BRANCH   7   9
HETATM    9  O1  UNL     1      26.646   1.665  50.997  1.00  0.00    -0.350 OA
BRANCH   9  10
HETATM   10  C4  UNL     1      25.935   0.990  52.007  1.00  0.00     0.189 C 
BRANCH  10  11
HETATM   11  C3  UNL     1      26.781  -0.119  52.629  1.00  0.00     0.074 A 
HETATM   12  C2  UNL     1      28.019   0.447  53.212  1.00  0.00     0.004 A 
HETATM   13  C1  UNL     1      27.973   0.256  54.507  1.00  0.00     0.112 A 
HETATM   14  N5  UNL     1      26.765  -0.417  54.882  1.00  0.00    -0.277 NA
HETATM   15  C20 UNL     1      26.050  -0.652  53.822  1.00  0.00     0.100 A 
ENDBRANCH  10  11
ENDBRANCH   9  10
ENDBRANCH   7   9
ENDBRANCH   1   3
BRANCH   1  16
HETATM   16  C10 UNL     1      22.533   4.441  51.671  1.00  0.00     0.727 A 
HETATM   17  N2  UNL     1      21.415   4.779  51.172  1.00  0.00    -0.075 NA
HETATM   18  C11 UNL     1      20.191   4.334  51.042  1.00  0.00     0.139 A 
HETATM   19  C12 UNL     1      20.205   3.083  51.690  1.00  0.00     0.053 A 
HETATM   20  C13 UNL     1      21.320   2.506  52.311  1.00  0.00     0.089 A 
HETATM   21  C14 UNL     1      21.275   1.203  52.936  1.00  0.00     0.011 A 
HETATM   22  N4  UNL     1      22.445   3.222  52.270  1.00  0.00    -0.062 NA
HETATM   23  C15 UNL     1      22.370   0.629  53.521  1.00  0.00     0.017 A 
HETATM   24  C18 UNL     1      20.108   0.483  52.930  1.00  0.00     0.130 A 
HETATM   25  C16 UNL     1      22.320  -0.624  54.086  1.00  0.00     0.020 A 
HETATM   26  C17 UNL     1      21.123  -1.305  54.051  1.00  0.00     0.116 A 
HETATM   27  N3  UNL     1      20.019  -0.760  53.479  1.00  0.00    -0.272 NA
ENDBRANCH   1  16
TORSDOF 5
ENDMDL
MODEL 6
REMARK VINA RESULT:      -7.8      2.265      5.770
REMARK  5 active torsions:
REMARK  status: ('A' for Active; 'I' for Inactive)
REMARK    1  A    between atoms: C3_3  and  C4_4 
REMARK    2  A    between atoms: C4_4  and  O1_5 
REMARK    3  A    between atoms: O1_5  and  C5_6 
REMARK    4  A    between atoms: C9_10  and  N1_11 
REMARK    5  A    between atoms: N1_11  and  C10_12 
ROOT
HETATM    1  N1  UNL     1      22.180   1.963  48.353  1.00  0.00    -0.188 N 
HETATM    2  H9  UNL     1      21.926   1.547  47.406  1.00  0.00     0.184 HD
ENDROOT
BRANCH   1   3
HETATM    3  C9  UNL     1      23.064   2.986  48.815  1.00  0.00     0.052 A 
HETATM    4  C8  UNL     1      22.859   4.217  48.224  1.00  0.00     0.030 A 
HETATM    5  C7  UNL     1      23.653   5.306  48.536  1.00  0.00     0.005 A 
HETATM    6  C6  UNL     1      24.665   5.105  49.467  1.00  0.00     0.037 A 
HETATM    7  C5  UNL     1      24.882   3.900  50.057  1.00  0.00     0.070 A 
HETATM    8  C19 UNL     1      24.083   2.779  49.755  1.00  0.00     0.066 A 
BRANCH   7   9
HETATM    9  O1  UNL     1      25.842   3.560  50.985  1.00  0.00    -0.350 OA
BRANCH   9  10
HETATM   10  C4  UNL     1      26.509   2.321  50.970  1.00  0.00     0.189 C 
BRANCH  10  11
HETATM   11  C3  UNL     1      26.470   1.658  52.345  1.00  0.00     0.074 A 
HETATM   12  C2  UNL     1      26.597   0.188  52.207  1.00  0.00     0.004 A 
HETATM   13  C1  UNL     1      27.720  -0.169  52.779  1.00  0.00     0.112 A 
HETATM   14  N5  UNL     1      28.405   0.969  53.317  1.00  0.00    -0.277 NA
HETATM   15  C20 UNL     1      27.712   2.044  53.087  1.00  0.00     0.100 A 
ENDBRANCH  10  11
ENDBRANCH   9  10
ENDBRANCH   7   9
ENDBRANCH   1   3
BRANCH   1  16
HETATM   16  C10 UNL     1      21.501   1.390  49.455  1.00  0.00     0.727 A 
HETATM   17  N2  UNL     1      20.234   1.315  49.408  1.00  0.00    -0.075 NA
HETATM   18  C11 UNL     1      19.220   0.901  50.124  1.00  0.00     0.139 A 
HETATM   19  C12 UNL     1      19.807   0.400  51.303  1.00  0.00     0.053 A 
HETATM   20  C13 UNL     1      21.181   0.379  51.577  1.00  0.00     0.089 A 
HETATM   21  C14 UNL     1      21.723  -0.176  52.797  1.00  0.00     0.011 A 
HETATM   22  N4  UNL     1      21.972   0.881  50.627  1.00  0.00    -0.062 NA
HETATM   23  C15 UNL     1      23.066  -0.219  53.053  1.00  0.00     0.017 A 
HETATM   24  C18 UNL     1      20.880  -0.712  53.736  1.00  0.00     0.130 A 
HETATM   25  C16 UNL     1      23.570  -0.776  54.205  1.00  0.00     0.020 A 
HETATM   26  C17 UNL     1      22.678  -1.303  55.115  1.00  0.00     0.116 A 
HETATM   27  N3  UNL     1      21.340  -1.273  54.889  1.00  0.00    -0.272 NA
ENDBRANCH   1  16
TORSDOF 5
ENDMDL
MODEL 7
REMARK VINA RESULT:      -7.8      2.784      6.721
REMARK  5 active torsions:
REMARK  status: ('A' for Active; 'I' for Inactive)
REMARK    1  A    between atoms: C3_3  and  C4_4 
REMARK    2  A    between atoms: C4_4  and  O1_5 
REMARK    3  A    between atoms: O1_5  and  C5_6 
REMARK    4  A    between atoms: C9_10  and  N1_11 
REMARK    5  A    between atoms: N1_11  and  C10_12 
ROOT
HETATM    1  N1  UNL     1      23.535   3.162  49.822  1.00  0.00    -0.188 N 
HETATM    2  H9  UNL     1      22.814   2.769  49.143  1.00  0.00     0.184 HD
ENDROOT
BRANCH   1   3
HETATM    3  C9  UNL     1      24.315   4.355  49.904  1.00  0.00     0.052 A 
HETATM    4  C8  UNL     1      23.767   5.333  50.709  1.00  0.00     0.030 A 
HETATM    5  C7  UNL     1      24.382   6.563  50.868  1.00  0.00     0.005 A 
HETATM    6  C6  UNL     1      25.571   6.769  50.181  1.00  0.00     0.037 A 
HETATM    7  C5  UNL     1      26.124   5.819  49.383  1.00  0.00     0.070 A 
HETATM    8  C19 UNL     1      25.516   4.558  49.209  1.00  0.00     0.066 A 
BRANCH   7   9
HETATM    9  O1  UNL     1      27.287   5.888  48.645  1.00  0.00    -0.350 OA
BRANCH   9  10
HETATM   10  C4  UNL     1      27.871   7.108  48.260  1.00  0.00     0.189 C 
BRANCH  10  11
HETATM   11  C3  UNL     1      29.275   6.894  47.699  1.00  0.00     0.074 A 
HETATM   12  C2  UNL     1      30.251   7.738  48.427  1.00  0.00     0.004 A 
HETATM   13  C1  UNL     1      31.078   6.939  49.055  1.00  0.00     0.112 A 
HETATM   14  N5  UNL     1      30.743   5.566  48.815  1.00  0.00    -0.277 NA
HETATM   15  C20 UNL     1      29.706   5.501  48.034  1.00  0.00     0.100 A 
ENDBRANCH  10  11
ENDBRANCH   9  10
ENDBRANCH   7   9
ENDBRANCH   1   3
BRANCH   1  16
HETATM   16  C10 UNL     1      23.824   2.329  50.929  1.00  0.00     0.727 A 
HETATM   17  N2  UNL     1      22.870   1.675  51.456  1.00  0.00    -0.075 NA
HETATM   18  C11 UNL     1      22.641   0.833  52.430  1.00  0.00     0.139 A 
HETATM   19  C12 UNL     1      23.900   0.650  53.036  1.00  0.00     0.053 A 
HETATM   20  C13 UNL     1      25.091   1.265  52.628  1.00  0.00     0.089 A 
HETATM   21  C14 UNL     1      26.359   1.013  53.277  1.00  0.00     0.011 A 
HETATM   22  N4  UNL     1      24.994   2.084  51.581  1.00  0.00    -0.062 NA
HETATM   23  C15 UNL     1      27.525   1.594  52.863  1.00  0.00     0.017 A 
HETATM   24  C18 UNL     1      26.424   0.137  54.331  1.00  0.00     0.130 A 
HETATM   25  C16 UNL     1      28.729   1.322  53.471  1.00  0.00     0.020 A 
HETATM   26  C17 UNL     1      28.739   0.434  54.525  1.00  0.00     0.116 A 
HETATM   27  N3  UNL     1      27.596  -0.157  54.958  1.00  0.00    -0.272 NA
ENDBRANCH   1  16
TORSDOF 5
ENDMDL
MODEL 8
REMARK VINA RESULT:      -7.7      1.681      2.245
REMARK  5 active torsions:
REMARK  status: ('A' for Active; 'I' for Inactive)
REMARK    1  A    between atoms: C3_3  and  C4_4 
REMARK    2  A    between atoms: C4_4  and  O1_5 
REMARK    3  A    between atoms: O1_5  and  C5_6 
REMARK    4  A    between atoms: C9_10  and  N1_11 
REMARK    5  A    between atoms: N1_11  and  C10_12 
ROOT
HETATM    1  N1  UNL     1      20.917   2.004  52.563  1.00  0.00    -0.188 N 
HETATM    2  H9  UNL     1      20.031   2.572  52.735  1.00  0.00     0.184 HD
ENDROOT
BRANCH   1   3
HETATM    3  C9  UNL     1      21.550   0.888  53.188  1.00  0.00     0.052 A 
HETATM    4  C8  UNL     1      20.704   0.120  53.964  1.00  0.00     0.030 A 
HETATM    5  C7  UNL     1      21.169  -0.979  54.664  1.00  0.00     0.005 A 
HETATM    6  C6  UNL     1      22.522  -1.274  54.555  1.00  0.00     0.037 A 
HETATM    7  C5  UNL     1      23.369  -0.528  53.798  1.00  0.00     0.070 A 
HETATM    8  C19 UNL     1      22.916   0.594  53.074  1.00  0.00     0.066 A 
BRANCH   7   9
HETATM    9  O1  UNL     1      24.723  -0.701  53.603  1.00  0.00    -0.350 OA
BRANCH   9  10
HETATM   10  C4  UNL     1      25.577   0.352  53.228  1.00  0.00     0.189 C 
BRANCH  10  11
HETATM   11  C3  UNL     1      26.787  -0.169  52.455  1.00  0.00     0.074 A 
HETATM   12  C2  UNL     1      28.040   0.299  53.092  1.00  0.00     0.004 A 
HETATM   13  C1  UNL     1      28.679  -0.755  53.535  1.00  0.00     0.112 A 
HETATM   14  N5  UNL     1      27.948  -1.954  53.249  1.00  0.00    -0.277 NA
HETATM   15  C20 UNL     1      26.848  -1.655  52.624  1.00  0.00     0.100 A 
ENDBRANCH  10  11
ENDBRANCH   9  10
ENDBRANCH   7   9
ENDBRANCH   1   3
BRANCH   1  16
HETATM   16  C10 UNL     1      21.687   2.428  51.454  1.00  0.00     0.727 A 
HETATM   17  N2  UNL     1      21.670   1.716  50.402  1.00  0.00    -0.075 NA
HETATM   18  C11 UNL     1      22.179   1.682  49.197  1.00  0.00     0.139 A 
HETATM   19  C12 UNL     1      22.992   2.831  49.131  1.00  0.00     0.053 A 
HETATM   20  C13 UNL     1      23.166   3.760  50.165  1.00  0.00     0.089 A 
HETATM   21  C14 UNL     1      23.996   4.936  50.023  1.00  0.00     0.011 A 
HETATM   22  N4  UNL     1      22.496   3.510  51.290  1.00  0.00    -0.062 NA
HETATM   23  C15 UNL     1      24.146   5.855  51.024  1.00  0.00     0.017 A 
HETATM   24  C18 UNL     1      24.644   5.175  48.838  1.00  0.00     0.130 A 
HETATM   25  C16 UNL     1      24.915   6.985  50.865  1.00  0.00     0.020 A 
HETATM   26  C17 UNL     1      25.543   7.178  49.653  1.00  0.00     0.116 A 
HETATM   27  N3  UNL     1      25.414   6.281  48.642  1.00  0.00    -0.272 NA
ENDBRANCH   1  16
TORSDOF 5
ENDMDL
MODEL 9
REMARK VINA RESULT:      -7.4      2.833      5.353
REMARK  5 active torsions:
REMARK  status: ('A' for Active; 'I' for Inactive)
REMARK    1  A    between atoms: C3_3  and  C4_4 
REMARK    2  A    between atoms: C4_4  and  O1_5 
REMARK    3  A    between atoms: O1_5  and  C5_6 
REMARK    4  A    between atoms: C9_10  and  N1_11 
REMARK    5  A    between atoms: N1_11  and  C10_12 
ROOT
HETATM    1  N1  UNL     1      23.155   4.356  50.345  1.00  0.00    -0.188 N 
HETATM    2  H9  UNL     1      22.802   5.238  50.829  1.00  0.00     0.184 HD
ENDROOT
BRANCH   1   3
HETATM    3  C9  UNL     1      22.585   3.104  49.964  1.00  0.00     0.052 A 
HETATM    4  C8  UNL     1      22.490   2.919  48.599  1.00  0.00     0.030 A 
HETATM    5  C7  UNL     1      21.930   1.772  48.065  1.00  0.00     0.005 A 
HETATM    6  C6  UNL     1      21.465   0.818  48.962  1.00  0.00     0.037 A 
HETATM    7  C5  UNL     1      21.549   0.984  50.308  1.00  0.00     0.070 A 
HETATM    8  C19 UNL     1      22.119   2.144  50.873  1.00  0.00     0.066 A 
BRANCH   7   9
HETATM    9  O1  UNL     1      21.129   0.130  51.305  1.00  0.00    -0.350 OA
BRANCH   9  10
HETATM   10  C4  UNL     1      21.555   0.254  52.641  1.00  0.00     0.189 C 
BRANCH  10  11
HETATM   11  C3  UNL     1      22.256  -1.017  53.116  1.00  0.00     0.074 A 
HETATM   12  C2  UNL     1      23.440  -0.671  53.936  1.00  0.00     0.004 A 
HETATM   13  C1  UNL     1      23.223  -1.107  55.152  1.00  0.00     0.112 A 
HETATM   14  N5  UNL     1      21.944  -1.745  55.246  1.00  0.00    -0.277 NA
HETATM   15  C20 UNL     1      21.355  -1.714  54.087  1.00  0.00     0.100 A 
ENDBRANCH  10  11
ENDBRANCH   9  10
ENDBRANCH   7   9
ENDBRANCH   1   3
BRANCH   1  16
HETATM   16  C10 UNL     1      24.520   4.390  49.972  1.00  0.00     0.727 A 
HETATM   17  N2  UNL     1      25.257   3.407  50.295  1.00  0.00    -0.075 NA
HETATM   18  C11 UNL     1      26.495   2.996  50.191  1.00  0.00     0.139 A 
HETATM   19  C12 UNL     1      27.147   4.030  49.491  1.00  0.00     0.053 A 
HETATM   20  C13 UNL     1      26.540   5.208  49.035  1.00  0.00     0.089 A 
HETATM   21  C14 UNL     1      27.261   6.220  48.296  1.00  0.00     0.011 A 
HETATM   22  N4  UNL     1      25.239   5.331  49.300  1.00  0.00    -0.062 NA
HETATM   23  C15 UNL     1      26.662   7.357  47.830  1.00  0.00     0.017 A 
HETATM   24  C18 UNL     1      28.592   6.041  48.015  1.00  0.00     0.130 A 
HETATM   25  C16 UNL     1      27.354   8.298  47.103  1.00  0.00     0.020 A 
HETATM   26  C17 UNL     1      28.688   8.069  46.847  1.00  0.00     0.116 A 
HETATM   27  N3  UNL     1      29.310   6.950  47.298  1.00  0.00    -0.272 NA
ENDBRANCH   1  16
TORSDOF 5
ENDMDL
