MODEL 1
REMARK VINA RESULT:      -9.1      0.000      0.000
REMARK  4 active torsions:
REMARK  status: ('A' for Active; 'I' for Inactive)
REMARK    1  A    between atoms: C12_13  and  O2_14 
REMARK    2  A    between atoms: O2_14  and  C13_15 
REMARK    3  A    between atoms: C13_15  and  C14_16 
REMARK    4  A    between atoms: C16_19  and  O4_20 
ROOT
HETATM    1  C1  UNL     1      24.271   6.582  51.419  1.00  0.00     0.022 C 
HETATM    2  C2  UNL     1      24.399   5.908  50.040  1.00  0.00     0.075 A 
HETATM    3  C3  UNL     1      24.814   4.511  50.314  1.00  0.00     0.092 A 
HETATM    4  C4  UNL     1      25.953   4.135  49.793  1.00  0.00     0.150 A 
HETATM    5  O1  UNL     1      26.058   2.831  50.218  1.00  0.00    -0.333 OA
HETATM    6  C5  UNL     1      26.796   2.513  51.412  1.00  0.00     0.269 C 
HETATM    7  C6  UNL     1      26.092   1.555  52.200  1.00  0.00    -0.080 C 
HETATM    8  C7  UNL     1      25.504   0.786  52.833  1.00  0.00    -0.103 C 
HETATM    9  C8  UNL     1      24.770  -0.131  53.604  1.00  0.00     0.057 C 
HETATM   10  C9  UNL     1      23.491   0.182  53.313  1.00  0.00     0.072 C 
HETATM   11  C10 UNL     1      22.256  -0.435  53.824  1.00  0.00    -0.019 C 
HETATM   12  C11 UNL     1      21.393   0.326  53.157  1.00  0.00     0.029 C 
HETATM   13  C12 UNL     1      20.165   1.255  52.340  1.00  0.00     0.287 C 
HETATM   14  O3  UNL     1      21.077   1.610  51.072  1.00  0.00    -0.326 OA
HETATM   15  C16 UNL     1      21.689   2.793  51.368  1.00  0.00     0.286 C 
HETATM   16  C18 UNL     1      23.088   2.803  50.812  1.00  0.00     0.236 C 
HETATM   17  O5  UNL     1      23.819   3.981  51.086  1.00  0.00    -0.347 OA
HETATM   18  C19 UNL     1      26.887   4.866  48.973  1.00  0.00     0.218 A 
HETATM   19  O6  UNL     1      27.903   4.282  48.601  1.00  0.00    -0.284 OA
HETATM   20  C20 UNL     1      26.539   6.242  48.657  1.00  0.00     0.024 A 
HETATM   21  C21 UNL     1      27.378   6.990  47.877  1.00  0.00     0.016 A 
HETATM   22  C22 UNL     1      27.006   8.299  47.587  1.00  0.00     0.001 A 
HETATM   23  C23 UNL     1      25.806   8.763  48.108  1.00  0.00     0.001 A 
HETATM   24  C24 UNL     1      24.988   7.978  48.890  1.00  0.00     0.009 A 
HETATM   25  C25 UNL     1      25.346   6.656  49.193  1.00  0.00    -0.034 A 
ENDROOT
BRANCH  13  26
HETATM   26  O2  UNL     1      19.654   0.230  51.756  1.00  0.00    -0.358 OA
BRANCH  26  27
HETATM   27  C13 UNL     1      18.453  -0.141  51.379  1.00  0.00     0.171 C 
BRANCH  27  28
HETATM   28  C14 UNL     1      17.471  -0.711  52.345  1.00  0.00     0.022 C 
HETATM   29  C15 UNL     1      18.148  -1.651  53.341  1.00  0.00     0.007 C 
ENDBRANCH  27  28
ENDBRANCH  26  27
ENDBRANCH  13  26
BRANCH  15  30
HETATM   30  O4  UNL     1      20.979   3.830  50.589  1.00  0.00    -0.364 OA
HETATM   31  C17 UNL     1      20.944   3.320  49.306  1.00  0.00     0.204 C 
ENDBRANCH  15  30
TORSDOF 4
ENDMDL
MODEL 2
REMARK VINA RESULT:      -8.7      2.420      7.606
REMARK  4 active torsions:
REMARK  status: ('A' for Active; 'I' for Inactive)
REMARK    1  A    between atoms: C12_13  and  O2_14 
REMARK    2  A    between atoms: O2_14  and  C13_15 
REMARK    3  A    between atoms: C13_15  and  C14_16 
REMARK    4  A    between atoms: C16_19  and  O4_20 
ROOT
HETATM    1  C1  UNL     1      21.768   0.724  50.463  1.00  0.00     0.022 C 
HETATM    2  C2  UNL     1      22.015   1.345  51.850  1.00  0.00     0.075 A 
HETATM    3  C3  UNL     1      23.266   2.131  51.718  1.00  0.00     0.092 A 
HETATM    4  C4  UNL     1      24.251   1.781  52.505  1.00  0.00     0.150 A 
HETATM    5  O1  UNL     1      25.242   2.667  52.152  1.00  0.00    -0.333 OA
HETATM    6  C5  UNL     1      26.234   2.297  51.176  1.00  0.00     0.269 C 
HETATM    7  C6  UNL     1      26.474   3.371  50.268  1.00  0.00    -0.080 C 
HETATM    8  C7  UNL     1      26.650   4.247  49.534  1.00  0.00    -0.103 C 
HETATM    9  C8  UNL     1      26.838   5.311  48.635  1.00  0.00     0.057 C 
HETATM   10  C9  UNL     1      25.626   5.902  48.606  1.00  0.00     0.072 C 
HETATM   11  C10 UNL     1      25.198   7.079  47.833  1.00  0.00    -0.019 C 
HETATM   12  C11 UNL     1      23.938   7.116  48.255  1.00  0.00     0.029 C 
HETATM   13  C12 UNL     1      22.267   7.269  48.733  1.00  0.00     0.287 C 
HETATM   14  O3  UNL     1      22.470   6.594  50.171  1.00  0.00    -0.326 OA
HETATM   15  C16 UNL     1      22.236   5.261  49.998  1.00  0.00     0.286 C 
HETATM   16  C18 UNL     1      23.162   4.457  50.870  1.00  0.00     0.236 C 
HETATM   17  O5  UNL     1      23.015   3.057  50.747  1.00  0.00    -0.347 OA
HETATM   18  C19 UNL     1      24.320   0.744  53.504  1.00  0.00     0.218 A 
HETATM   19  O6  UNL     1      25.376   0.611  54.122  1.00  0.00    -0.284 OA
HETATM   20  C20 UNL     1      23.125  -0.061  53.692  1.00  0.00     0.024 A 
HETATM   21  C21 UNL     1      23.120  -1.058  54.630  1.00  0.00     0.016 A 
HETATM   22  C22 UNL     1      21.954  -1.800  54.789  1.00  0.00     0.001 A 
HETATM   23  C23 UNL     1      20.867  -1.480  53.985  1.00  0.00     0.001 A 
HETATM   24  C24 UNL     1      20.911  -0.468  53.052  1.00  0.00     0.009 A 
HETATM   25  C25 UNL     1      22.078   0.291  52.878  1.00  0.00    -0.034 A 
ENDROOT
BRANCH  13  26
HETATM   26  O2  UNL     1      22.420   8.454  49.206  1.00  0.00    -0.358 OA
BRANCH  26  27
HETATM   27  C13 UNL     1      21.732   9.572  49.193  1.00  0.00     0.171 C 
BRANCH  27  28
HETATM   28  C14 UNL     1      20.268   9.586  48.911  1.00  0.00     0.022 C 
HETATM   29  C15 UNL     1      19.450   9.549  50.199  1.00  0.00     0.007 C 
ENDBRANCH  27  28
ENDBRANCH  26  27
ENDBRANCH  13  26
BRANCH  15  30
HETATM   30  O4  UNL     1      20.891   5.004  50.559  1.00  0.00    -0.364 OA
HETATM   31  C17 UNL     1      20.207   4.401  49.524  1.00  0.00     0.204 C 
ENDBRANCH  15  30
TORSDOF 4
ENDMDL
MODEL 3
REMARK VINA RESULT:      -8.4      2.892      6.056
REMARK  4 active torsions:
REMARK  status: ('A' for Active; 'I' for Inactive)
REMARK    1  A    between atoms: C12_13  and  O2_14 
REMARK    2  A    between atoms: O2_14  and  C13_15 
REMARK    3  A    between atoms: C13_15  and  C14_16 
REMARK    4  A    between atoms: C16_19  and  O4_20 
ROOT
HETATM    1  C1  UNL     1      25.056   3.215  53.806  1.00  0.00     0.022 C 
HETATM    2  C2  UNL     1      25.589   2.148  52.833  1.00  0.00     0.075 A 
HETATM    3  C3  UNL     1      24.506   1.142  52.711  1.00  0.00     0.092 A 
HETATM    4  C4  UNL     1      24.811  -0.079  53.068  1.00  0.00     0.150 A 
HETATM    5  O1  UNL     1      23.633  -0.755  52.850  1.00  0.00    -0.333 OA
HETATM    6  C5  UNL     1      22.697  -0.950  53.926  1.00  0.00     0.269 C 
HETATM    7  C6  UNL     1      21.362  -0.715  53.483  1.00  0.00    -0.080 C 
HETATM    8  C7  UNL     1      20.286  -0.509  53.111  1.00  0.00    -0.103 C 
HETATM    9  C8  UNL     1      18.986  -0.236  52.653  1.00  0.00     0.057 C 
HETATM   10  C9  UNL     1      19.189   0.703  51.706  1.00  0.00     0.072 C 
HETATM   11  C10 UNL     1      18.193   1.389  50.867  1.00  0.00    -0.019 C 
HETATM   12  C11 UNL     1      19.039   2.156  50.185  1.00  0.00     0.029 C 
HETATM   13  C12 UNL     1      20.045   3.210  49.227  1.00  0.00     0.287 C 
HETATM   14  O3  UNL     1      21.340   2.270  49.296  1.00  0.00    -0.326 OA
HETATM   15  C16 UNL     1      22.048   2.684  50.387  1.00  0.00     0.286 C 
HETATM   16  C18 UNL     1      22.686   1.504  51.067  1.00  0.00     0.236 C 
HETATM   17  O5  UNL     1      23.427   1.826  52.227  1.00  0.00    -0.347 OA
HETATM   18  C19 UNL     1      26.052  -0.621  53.563  1.00  0.00     0.218 A 
HETATM   19  O6  UNL     1      26.087  -1.820  53.834  1.00  0.00    -0.284 OA
HETATM   20  C20 UNL     1      27.161   0.309  53.701  1.00  0.00     0.024 A 
HETATM   21  C21 UNL     1      28.369  -0.142  54.158  1.00  0.00     0.016 A 
HETATM   22  C22 UNL     1      29.410   0.776  54.266  1.00  0.00     0.001 A 
HETATM   23  C23 UNL     1      29.156   2.091  53.901  1.00  0.00     0.001 A 
HETATM   24  C24 UNL     1      27.924   2.506  53.444  1.00  0.00     0.009 A 
HETATM   25  C25 UNL     1      26.863   1.595  53.329  1.00  0.00    -0.034 A 
ENDROOT
BRANCH  13  26
HETATM   26  O2  UNL     1      19.666   2.699  48.110  1.00  0.00    -0.358 OA
BRANCH  26  27
HETATM   27  C13 UNL     1      19.531   3.124  46.875  1.00  0.00     0.171 C 
BRANCH  27  28
HETATM   28  C14 UNL     1      20.438   4.159  46.300  1.00  0.00     0.022 C 
HETATM   29  C15 UNL     1      21.821   3.586  45.998  1.00  0.00     0.007 C 
ENDBRANCH  27  28
ENDBRANCH  26  27
ENDBRANCH  13  26
BRANCH  15  30
HETATM   30  O4  UNL     1      23.190   3.465  49.862  1.00  0.00    -0.364 OA
HETATM   31  C17 UNL     1      23.132   4.654  50.561  1.00  0.00     0.204 C 
ENDBRANCH  15  30
TORSDOF 4
ENDMDL
MODEL 4
REMARK VINA RESULT:      -7.9      2.507      8.545
REMARK  4 active torsions:
REMARK  status: ('A' for Active; 'I' for Inactive)
REMARK    1  A    between atoms: C12_13  and  O2_14 
REMARK    2  A    between atoms: O2_14  and  C13_15 
REMARK    3  A    between atoms: C13_15  and  C14_16 
REMARK    4  A    between atoms: C16_19  and  O4_20 
ROOT
HETATM    1  C1  UNL     1      22.228   2.925  47.544  1.00  0.00     0.022 C 
HETATM    2  C2  UNL     1      22.150   3.376  49.014  1.00  0.00     0.075 A 
HETATM    3  C3  UNL     1      23.521   3.812  49.372  1.00  0.00     0.092 A 
HETATM    4  C4  UNL     1      24.091   3.170  50.359  1.00  0.00     0.150 A 
HETATM    5  O1  UNL     1      25.318   3.784  50.445  1.00  0.00    -0.333 OA
HETATM    6  C5  UNL     1      26.458   3.225  49.766  1.00  0.00     0.269 C 
HETATM    7  C6  UNL     1      27.220   4.250  49.131  1.00  0.00    -0.080 C 
HETATM    8  C7  UNL     1      27.820   5.092  48.612  1.00  0.00    -0.103 C 
HETATM    9  C8  UNL     1      28.529   6.120  47.967  1.00  0.00     0.057 C 
HETATM   10  C9  UNL     1      27.561   7.009  47.661  1.00  0.00     0.072 C 
HETATM   11  C10 UNL     1      27.690   8.301  46.967  1.00  0.00    -0.019 C 
HETATM   12  C11 UNL     1      26.405   8.642  46.996  1.00  0.00     0.029 C 
HETATM   13  C12 UNL     1      24.753   9.200  46.971  1.00  0.00     0.287 C 
HETATM   14  O3  UNL     1      24.318   8.412  48.296  1.00  0.00    -0.326 OA
HETATM   15  C16 UNL     1      23.852   7.200  47.877  1.00  0.00     0.286 C 
HETATM   16  C18 UNL     1      24.236   6.130  48.864  1.00  0.00     0.236 C 
HETATM   17  O5  UNL     1      23.818   4.827  48.508  1.00  0.00    -0.347 OA
HETATM   18  C19 UNL     1      23.592   2.093  51.179  1.00  0.00     0.218 A 
HETATM   19  O6  UNL     1      24.330   1.652  52.059  1.00  0.00    -0.284 OA
HETATM   20  C20 UNL     1      22.248   1.621  50.888  1.00  0.00     0.024 A 
HETATM   21  C21 UNL     1      21.712   0.606  51.634  1.00  0.00     0.016 A 
HETATM   22  C22 UNL     1      20.419   0.189  51.333  1.00  0.00     0.001 A 
HETATM   23  C23 UNL     1      19.755   0.830  50.295  1.00  0.00     0.001 A 
HETATM   24  C24 UNL     1      20.330   1.848  49.568  1.00  0.00     0.009 A 
HETATM   25  C25 UNL     1      21.633   2.283  49.857  1.00  0.00    -0.034 A 
ENDROOT
BRANCH  13  26
HETATM   26  O2  UNL     1      25.013  10.273  47.628  1.00  0.00    -0.358 OA
BRANCH  26  27
HETATM   27  C13 UNL     1      24.604  11.520  47.601  1.00  0.00     0.171 C 
BRANCH  27  28
HETATM   28  C14 UNL     1      25.541  12.656  47.836  1.00  0.00     0.022 C 
HETATM   29  C15 UNL     1      26.944  12.162  48.179  1.00  0.00     0.007 C 
ENDBRANCH  27  28
ENDBRANCH  26  27
ENDBRANCH  13  26
BRANCH  15  30
HETATM   30  O4  UNL     1      22.378   7.272  47.970  1.00  0.00    -0.364 OA
HETATM   31  C17 UNL     1      22.148   7.840  49.207  1.00  0.00     0.204 C 
ENDBRANCH  15  30
TORSDOF 4
ENDMDL
MODEL 5
REMARK VINA RESULT:      -7.7      1.536      2.108
REMARK  4 active torsions:
REMARK  status: ('A' for Active; 'I' for Inactive)
REMARK    1  A    between atoms: C12_13  and  O2_14 
REMARK    2  A    between atoms: O2_14  and  C13_15 
REMARK    3  A    between atoms: C13_15  and  C14_16 
REMARK    4  A    between atoms: C16_19  and  O4_20 
ROOT
HETATM    1  C1  UNL     1      25.053   7.371  50.808  1.00  0.00     0.022 C 
HETATM    2  C2  UNL     1      25.156   6.639  49.457  1.00  0.00     0.075 A 
HETATM    3  C3  UNL     1      25.233   5.196  49.788  1.00  0.00     0.092 A 
HETATM    4  C4  UNL     1      26.306   4.568  49.382  1.00  0.00     0.150 A 
HETATM    5  O1  UNL     1      26.089   3.287  49.832  1.00  0.00    -0.333 OA
HETATM    6  C5  UNL     1      26.632   2.859  51.095  1.00  0.00     0.269 C 
HETATM    7  C6  UNL     1      25.670   2.100  51.827  1.00  0.00    -0.080 C 
HETATM    8  C7  UNL     1      24.876   1.496  52.411  1.00  0.00    -0.103 C 
HETATM    9  C8  UNL     1      23.896   0.783  53.122  1.00  0.00     0.057 C 
HETATM   10  C9  UNL     1      22.745   1.353  52.707  1.00  0.00     0.072 C 
HETATM   11  C10 UNL     1      21.366   1.031  53.107  1.00  0.00    -0.019 C 
HETATM   12  C11 UNL     1      20.750   1.936  52.352  1.00  0.00     0.029 C 
HETATM   13  C12 UNL     1      19.829   3.078  51.409  1.00  0.00     0.287 C 
HETATM   14  O3  UNL     1      20.906   3.187  50.229  1.00  0.00    -0.326 OA
HETATM   15  C16 UNL     1      21.730   4.220  50.565  1.00  0.00     0.286 C 
HETATM   16  C18 UNL     1      23.142   3.913  50.144  1.00  0.00     0.236 C 
HETATM   17  O5  UNL     1      24.083   4.917  50.470  1.00  0.00    -0.347 OA
HETATM   18  C19 UNL     1      27.445   5.055  48.644  1.00  0.00     0.218 A 
HETATM   19  O6  UNL     1      28.341   4.255  48.377  1.00  0.00    -0.284 OA
HETATM   20  C20 UNL     1      27.432   6.462  48.278  1.00  0.00     0.024 A 
HETATM   21  C21 UNL     1      28.479   6.986  47.570  1.00  0.00     0.016 A 
HETATM   22  C22 UNL     1      28.426   8.334  47.228  1.00  0.00     0.001 A 
HETATM   23  C23 UNL     1      27.312   9.061  47.627  1.00  0.00     0.001 A 
HETATM   24  C24 UNL     1      26.277   8.496  48.339  1.00  0.00     0.009 A 
HETATM   25  C25 UNL     1      26.313   7.138  48.693  1.00  0.00    -0.034 A 
ENDROOT
BRANCH  13  26
HETATM   26  O2  UNL     1      19.164   2.166  50.794  1.00  0.00    -0.358 OA
BRANCH  26  27
HETATM   27  C13 UNL     1      18.000   2.090  50.193  1.00  0.00     0.171 C 
BRANCH  27  28
HETATM   28  C14 UNL     1      17.815   2.542  48.784  1.00  0.00     0.022 C 
HETATM   29  C15 UNL     1      17.480   4.030  48.713  1.00  0.00     0.007 C 
ENDBRANCH  27  28
ENDBRANCH  26  27
ENDBRANCH  13  26
BRANCH  15  30
HETATM   30  O4  UNL     1      21.333   5.358  49.708  1.00  0.00    -0.364 OA
HETATM   31  C17 UNL     1      21.137   4.790  48.466  1.00  0.00     0.204 C 
ENDBRANCH  15  30
TORSDOF 4
ENDMDL
MODEL 6
REMARK VINA RESULT:      -7.5      2.864      7.222
REMARK  4 active torsions:
REMARK  status: ('A' for Active; 'I' for Inactive)
REMARK    1  A    between atoms: C12_13  and  O2_14 
REMARK    2  A    between atoms: O2_14  and  C13_15 
REMARK    3  A    between atoms: C13_15  and  C14_16 
REMARK    4  A    between atoms: C16_19  and  O4_20 
ROOT
HETATM    1  C1  UNL     1      23.572   3.558  52.676  1.00  0.00     0.022 C 
HETATM    2  C2  UNL     1      23.956   2.216  52.027  1.00  0.00     0.075 A 
HETATM    3  C3  UNL     1      22.680   1.609  51.578  1.00  0.00     0.092 A 
HETATM    4  C4  UNL     1      22.384   0.444  52.092  1.00  0.00     0.150 A 
HETATM    5  O1  UNL     1      21.176   0.156  51.500  1.00  0.00    -0.333 OA
HETATM    6  C5  UNL     1      19.944   0.475  52.172  1.00  0.00     0.269 C 
HETATM    7  C6  UNL     1      19.004   1.043  51.261  1.00  0.00    -0.080 C 
HETATM    8  C7  UNL     1      18.258   1.512  50.512  1.00  0.00    -0.103 C 
HETATM    9  C8  UNL     1      17.369   2.101  49.597  1.00  0.00     0.057 C 
HETATM   10  C9  UNL     1      18.193   2.733  48.736  1.00  0.00     0.072 C 
HETATM   11  C10 UNL     1      17.842   3.537  47.554  1.00  0.00    -0.019 C 
HETATM   12  C11 UNL     1      19.080   3.850  47.183  1.00  0.00     0.029 C 
HETATM   13  C12 UNL     1      20.651   4.327  46.597  1.00  0.00     0.287 C 
HETATM   14  O3  UNL     1      21.416   3.049  47.187  1.00  0.00    -0.326 OA
HETATM   15  C16 UNL     1      21.839   3.406  48.434  1.00  0.00     0.286 C 
HETATM   16  C18 UNL     1      21.746   2.230  49.368  1.00  0.00     0.236 C 
HETATM   17  O5  UNL     1      22.142   2.503  50.697  1.00  0.00    -0.347 OA
HETATM   18  C19 UNL     1      23.112  -0.369  53.036  1.00  0.00     0.218 A 
HETATM   19  O6  UNL     1      22.616  -1.444  53.369  1.00  0.00    -0.284 OA
HETATM   20  C20 UNL     1      24.378   0.162  53.513  1.00  0.00     0.024 A 
HETATM   21  C21 UNL     1      25.123  -0.562  54.403  1.00  0.00     0.016 A 
HETATM   22  C22 UNL     1      26.335  -0.027  54.828  1.00  0.00     0.001 A 
HETATM   23  C23 UNL     1      26.712   1.209  54.320  1.00  0.00     0.001 A 
HETATM   24  C24 UNL     1      25.934   1.908  53.424  1.00  0.00     0.009 A 
HETATM   25  C25 UNL     1      24.708   1.384  52.983  1.00  0.00    -0.034 A 
ENDROOT
BRANCH  13  26
HETATM   26  O2  UNL     1      20.489   3.769  45.450  1.00  0.00    -0.358 OA
BRANCH  26  27
HETATM   27  C13 UNL     1      20.867   4.017  44.218  1.00  0.00     0.171 C 
BRANCH  27  28
HETATM   28  C14 UNL     1      20.012   3.657  43.050  1.00  0.00     0.022 C 
HETATM   29  C15 UNL     1      18.659   3.106  43.496  1.00  0.00     0.007 C 
ENDBRANCH  27  28
ENDBRANCH  26  27
ENDBRANCH  13  26
BRANCH  15  30
HETATM   30  O4  UNL     1      23.290   3.666  48.316  1.00  0.00    -0.364 OA
HETATM   31  C17 UNL     1      23.441   4.950  48.800  1.00  0.00     0.204 C 
ENDBRANCH  15  30
TORSDOF 4
ENDMDL
MODEL 7
REMARK VINA RESULT:      -7.4      1.731      8.824
REMARK  4 active torsions:
REMARK  status: ('A' for Active; 'I' for Inactive)
REMARK    1  A    between atoms: C12_13  and  O2_14 
REMARK    2  A    between atoms: O2_14  and  C13_15 
REMARK    3  A    between atoms: C13_15  and  C14_16 
REMARK    4  A    between atoms: C16_19  and  O4_20 
ROOT
HETATM    1  C1  UNL     1      24.539   3.206  53.483  1.00  0.00     0.022 C 
HETATM    2  C2  UNL     1      24.137   2.422  52.220  1.00  0.00     0.075 A 
HETATM    3  C3  UNL     1      23.438   3.399  51.350  1.00  0.00     0.092 A 
HETATM    4  C4  UNL     1      22.201   3.111  51.038  1.00  0.00     0.150 A 
HETATM    5  O1  UNL     1      21.837   4.177  50.250  1.00  0.00    -0.333 OA
HETATM    6  C5  UNL     1      21.156   5.307  50.825  1.00  0.00     0.269 C 
HETATM    7  C6  UNL     1      21.687   6.529  50.318  1.00  0.00    -0.080 C 
HETATM    8  C7  UNL     1      22.137   7.512  49.905  1.00  0.00    -0.103 C 
HETATM    9  C8  UNL     1      22.706   8.699  49.414  1.00  0.00     0.057 C 
HETATM   10  C9  UNL     1      23.992   8.352  49.198  1.00  0.00     0.072 C 
HETATM   11  C10 UNL     1      25.092   9.185  48.685  1.00  0.00    -0.019 C 
HETATM   12  C11 UNL     1      26.044   8.257  48.723  1.00  0.00     0.029 C 
HETATM   13  C12 UNL     1      27.375   7.130  48.725  1.00  0.00     0.287 C 
HETATM   14  O3  UNL     1      26.459   5.830  48.537  1.00  0.00    -0.326 OA
HETATM   15  C16 UNL     1      26.164   5.392  49.794  1.00  0.00     0.286 C 
HETATM   16  C18 UNL     1      24.762   4.848  49.836  1.00  0.00     0.236 C 
HETATM   17  O5  UNL     1      24.349   4.387  51.107  1.00  0.00    -0.347 OA
HETATM   18  C19 UNL     1      21.391   1.974  51.401  1.00  0.00     0.218 A 
HETATM   19  O6  UNL     1      20.238   1.931  50.975  1.00  0.00    -0.284 OA
HETATM   20  C20 UNL     1      22.016   0.972  52.248  1.00  0.00     0.024 A 
HETATM   21  C21 UNL     1      21.305  -0.136  52.623  1.00  0.00     0.016 A 
HETATM   22  C22 UNL     1      21.941  -1.079  53.425  1.00  0.00     0.001 A 
HETATM   23  C23 UNL     1      23.258  -0.836  53.793  1.00  0.00     0.001 A 
HETATM   24  C24 UNL     1      23.940   0.292  53.394  1.00  0.00     0.009 A 
HETATM   25  C25 UNL     1      23.316   1.254  52.585  1.00  0.00    -0.034 A 
ENDROOT
BRANCH  13  26
HETATM   26  O2  UNL     1      27.581   7.237  47.461  1.00  0.00    -0.358 OA
BRANCH  26  27
HETATM   27  C13 UNL     1      28.589   7.581  46.694  1.00  0.00     0.171 C 
BRANCH  27  28
HETATM   28  C14 UNL     1      28.477   8.691  45.705  1.00  0.00     0.022 C 
HETATM   29  C15 UNL     1      27.121   8.681  45.004  1.00  0.00     0.007 C 
ENDBRANCH  27  28
ENDBRANCH  26  27
ENDBRANCH  13  26
BRANCH  15  30
HETATM   30  O4  UNL     1      27.022   4.209  50.029  1.00  0.00    -0.364 OA
HETATM   31  C17 UNL     1      26.496   3.244  49.195  1.00  0.00     0.204 C 
ENDBRANCH  15  30
TORSDOF 4
ENDMDL
MODEL 8
REMARK VINA RESULT:      -7.3      3.473      7.000
REMARK  4 active torsions:
REMARK  status: ('A' for Active; 'I' for Inactive)
REMARK    1  A    between atoms: C12_13  and  O2_14 
REMARK    2  A    between atoms: O2_14  and  C13_15 
REMARK    3  A    between atoms: C13_15  and  C14_16 
REMARK    4  A    between atoms: C16_19  and  O4_20 
ROOT
HETATM    1  C1  UNL     1      21.565   0.262  50.714  1.00  0.00     0.022 C 
HETATM    2  C2  UNL     1      21.556   1.141  51.978  1.00  0.00     0.075 A 
HETATM    3  C3  UNL     1      20.988   2.444  51.554  1.00  0.00     0.092 A 
HETATM    4  C4  UNL     1      21.758   3.489  51.718  1.00  0.00     0.150 A 
HETATM    5  O1  UNL     1      20.974   4.513  51.241  1.00  0.00    -0.333 OA
HETATM    6  C5  UNL     1      21.104   4.954  49.877  1.00  0.00     0.269 C 
HETATM    7  C6  UNL     1      19.822   5.175  49.293  1.00  0.00    -0.080 C 
HETATM    8  C7  UNL     1      18.774   5.339  48.831  1.00  0.00    -0.103 C 
HETATM    9  C8  UNL     1      17.496   5.513  48.274  1.00  0.00     0.057 C 
HETATM   10  C9  UNL     1      16.752   4.597  48.927  1.00  0.00     0.072 C 
HETATM   11  C10 UNL     1      15.319   4.298  48.771  1.00  0.00    -0.019 C 
HETATM   12  C11 UNL     1      15.244   3.330  49.679  1.00  0.00     0.029 C 
HETATM   13  C12 UNL     1      15.017   2.049  50.840  1.00  0.00     0.287 C 
HETATM   14  O3  UNL     1      16.204   2.522  51.806  1.00  0.00    -0.326 OA
HETATM   15  C16 UNL     1      17.320   1.861  51.383  1.00  0.00     0.286 C 
HETATM   16  C18 UNL     1      18.528   2.748  51.517  1.00  0.00     0.236 C 
HETATM   17  O5  UNL     1      19.738   2.161  51.082  1.00  0.00    -0.347 OA
HETATM   18  C19 UNL     1      23.091   3.586  52.260  1.00  0.00     0.218 A 
HETATM   19  O6  UNL     1      23.611   4.700  52.308  1.00  0.00    -0.284 OA
HETATM   20  C20 UNL     1      23.706   2.346  52.703  1.00  0.00     0.024 A 
HETATM   21  C21 UNL     1      24.967   2.369  53.235  1.00  0.00     0.016 A 
HETATM   22  C22 UNL     1      25.519   1.164  53.658  1.00  0.00     0.001 A 
HETATM   23  C23 UNL     1      24.754   0.014  53.515  1.00  0.00     0.001 A 
HETATM   24  C24 UNL     1      23.487   0.032  52.975  1.00  0.00     0.009 A 
HETATM   25  C25 UNL     1      22.914   1.238  52.542  1.00  0.00    -0.034 A 
ENDROOT
BRANCH  13  26
HETATM   26  O2  UNL     1      14.136   2.697  51.514  1.00  0.00    -0.358 OA
BRANCH  26  27
HETATM   27  C13 UNL     1      13.865   2.880  52.785  1.00  0.00     0.171 C 
BRANCH  27  28
HETATM   28  C14 UNL     1      13.568   4.234  53.335  1.00  0.00     0.022 C 
HETATM   29  C15 UNL     1      12.269   4.239  54.138  1.00  0.00     0.007 C 
ENDBRANCH  27  28
ENDBRANCH  26  27
ENDBRANCH  13  26
BRANCH  15  30
HETATM   30  O4  UNL     1      17.551   0.778  52.364  1.00  0.00    -0.364 OA
HETATM   31  C17 UNL     1      17.654  -0.360  51.589  1.00  0.00     0.204 C 
ENDBRANCH  15  30
TORSDOF 4
ENDMDL
MODEL 9
REMARK VINA RESULT:      -7.1      2.123      4.309
REMARK  4 active torsions:
REMARK  status: ('A' for Active; 'I' for Inactive)
REMARK    1  A    between atoms: C12_13  and  O2_14 
REMARK    2  A    between atoms: O2_14  and  C13_15 
REMARK    3  A    between atoms: C13_15  and  C14_16 
REMARK    4  A    between atoms: C16_19  and  O4_20 
ROOT
HETATM    1  C1  UNL     1      26.772   5.564  48.578  1.00  0.00     0.022 C 
HETATM    2  C2  UNL     1      25.977   6.505  49.502  1.00  0.00     0.075 A 
HETATM    3  C3  UNL     1      24.548   6.208  49.240  1.00  0.00     0.092 A 
HETATM    4  C4  UNL     1      23.821   7.207  48.808  1.00  0.00     0.150 A 
HETATM    5  O1  UNL     1      22.582   6.630  48.660  1.00  0.00    -0.333 OA
HETATM    6  C5  UNL     1      22.169   6.116  47.380  1.00  0.00     0.269 C 
HETATM    7  C6  UNL     1      21.519   4.855  47.529  1.00  0.00    -0.080 C 
HETATM    8  C7  UNL     1      21.005   3.828  47.666  1.00  0.00    -0.103 C 
HETATM    9  C8  UNL     1      20.401   2.571  47.842  1.00  0.00     0.057 C 
HETATM   10  C9  UNL     1      21.040   2.077  48.923  1.00  0.00     0.072 C 
HETATM   11  C10 UNL     1      20.843   0.780  49.590  1.00  0.00    -0.019 C 
HETATM   12  C11 UNL     1      21.759   0.934  50.542  1.00  0.00     0.029 C 
HETATM   13  C12 UNL     1      22.926   1.017  51.835  1.00  0.00     0.287 C 
HETATM   14  O3  UNL     1      22.901   2.614  51.946  1.00  0.00    -0.326 OA
HETATM   15  C16 UNL     1      23.881   3.066  51.112  1.00  0.00     0.286 C 
HETATM   16  C18 UNL     1      23.447   4.346  50.451  1.00  0.00     0.236 C 
HETATM   17  O5  UNL     1      24.388   4.886  49.545  1.00  0.00    -0.347 OA
HETATM   18  C19 UNL     1      24.187   8.578  48.548  1.00  0.00     0.218 A 
HETATM   19  O6  UNL     1      23.309   9.337  48.141  1.00  0.00    -0.284 OA
HETATM   20  C20 UNL     1      25.573   8.941  48.791  1.00  0.00     0.024 A 
HETATM   21  C21 UNL     1      25.984  10.228  48.572  1.00  0.00     0.016 A 
HETATM   22  C22 UNL     1      27.315  10.540  48.827  1.00  0.00     0.001 A 
HETATM   23  C23 UNL     1      28.143   9.526  49.289  1.00  0.00     0.001 A 
HETATM   24  C24 UNL     1      27.691   8.242  49.498  1.00  0.00     0.009 A 
HETATM   25  C25 UNL     1      26.351   7.907  49.247  1.00  0.00    -0.034 A 
ENDROOT
BRANCH  13  26
HETATM   26  O2  UNL     1      22.043   0.882  52.759  1.00  0.00    -0.358 OA
BRANCH  26  27
HETATM   27  C13 UNL     1      21.939   0.196  53.873  1.00  0.00     0.171 C 
BRANCH  27  28
HETATM   28  C14 UNL     1      20.951  -0.911  54.020  1.00  0.00     0.022 C 
HETATM   29  C15 UNL     1      19.633  -0.582  53.322  1.00  0.00     0.007 C 
ENDBRANCH  27  28
ENDBRANCH  26  27
ENDBRANCH  13  26
BRANCH  15  30
HETATM   30  O4  UNL     1      25.008   3.467  51.982  1.00  0.00    -0.364 OA
HETATM   31  C17 UNL     1      26.077   2.736  51.504  1.00  0.00     0.204 C 
ENDBRANCH  15  30
TORSDOF 4
ENDMDL
