MODEL 1
REMARK VINA RESULT:      -7.9      0.000      0.000
REMARK  10 active torsions:
REMARK  status: ('A' for Active; 'I' for Inactive)
REMARK    1  A    between atoms: C2_2  and  S1_3 
REMARK    2  A    between atoms: S1_3  and  C3_4 
REMARK    3  A    between atoms: C3_4  and  C4_5 
REMARK    4  A    between atoms: C4_5  and  C15_18 
REMARK    5  A    between atoms: C5_6  and  C6_7 
REMARK    6  A    between atoms: C6_7  and  C7_8 
REMARK    7  A    between atoms: C7_8  and  C8_9 
REMARK    8  A    between atoms: C8_9  and  C9_10 
REMARK    9  A    between atoms: C9_10  and  N1_11 
REMARK   10  A    between atoms: C19_23  and  N3_24 
ROOT
HETATM    1  C4  UNL     1      25.248   0.512  52.691  1.00  0.00    -0.041 C 
HETATM    2  C5  UNL     1      25.527   1.612  52.064  1.00  0.00    -0.018 C 
ENDROOT
BRANCH   1   3
HETATM    3  C3  UNL     1      26.399  -0.378  52.984  1.00  0.00     0.112 C 
BRANCH   3   4
HETATM    4  S1  UNL     1      27.210   0.235  54.515  1.00  0.00    -0.165 SA
BRANCH   4   5
HETATM    5  C2  UNL     1      28.956   0.615  54.180  1.00  0.00     0.069 C 
HETATM    6  C1  UNL     1      29.662  -0.638  53.716  1.00  0.00     0.016 C 
ENDBRANCH   4   5
ENDBRANCH   3   4
ENDBRANCH   1   3
BRANCH   1   7
HETATM    7  C15 UNL     1      23.962   0.031  53.148  1.00  0.00    -0.014 A 
HETATM    8  C16 UNL     1      23.794  -0.741  54.236  1.00  0.00     0.068 A 
HETATM    9  C17 UNL     1      22.400  -1.066  54.447  1.00  0.00     0.186 A 
HETATM   10  O1  UNL     1      21.913  -1.763  55.366  1.00  0.00    -0.287 OA
HETATM   11  C18 UNL     1      21.658  -0.436  53.392  1.00  0.00     0.051 A 
HETATM   12  C19 UNL     1      20.325  -0.374  53.049  1.00  0.00     0.041 A 
HETATM   13  C23 UNL     1      22.608   0.204  52.640  1.00  0.00    -0.009 A 
HETATM   14  C20 UNL     1      19.839   0.314  51.960  1.00  0.00     0.030 A 
HETATM   15  C21 UNL     1      20.793   0.958  51.205  1.00  0.00     0.003 A 
HETATM   16  C22 UNL     1      22.119   0.882  51.564  1.00  0.00     0.013 A 
BRANCH  12  17
HETATM   17  N3  UNL     1      19.419  -1.067  53.883  1.00  0.00    -0.398 N 
HETATM   18  H29 UNL     1      18.700  -1.558  54.431  1.00  0.00     0.156 HD
HETATM   19  H30 UNL     1      19.796  -1.442  54.789  1.00  0.00     0.156 HD
ENDBRANCH  12  17
ENDBRANCH   1   7
BRANCH   2  20
HETATM   20  C6  UNL     1      26.769   2.211  51.553  1.00  0.00     0.028 C 
BRANCH  20  21
HETATM   21  C7  UNL     1      26.582   2.929  50.232  1.00  0.00     0.006 C 
BRANCH  21  22
HETATM   22  C8  UNL     1      25.155   3.145  49.831  1.00  0.00     0.030 C 
BRANCH  22  23
HETATM   23  C9  UNL     1      24.859   4.597  49.716  1.00  0.00     0.272 C 
BRANCH  23  24
HETATM   24  N1  UNL     1      23.467   4.916  50.019  1.00  0.00     0.091 N 
HETATM   25  C10 UNL     1      23.108   4.461  51.348  1.00  0.00     0.291 C 
HETATM   26  C11 UNL     1      21.697   4.826  51.659  1.00  0.00     0.146 C 
HETATM   27  N2  UNL     1      21.180   5.965  50.979  1.00  0.00    -0.413 N 
HETATM   28  C12 UNL     1      20.123   5.692  50.058  1.00  0.00     0.143 C 
HETATM   29  C13 UNL     1      22.139   6.934  50.563  1.00  0.00     0.146 C 
HETATM   30  C14 UNL     1      23.420   6.369  50.058  1.00  0.00     0.291 C 
ENDBRANCH  23  24
ENDBRANCH  22  23
ENDBRANCH  21  22
ENDBRANCH  20  21
ENDBRANCH   2  20
TORSDOF 10
ENDMDL
MODEL 2
REMARK VINA RESULT:      -7.8      1.741      2.638
REMARK  10 active torsions:
REMARK  status: ('A' for Active; 'I' for Inactive)
REMARK    1  A    between atoms: C2_2  and  S1_3 
REMARK    2  A    between atoms: S1_3  and  C3_4 
REMARK    3  A    between atoms: C3_4  and  C4_5 
REMARK    4  A    between atoms: C4_5  and  C15_18 
REMARK    5  A    between atoms: C5_6  and  C6_7 
REMARK    6  A    between atoms: C6_7  and  C7_8 
REMARK    7  A    between atoms: C7_8  and  C8_9 
REMARK    8  A    between atoms: C8_9  and  C9_10 
REMARK    9  A    between atoms: C9_10  and  N1_11 
REMARK   10  A    between atoms: C19_23  and  N3_24 
ROOT
HETATM    1  C4  UNL     1      25.421   0.730  52.459  1.00  0.00    -0.041 C 
HETATM    2  C5  UNL     1      25.586   1.859  51.841  1.00  0.00    -0.018 C 
ENDROOT
BRANCH   1   3
HETATM    3  C3  UNL     1      26.632  -0.115  52.602  1.00  0.00     0.112 C 
BRANCH   3   4
HETATM    4  S1  UNL     1      27.536   0.444  54.101  1.00  0.00    -0.165 SA
BRANCH   4   5
HETATM    5  C2  UNL     1      29.321   0.497  53.762  1.00  0.00     0.069 C 
HETATM    6  C1  UNL     1      29.816  -0.898  53.457  1.00  0.00     0.016 C 
ENDBRANCH   4   5
ENDBRANCH   3   4
ENDBRANCH   1   3
BRANCH   1   7
HETATM    7  C15 UNL     1      24.211   0.181  53.032  1.00  0.00    -0.014 A 
HETATM    8  C16 UNL     1      24.186  -0.582  54.139  1.00  0.00     0.068 A 
HETATM    9  C17 UNL     1      22.838  -0.987  54.474  1.00  0.00     0.186 A 
HETATM   10  O1  UNL     1      22.476  -1.697  55.440  1.00  0.00    -0.287 OA
HETATM   11  C18 UNL     1      21.969  -0.420  53.482  1.00  0.00     0.051 A 
HETATM   12  C19 UNL     1      20.611  -0.443  53.256  1.00  0.00     0.041 A 
HETATM   13  C23 UNL     1      22.810   0.264  52.642  1.00  0.00    -0.009 A 
HETATM   14  C20 UNL     1      19.991   0.196  52.207  1.00  0.00     0.030 A 
HETATM   15  C21 UNL     1      20.834   0.884  51.364  1.00  0.00     0.003 A 
HETATM   16  C22 UNL     1      22.189   0.894  51.607  1.00  0.00     0.013 A 
BRANCH  12  17
HETATM   17  N3  UNL     1      19.825  -1.177  54.174  1.00  0.00    -0.398 N 
HETATM   18  H29 UNL     1      19.198  -1.723  54.779  1.00  0.00     0.156 HD
HETATM   19  H30 UNL     1      20.196  -1.271  55.152  1.00  0.00     0.156 HD
ENDBRANCH  12  17
ENDBRANCH   1   7
BRANCH   2  20
HETATM   20  C6  UNL     1      26.741   2.527  51.223  1.00  0.00     0.028 C 
BRANCH  20  21
HETATM   21  C7  UNL     1      26.382   3.288  49.964  1.00  0.00     0.006 C 
BRANCH  21  22
HETATM   22  C8  UNL     1      24.913   3.456  49.728  1.00  0.00     0.030 C 
BRANCH  22  23
HETATM   23  C9  UNL     1      24.489   4.847  50.036  1.00  0.00     0.272 C 
BRANCH  23  24
HETATM   24  N1  UNL     1      25.404   5.849  49.498  1.00  0.00     0.091 N 
HETATM   25  C10 UNL     1      24.877   6.429  48.278  1.00  0.00     0.291 C 
HETATM   26  C11 UNL     1      25.802   7.477  47.759  1.00  0.00     0.146 C 
HETATM   27  N2  UNL     1      26.622   8.124  48.727  1.00  0.00    -0.413 N 
HETATM   28  C12 UNL     1      28.023   7.877  48.596  1.00  0.00     0.143 C 
HETATM   29  C13 UNL     1      26.113   8.154  50.058  1.00  0.00     0.146 C 
HETATM   30  C14 UNL     1      25.411   6.914  50.488  1.00  0.00     0.291 C 
ENDBRANCH  23  24
ENDBRANCH  22  23
ENDBRANCH  21  22
ENDBRANCH  20  21
ENDBRANCH   2  20
TORSDOF 10
ENDMDL
MODEL 3
REMARK VINA RESULT:      -7.7      2.877      5.503
REMARK  10 active torsions:
REMARK  status: ('A' for Active; 'I' for Inactive)
REMARK    1  A    between atoms: C2_2  and  S1_3 
REMARK    2  A    between atoms: S1_3  and  C3_4 
REMARK    3  A    between atoms: C3_4  and  C4_5 
REMARK    4  A    between atoms: C4_5  and  C15_18 
REMARK    5  A    between atoms: C5_6  and  C6_7 
REMARK    6  A    between atoms: C6_7  and  C7_8 
REMARK    7  A    between atoms: C7_8  and  C8_9 
REMARK    8  A    between atoms: C8_9  and  C9_10 
REMARK    9  A    between atoms: C9_10  and  N1_11 
REMARK   10  A    between atoms: C19_23  and  N3_24 
ROOT
HETATM    1  C4  UNL     1      24.174   1.285  52.404  1.00  0.00    -0.041 C 
HETATM    2  C5  UNL     1      23.670   1.552  51.239  1.00  0.00    -0.018 C 
ENDROOT
BRANCH   1   3
HETATM    3  C3  UNL     1      23.198   0.985  53.481  1.00  0.00     0.112 C 
BRANCH   3   4
HETATM    4  S1  UNL     1      22.874  -0.823  53.461  1.00  0.00    -0.165 SA
BRANCH   4   5
HETATM    5  C2  UNL     1      21.173  -1.151  54.014  1.00  0.00     0.069 C 
HETATM    6  C1  UNL     1      20.383   0.138  53.999  1.00  0.00     0.016 C 
ENDBRANCH   4   5
ENDBRANCH   3   4
ENDBRANCH   1   3
BRANCH   1   7
HETATM    7  C15 UNL     1      25.566   1.237  52.798  1.00  0.00    -0.014 A 
HETATM    8  C16 UNL     1      26.258   2.305  53.234  1.00  0.00     0.068 A 
HETATM    9  C17 UNL     1      27.625   1.957  53.555  1.00  0.00     0.186 A 
HETATM   10  O1  UNL     1      28.522   2.718  53.982  1.00  0.00    -0.287 OA
HETATM   11  C18 UNL     1      27.775   0.554  53.289  1.00  0.00     0.051 A 
HETATM   12  C19 UNL     1      28.812  -0.346  53.391  1.00  0.00     0.041 A 
HETATM   13  C23 UNL     1      26.541   0.156  52.842  1.00  0.00    -0.009 A 
HETATM   14  C20 UNL     1      28.713  -1.680  53.069  1.00  0.00     0.030 A 
HETATM   15  C21 UNL     1      27.474  -2.080  52.621  1.00  0.00     0.003 A 
HETATM   16  C22 UNL     1      26.451  -1.165  52.526  1.00  0.00     0.013 A 
BRANCH  12  17
HETATM   17  N3  UNL     1      30.048   0.157  53.859  1.00  0.00    -0.398 N 
HETATM   18  H29 UNL     1      30.928   0.597  54.162  1.00  0.00     0.156 HD
HETATM   19  H30 UNL     1      30.643  -0.494  54.429  1.00  0.00     0.156 HD
ENDBRANCH  12  17
ENDBRANCH   1   7
BRANCH   2  20
HETATM   20  C6  UNL     1      22.299   1.631  50.713  1.00  0.00     0.028 C 
BRANCH  20  21
HETATM   21  C7  UNL     1      22.249   1.745  49.204  1.00  0.00     0.006 C 
BRANCH  21  22
HETATM   22  C8  UNL     1      22.919   2.961  48.643  1.00  0.00     0.030 C 
BRANCH  22  23
HETATM   23  C9  UNL     1      22.192   4.193  49.049  1.00  0.00     0.272 C 
BRANCH  23  24
HETATM   24  N1  UNL     1      23.086   5.253  49.505  1.00  0.00     0.091 N 
HETATM   25  C10 UNL     1      23.106   5.326  50.953  1.00  0.00     0.291 C 
HETATM   26  C11 UNL     1      24.051   6.387  51.406  1.00  0.00     0.146 C 
HETATM   27  N2  UNL     1      25.123   6.691  50.521  1.00  0.00    -0.413 N 
HETATM   28  C12 UNL     1      25.090   8.004  49.957  1.00  0.00     0.143 C 
HETATM   29  C13 UNL     1      25.527   5.643  49.644  1.00  0.00     0.146 C 
HETATM   30  C14 UNL     1      24.413   4.821  49.098  1.00  0.00     0.291 C 
ENDBRANCH  23  24
ENDBRANCH  22  23
ENDBRANCH  21  22
ENDBRANCH  20  21
ENDBRANCH   2  20
TORSDOF 10
ENDMDL
MODEL 4
REMARK VINA RESULT:      -7.6      3.317      7.112
REMARK  10 active torsions:
REMARK  status: ('A' for Active; 'I' for Inactive)
REMARK    1  A    between atoms: C2_2  and  S1_3 
REMARK    2  A    between atoms: S1_3  and  C3_4 
REMARK    3  A    between atoms: C3_4  and  C4_5 
REMARK    4  A    between atoms: C4_5  and  C15_18 
REMARK    5  A    between atoms: C5_6  and  C6_7 
REMARK    6  A    between atoms: C6_7  and  C7_8 
REMARK    7  A    between atoms: C7_8  and  C8_9 
REMARK    8  A    between atoms: C8_9  and  C9_10 
REMARK    9  A    between atoms: C9_10  and  N1_11 
REMARK   10  A    between atoms: C19_23  and  N3_24 
ROOT
HETATM    1  C4  UNL     1      24.395   0.629  53.073  1.00  0.00    -0.041 C 
HETATM    2  C5  UNL     1      23.681  -0.450  53.154  1.00  0.00    -0.018 C 
ENDROOT
BRANCH   1   3
HETATM    3  C3  UNL     1      23.660   1.871  52.727  1.00  0.00     0.112 C 
BRANCH   3   4
HETATM    4  S1  UNL     1      23.815   2.132  50.916  1.00  0.00    -0.165 SA
BRANCH   4   5
HETATM    5  C2  UNL     1      24.920   3.538  50.587  1.00  0.00     0.069 C 
HETATM    6  C1  UNL     1      26.234   3.027  50.042  1.00  0.00     0.016 C 
ENDBRANCH   4   5
ENDBRANCH   3   4
ENDBRANCH   1   3
BRANCH   1   7
HETATM    7  C15 UNL     1      25.820   0.789  53.277  1.00  0.00    -0.014 A 
HETATM    8  C16 UNL     1      26.402   1.956  53.605  1.00  0.00     0.068 A 
HETATM    9  C17 UNL     1      27.836   1.813  53.742  1.00  0.00     0.186 A 
HETATM   10  O1  UNL     1      28.663   2.705  54.038  1.00  0.00    -0.287 OA
HETATM   11  C18 UNL     1      28.149   0.438  53.472  1.00  0.00     0.051 A 
HETATM   12  C19 UNL     1      29.309  -0.303  53.443  1.00  0.00     0.041 A 
HETATM   13  C23 UNL     1      26.937  -0.142  53.200  1.00  0.00    -0.009 A 
HETATM   14  C20 UNL     1      29.359  -1.647  53.149  1.00  0.00     0.030 A 
HETATM   15  C21 UNL     1      28.143  -2.230  52.877  1.00  0.00     0.003 A 
HETATM   16  C22 UNL     1      26.996  -1.471  52.911  1.00  0.00     0.013 A 
BRANCH  12  17
HETATM   17  N3  UNL     1      30.510   0.381  53.735  1.00  0.00    -0.398 N 
HETATM   18  H29 UNL     1      31.399   0.884  53.864  1.00  0.00     0.156 HD
HETATM   19  H30 UNL     1      30.724   0.559  54.748  1.00  0.00     0.156 HD
ENDBRANCH  12  17
ENDBRANCH   1   7
BRANCH   2  20
HETATM   20  C6  UNL     1      22.252  -0.745  52.976  1.00  0.00     0.028 C 
BRANCH  20  21
HETATM   21  C7  UNL     1      21.423  -0.432  54.205  1.00  0.00     0.006 C 
BRANCH  21  22
HETATM   22  C8  UNL     1      20.121   0.253  53.927  1.00  0.00     0.030 C 
BRANCH  22  23
HETATM   23  C9  UNL     1      19.618  -0.109  52.576  1.00  0.00     0.272 C 
BRANCH  23  24
HETATM   24  N1  UNL     1      18.163  -0.046  52.478  1.00  0.00     0.091 N 
HETATM   25  C10 UNL     1      17.746   0.212  51.114  1.00  0.00     0.291 C 
HETATM   26  C11 UNL     1      16.258   0.236  51.020  1.00  0.00     0.146 C 
HETATM   27  N2  UNL     1      15.557  -0.525  51.998  1.00  0.00    -0.413 N 
HETATM   28  C12 UNL     1      14.769   0.241  52.911  1.00  0.00     0.143 C 
HETATM   29  C13 UNL     1      16.262  -1.631  52.554  1.00  0.00     0.146 C 
HETATM   30  C14 UNL     1      17.711  -1.391  52.797  1.00  0.00     0.291 C 
ENDBRANCH  23  24
ENDBRANCH  22  23
ENDBRANCH  21  22
ENDBRANCH  20  21
ENDBRANCH   2  20
TORSDOF 10
ENDMDL
MODEL 5
REMARK VINA RESULT:      -7.6      2.464      4.946
REMARK  10 active torsions:
REMARK  status: ('A' for Active; 'I' for Inactive)
REMARK    1  A    between atoms: C2_2  and  S1_3 
REMARK    2  A    between atoms: S1_3  and  C3_4 
REMARK    3  A    between atoms: C3_4  and  C4_5 
REMARK    4  A    between atoms: C4_5  and  C15_18 
REMARK    5  A    between atoms: C5_6  and  C6_7 
REMARK    6  A    between atoms: C6_7  and  C7_8 
REMARK    7  A    between atoms: C7_8  and  C8_9 
REMARK    8  A    between atoms: C8_9  and  C9_10 
REMARK    9  A    between atoms: C9_10  and  N1_11 
REMARK   10  A    between atoms: C19_23  and  N3_24 
ROOT
HETATM    1  C4  UNL     1      21.374   0.715  51.320  1.00  0.00    -0.041 C 
HETATM    2  C5  UNL     1      21.816   0.897  50.115  1.00  0.00    -0.018 C 
ENDROOT
BRANCH   1   3
HETATM    3  C3  UNL     1      19.997   1.198  51.588  1.00  0.00     0.112 C 
BRANCH   3   4
HETATM    4  S1  UNL     1      20.120   2.695  52.646  1.00  0.00    -0.165 SA
BRANCH   4   5
HETATM    5  C2  UNL     1      21.007   4.009  51.756  1.00  0.00     0.069 C 
HETATM    6  C1  UNL     1      22.392   4.165  52.341  1.00  0.00     0.016 C 
ENDBRANCH   4   5
ENDBRANCH   3   4
ENDBRANCH   1   3
BRANCH   1   7
HETATM    7  C15 UNL     1      22.044   0.099  52.446  1.00  0.00    -0.014 A 
HETATM    8  C16 UNL     1      21.431  -0.703  53.334  1.00  0.00     0.068 A 
HETATM    9  C17 UNL     1      22.351  -1.171  54.349  1.00  0.00     0.186 A 
HETATM   10  O1  UNL     1      22.096  -1.928  55.314  1.00  0.00    -0.287 OA
HETATM   11  C18 UNL     1      23.634  -0.601  54.049  1.00  0.00     0.051 A 
HETATM   12  C19 UNL     1      24.882  -0.666  54.627  1.00  0.00     0.041 A 
HETATM   13  C23 UNL     1      23.421   0.145  52.919  1.00  0.00    -0.009 A 
HETATM   14  C20 UNL     1      25.993  -0.014  54.143  1.00  0.00     0.030 A 
HETATM   15  C21 UNL     1      25.780   0.735  53.008  1.00  0.00     0.003 A 
HETATM   16  C22 UNL     1      24.525   0.787  52.446  1.00  0.00     0.013 A 
BRANCH  12  17
HETATM   17  N3  UNL     1      25.004  -1.459  55.791  1.00  0.00    -0.398 N 
HETATM   18  H29 UNL     1      25.014  -2.012  56.659  1.00  0.00     0.156 HD
HETATM   19  H30 UNL     1      25.908  -1.977  55.923  1.00  0.00     0.156 HD
ENDBRANCH  12  17
ENDBRANCH   1   7
BRANCH   2  20
HETATM   20  C6  UNL     1      21.248   1.497  48.898  1.00  0.00     0.028 C 
BRANCH  20  21
HETATM   21  C7  UNL     1      22.277   1.719  47.810  1.00  0.00     0.006 C 
BRANCH  21  22
HETATM   22  C8  UNL     1      22.430   3.142  47.370  1.00  0.00     0.030 C 
BRANCH  22  23
HETATM   23  C9  UNL     1      22.629   4.033  48.543  1.00  0.00     0.272 C 
BRANCH  23  24
HETATM   24  N1  UNL     1      24.024   4.416  48.733  1.00  0.00     0.091 N 
HETATM   25  C10 UNL     1      24.125   5.662  49.467  1.00  0.00     0.291 C 
HETATM   26  C11 UNL     1      25.554   6.022  49.688  1.00  0.00     0.146 C 
HETATM   27  N2  UNL     1      26.476   4.938  49.718  1.00  0.00    -0.413 N 
HETATM   28  C12 UNL     1      27.420   4.915  48.646  1.00  0.00     0.143 C 
HETATM   29  C13 UNL     1      25.944   3.675  50.111  1.00  0.00     0.146 C 
HETATM   30  C14 UNL     1      24.577   3.386  49.598  1.00  0.00     0.291 C 
ENDBRANCH  23  24
ENDBRANCH  22  23
ENDBRANCH  21  22
ENDBRANCH  20  21
ENDBRANCH   2  20
TORSDOF 10
ENDMDL
MODEL 6
REMARK VINA RESULT:      -7.5      1.657      2.097
REMARK  10 active torsions:
REMARK  status: ('A' for Active; 'I' for Inactive)
REMARK    1  A    between atoms: C2_2  and  S1_3 
REMARK    2  A    between atoms: S1_3  and  C3_4 
REMARK    3  A    between atoms: C3_4  and  C4_5 
REMARK    4  A    between atoms: C4_5  and  C15_18 
REMARK    5  A    between atoms: C5_6  and  C6_7 
REMARK    6  A    between atoms: C6_7  and  C7_8 
REMARK    7  A    between atoms: C7_8  and  C8_9 
REMARK    8  A    between atoms: C8_9  and  C9_10 
REMARK    9  A    between atoms: C9_10  and  N1_11 
REMARK   10  A    between atoms: C19_23  and  N3_24 
ROOT
HETATM    1  C4  UNL     1      25.010   0.855  52.836  1.00  0.00    -0.041 C 
HETATM    2  C5  UNL     1      25.298   1.353  51.673  1.00  0.00    -0.018 C 
ENDROOT
BRANCH   1   3
HETATM    3  C3  UNL     1      26.069   0.967  53.870  1.00  0.00     0.112 C 
BRANCH   3   4
HETATM    4  S1  UNL     1      27.239  -0.429  53.633  1.00  0.00    -0.165 SA
BRANCH   4   5
HETATM    5  C2  UNL     1      28.774  -0.110  54.554  1.00  0.00     0.069 C 
HETATM    6  C1  UNL     1      29.929  -0.007  53.585  1.00  0.00     0.016 C 
ENDBRANCH   4   5
ENDBRANCH   3   4
ENDBRANCH   1   3
BRANCH   1   7
HETATM    7  C15 UNL     1      23.791   0.203  53.265  1.00  0.00    -0.014 A 
HETATM    8  C16 UNL     1      23.736  -0.703  54.257  1.00  0.00     0.068 A 
HETATM    9  C17 UNL     1      22.387  -1.183  54.463  1.00  0.00     0.186 A 
HETATM   10  O1  UNL     1      22.001  -2.026  55.304  1.00  0.00    -0.287 OA
HETATM   11  C18 UNL     1      21.551  -0.508  53.511  1.00  0.00     0.051 A 
HETATM   12  C19 UNL     1      20.207  -0.533  53.213  1.00  0.00     0.041 A 
HETATM   13  C23 UNL     1      22.409   0.304  52.817  1.00  0.00    -0.009 A 
HETATM   14  C20 UNL     1      19.619   0.227  52.227  1.00  0.00     0.030 A 
HETATM   15  C21 UNL     1      20.481   1.044  51.530  1.00  0.00     0.003 A 
HETATM   16  C22 UNL     1      21.820   1.054  51.844  1.00  0.00     0.013 A 
BRANCH  12  17
HETATM   17  N3  UNL     1      19.400  -1.404  53.981  1.00  0.00    -0.398 N 
HETATM   18  H29 UNL     1      18.882  -2.053  54.588  1.00  0.00     0.156 HD
HETATM   19  H30 UNL     1      18.392  -1.494  53.700  1.00  0.00     0.156 HD
ENDBRANCH  12  17
ENDBRANCH   1   7
BRANCH   2  20
HETATM   20  C6  UNL     1      26.477   2.032  51.115  1.00  0.00     0.028 C 
BRANCH  20  21
HETATM   21  C7  UNL     1      26.184   3.442  50.649  1.00  0.00     0.006 C 
BRANCH  21  22
HETATM   22  C8  UNL     1      25.231   3.538  49.498  1.00  0.00     0.030 C 
BRANCH  22  23
HETATM   23  C9  UNL     1      24.062   4.384  49.856  1.00  0.00     0.272 C 
BRANCH  23  24
HETATM   24  N1  UNL     1      22.835   3.967  49.185  1.00  0.00     0.091 N 
HETATM   25  C10 UNL     1      22.676   4.656  47.919  1.00  0.00     0.291 C 
HETATM   26  C11 UNL     1      21.439   4.193  47.227  1.00  0.00     0.146 C 
HETATM   27  N2  UNL     1      21.000   2.877  47.543  1.00  0.00    -0.413 N 
HETATM   28  C12 UNL     1      19.749   2.804  48.230  1.00  0.00     0.143 C 
HETATM   29  C13 UNL     1      22.008   1.968  47.979  1.00  0.00     0.146 C 
HETATM   30  C14 UNL     1      23.046   2.564  48.864  1.00  0.00     0.291 C 
ENDBRANCH  23  24
ENDBRANCH  22  23
ENDBRANCH  21  22
ENDBRANCH  20  21
ENDBRANCH   2  20
TORSDOF 10
ENDMDL
MODEL 7
REMARK VINA RESULT:      -7.4      2.588      5.291
REMARK  10 active torsions:
REMARK  status: ('A' for Active; 'I' for Inactive)
REMARK    1  A    between atoms: C2_2  and  S1_3 
REMARK    2  A    between atoms: S1_3  and  C3_4 
REMARK    3  A    between atoms: C3_4  and  C4_5 
REMARK    4  A    between atoms: C4_5  and  C15_18 
REMARK    5  A    between atoms: C5_6  and  C6_7 
REMARK    6  A    between atoms: C6_7  and  C7_8 
REMARK    7  A    between atoms: C7_8  and  C8_9 
REMARK    8  A    between atoms: C8_9  and  C9_10 
REMARK    9  A    between atoms: C9_10  and  N1_11 
REMARK   10  A    between atoms: C19_23  and  N3_24 
ROOT
HETATM    1  C4  UNL     1      22.242   0.563  52.308  1.00  0.00    -0.041 C 
HETATM    2  C5  UNL     1      22.089   0.676  51.025  1.00  0.00    -0.018 C 
ENDROOT
BRANCH   1   3
HETATM    3  C3  UNL     1      21.033   0.813  53.131  1.00  0.00     0.112 C 
BRANCH   3   4
HETATM    4  S1  UNL     1      20.219  -0.803  53.445  1.00  0.00    -0.165 SA
BRANCH   4   5
HETATM    5  C2  UNL     1      18.429  -0.659  53.161  1.00  0.00     0.069 C 
HETATM    6  C1  UNL     1      18.172  -0.403  51.693  1.00  0.00     0.016 C 
ENDBRANCH   4   5
ENDBRANCH   3   4
ENDBRANCH   1   3
BRANCH   1   7
HETATM    7  C15 UNL     1      23.437   0.222  53.050  1.00  0.00    -0.014 A 
HETATM    8  C16 UNL     1      23.446  -0.591  54.121  1.00  0.00     0.068 A 
HETATM    9  C17 UNL     1      24.782  -0.748  54.656  1.00  0.00     0.186 A 
HETATM   10  O1  UNL     1      25.128  -1.434  55.645  1.00  0.00    -0.287 OA
HETATM   11  C18 UNL     1      25.658   0.040  53.836  1.00  0.00     0.051 A 
HETATM   12  C19 UNL     1      27.011   0.296  53.834  1.00  0.00     0.041 A 
HETATM   13  C23 UNL     1      24.834   0.602  52.896  1.00  0.00    -0.009 A 
HETATM   14  C20 UNL     1      27.642   1.110  52.919  1.00  0.00     0.030 A 
HETATM   15  C21 UNL     1      26.815   1.673  51.974  1.00  0.00     0.003 A 
HETATM   16  C22 UNL     1      25.466   1.404  51.995  1.00  0.00     0.013 A 
BRANCH  12  17
HETATM   17  N3  UNL     1      27.780  -0.326  54.844  1.00  0.00    -0.398 N 
HETATM   18  H29 UNL     1      28.371  -0.702  55.597  1.00  0.00     0.156 HD
HETATM   19  H30 UNL     1      27.668  -1.364  54.957  1.00  0.00     0.156 HD
ENDBRANCH  12  17
ENDBRANCH   1   7
BRANCH   2  20
HETATM   20  C6  UNL     1      20.949   1.009  50.157  1.00  0.00     0.028 C 
BRANCH  20  21
HETATM   21  C7  UNL     1      21.323   1.090  48.692  1.00  0.00     0.006 C 
BRANCH  21  22
HETATM   22  C8  UNL     1      22.222   2.234  48.336  1.00  0.00     0.030 C 
BRANCH  22  23
HETATM   23  C9  UNL     1      21.654   3.517  48.827  1.00  0.00     0.272 C 
BRANCH  23  24
HETATM   24  N1  UNL     1      22.659   4.383  49.437  1.00  0.00     0.091 N 
HETATM   25  C10 UNL     1      22.550   4.365  50.883  1.00  0.00     0.291 C 
HETATM   26  C11 UNL     1      23.604   5.223  51.494  1.00  0.00     0.146 C 
HETATM   27  N2  UNL     1      24.793   5.395  50.730  1.00  0.00    -0.413 N 
HETATM   28  C12 UNL     1      25.027   6.726  50.266  1.00  0.00     0.143 C 
HETATM   29  C13 UNL     1      25.106   4.349  49.814  1.00  0.00     0.146 C 
HETATM   30  C14 UNL     1      23.932   3.760  49.114  1.00  0.00     0.291 C 
ENDBRANCH  23  24
ENDBRANCH  22  23
ENDBRANCH  21  22
ENDBRANCH  20  21
ENDBRANCH   2  20
TORSDOF 10
ENDMDL
MODEL 8
REMARK VINA RESULT:      -7.3      3.470      5.957
REMARK  10 active torsions:
REMARK  status: ('A' for Active; 'I' for Inactive)
REMARK    1  A    between atoms: C2_2  and  S1_3 
REMARK    2  A    between atoms: S1_3  and  C3_4 
REMARK    3  A    between atoms: C3_4  and  C4_5 
REMARK    4  A    between atoms: C4_5  and  C15_18 
REMARK    5  A    between atoms: C5_6  and  C6_7 
REMARK    6  A    between atoms: C6_7  and  C7_8 
REMARK    7  A    between atoms: C7_8  and  C8_9 
REMARK    8  A    between atoms: C8_9  and  C9_10 
REMARK    9  A    between atoms: C9_10  and  N1_11 
REMARK   10  A    between atoms: C19_23  and  N3_24 
ROOT
HETATM    1  C4  UNL     1      24.549   1.505  51.911  1.00  0.00    -0.041 C 
HETATM    2  C5  UNL     1      24.432   2.135  50.784  1.00  0.00    -0.018 C 
ENDROOT
BRANCH   1   3
HETATM    3  C3  UNL     1      23.409   1.638  52.852  1.00  0.00     0.112 C 
BRANCH   3   4
HETATM    4  S1  UNL     1      22.106   0.453  52.330  1.00  0.00    -0.165 SA
BRANCH   4   5
HETATM    5  C2  UNL     1      22.206  -1.057  53.338  1.00  0.00     0.069 C 
HETATM    6  C1  UNL     1      21.967  -0.709  54.789  1.00  0.00     0.016 C 
ENDBRANCH   4   5
ENDBRANCH   3   4
ENDBRANCH   1   3
BRANCH   1   7
HETATM    7  C15 UNL     1      25.646   0.684  52.379  1.00  0.00    -0.014 A 
HETATM    8  C16 UNL     1      25.642  -0.660  52.345  1.00  0.00     0.068 A 
HETATM    9  C17 UNL     1      26.871  -1.207  52.878  1.00  0.00     0.186 A 
HETATM   10  O1  UNL     1      27.180  -2.416  52.987  1.00  0.00    -0.287 OA
HETATM   11  C18 UNL     1      27.691  -0.096  53.271  1.00  0.00     0.051 A 
HETATM   12  C19 UNL     1      28.942   0.034  53.832  1.00  0.00     0.041 A 
HETATM   13  C23 UNL     1      26.940   1.009  52.964  1.00  0.00    -0.009 A 
HETATM   14  C20 UNL     1      29.535   1.241  54.126  1.00  0.00     0.030 A 
HETATM   15  C21 UNL     1      28.781   2.351  53.817  1.00  0.00     0.003 A 
HETATM   16  C22 UNL     1      27.534   2.198  53.258  1.00  0.00     0.013 A 
BRANCH  12  17
HETATM   17  N3  UNL     1      29.640  -1.162  54.116  1.00  0.00    -0.398 N 
HETATM   18  H29 UNL     1      30.129  -2.058  54.243  1.00  0.00     0.156 HD
HETATM   19  H30 UNL     1      30.082  -1.243  55.065  1.00  0.00     0.156 HD
ENDBRANCH  12  17
ENDBRANCH   1   7
BRANCH   2  20
HETATM   20  C6  UNL     1      23.389   2.987  50.193  1.00  0.00     0.028 C 
BRANCH  20  21
HETATM   21  C7  UNL     1      23.950   4.167  49.426  1.00  0.00     0.006 C 
BRANCH  21  22
HETATM   22  C8  UNL     1      25.234   4.715  49.968  1.00  0.00     0.030 C 
BRANCH  22  23
HETATM   23  C9  UNL     1      25.172   6.197  50.059  1.00  0.00     0.272 C 
BRANCH  23  24
HETATM   24  N1  UNL     1      26.335   6.849  49.466  1.00  0.00     0.091 N 
HETATM   25  C10 UNL     1      26.112   7.130  48.061  1.00  0.00     0.291 C 
HETATM   26  C11 UNL     1      27.291   7.829  47.476  1.00  0.00     0.146 C 
HETATM   27  N2  UNL     1      28.080   8.592  48.383  1.00  0.00    -0.413 N 
HETATM   28  C12 UNL     1      29.408   8.105  48.588  1.00  0.00     0.143 C 
HETATM   29  C13 UNL     1      27.407   9.080  49.540  1.00  0.00     0.146 C 
HETATM   30  C14 UNL     1      26.418   8.139  50.132  1.00  0.00     0.291 C 
ENDBRANCH  23  24
ENDBRANCH  22  23
ENDBRANCH  21  22
ENDBRANCH  20  21
ENDBRANCH   2  20
TORSDOF 10
ENDMDL
MODEL 9
REMARK VINA RESULT:      -7.3      4.602      7.359
REMARK  10 active torsions:
REMARK  status: ('A' for Active; 'I' for Inactive)
REMARK    1  A    between atoms: C2_2  and  S1_3 
REMARK    2  A    between atoms: S1_3  and  C3_4 
REMARK    3  A    between atoms: C3_4  and  C4_5 
REMARK    4  A    between atoms: C4_5  and  C15_18 
REMARK    5  A    between atoms: C5_6  and  C6_7 
REMARK    6  A    between atoms: C6_7  and  C7_8 
REMARK    7  A    between atoms: C7_8  and  C8_9 
REMARK    8  A    between atoms: C8_9  and  C9_10 
REMARK    9  A    between atoms: C9_10  and  N1_11 
REMARK   10  A    between atoms: C19_23  and  N3_24 
ROOT
HETATM    1  C4  UNL     1      25.326   3.133  50.439  1.00  0.00    -0.041 C 
HETATM    2  C5  UNL     1      26.340   3.825  50.023  1.00  0.00    -0.018 C 
ENDROOT
BRANCH   1   3
HETATM    3  C3  UNL     1      24.042   3.374  49.734  1.00  0.00     0.112 C 
BRANCH   3   4
HETATM    4  S1  UNL     1      23.090   4.611  50.703  1.00  0.00    -0.165 SA
BRANCH   4   5
HETATM    5  C2  UNL     1      23.411   6.280  50.057  1.00  0.00     0.069 C 
HETATM    6  C1  UNL     1      24.294   7.031  51.027  1.00  0.00     0.016 C 
ENDBRANCH   4   5
ENDBRANCH   3   4
ENDBRANCH   1   3
BRANCH   1   7
HETATM    7  C15 UNL     1      25.274   2.151  51.501  1.00  0.00    -0.014 A 
HETATM    8  C16 UNL     1      24.186   1.416  51.789  1.00  0.00     0.068 A 
HETATM    9  C17 UNL     1      24.429   0.520  52.899  1.00  0.00     0.186 A 
HETATM   10  O1  UNL     1      23.624  -0.292  53.410  1.00  0.00    -0.287 OA
HETATM   11  C18 UNL     1      25.785   0.731  53.320  1.00  0.00     0.051 A 
HETATM   12  C19 UNL     1      26.588   0.196  54.303  1.00  0.00     0.041 A 
HETATM   13  C23 UNL     1      26.259   1.701  52.476  1.00  0.00    -0.009 A 
HETATM   14  C20 UNL     1      27.895   0.570  54.521  1.00  0.00     0.030 A 
HETATM   15  C21 UNL     1      28.372   1.543  53.672  1.00  0.00     0.003 A 
HETATM   16  C22 UNL     1      27.552   2.065  52.698  1.00  0.00     0.013 A 
BRANCH  12  17
HETATM   17  N3  UNL     1      26.012  -0.797  55.127  1.00  0.00    -0.398 N 
HETATM   18  H29 UNL     1      25.621  -1.476  55.793  1.00  0.00     0.156 HD
HETATM   19  H30 UNL     1      25.510  -1.584  54.645  1.00  0.00     0.156 HD
ENDBRANCH  12  17
ENDBRANCH   1   7
BRANCH   2  20
HETATM   20  C6  UNL     1      26.526   4.837  48.972  1.00  0.00     0.028 C 
BRANCH  20  21
HETATM   21  C7  UNL     1      27.978   5.037  48.591  1.00  0.00     0.006 C 
BRANCH  21  22
HETATM   22  C8  UNL     1      28.301   6.390  48.036  1.00  0.00     0.030 C 
BRANCH  22  23
HETATM   23  C9  UNL     1      29.693   6.778  48.383  1.00  0.00     0.272 C 
BRANCH  23  24
HETATM   24  N1  UNL     1      30.694   6.027  47.631  1.00  0.00     0.091 N 
HETATM   25  C10 UNL     1      31.430   6.897  46.735  1.00  0.00     0.291 C 
HETATM   26  C11 UNL     1      32.473   6.125  46.001  1.00  0.00     0.146 C 
HETATM   27  N2  UNL     1      32.965   4.960  46.654  1.00  0.00    -0.413 N 
HETATM   28  C12 UNL     1      32.655   3.725  46.006  1.00  0.00     0.143 C 
HETATM   29  C13 UNL     1      32.882   4.957  48.077  1.00  0.00     0.146 C 
HETATM   30  C14 UNL     1      31.645   5.571  48.632  1.00  0.00     0.291 C 
ENDBRANCH  23  24
ENDBRANCH  22  23
ENDBRANCH  21  22
ENDBRANCH  20  21
ENDBRANCH   2  20
TORSDOF 10
ENDMDL
