MODEL 1
REMARK VINA RESULT:      -7.0      0.000      0.000
REMARK  8 active torsions:
REMARK  status: ('A' for Active; 'I' for Inactive)
REMARK    1  A    between atoms: C2_2  and  C3_3 
REMARK    2  A    between atoms: C3_3  and  N2_12 
REMARK    3  A    between atoms: C4_4  and  C5_5 
REMARK    4  A    between atoms: C6_6  and  N1_7 
REMARK    5  A    between atoms: N2_12  and  C10_13 
REMARK    6  A    between atoms: C13_16  and  C14_17 
REMARK    7  A    between atoms: C14_17  and  O2_18 
REMARK    8  A    between atoms: C15_19  and  C16_20 
ROOT
HETATM    1  C10 UNL     1      22.902   2.916  50.459  1.00  0.00     0.141 C 
HETATM    2  C11 UNL     1      22.415   1.760  50.006  1.00  0.00     0.037 C 
HETATM    3  C12 UNL     1      21.251   1.521  50.563  1.00  0.00    -0.000 C 
HETATM    4  C13 UNL     1      21.340   1.628  51.889  1.00  0.00    -0.016 C 
HETATM    5  C15 UNL     1      22.632   1.413  52.533  1.00  0.00    -0.048 C 
HETATM    6  C18 UNL     1      23.726   1.961  53.040  1.00  0.00     0.027 C 
HETATM    7  C19 UNL     1      24.280   3.268  53.237  1.00  0.00     0.118 C 
HETATM    8  N3  UNL     1      23.811   4.441  52.917  1.00  0.00    -0.254 NA
HETATM    9  C20 UNL     1      22.538   4.438  52.260  1.00  0.00     0.234 C 
HETATM   10  N4  UNL     1      22.088   3.824  51.229  1.00  0.00    -0.224 NA
ENDROOT
BRANCH   1  11
HETATM   11  N2  UNL     1      24.250   3.054  50.039  1.00  0.00    -0.344 N 
HETATM   12  H15 UNL     1      24.873   2.191  50.090  1.00  0.00     0.167 HD
BRANCH  11  13
HETATM   13  C3  UNL     1      25.101   4.111  49.525  1.00  0.00     0.007 C 
HETATM   14  C4  UNL     1      24.797   5.410  49.180  1.00  0.00     0.006 C 
BRANCH  13  15
HETATM   15  C2  UNL     1      26.390   3.328  49.502  1.00  0.00     0.052 C 
HETATM   16  C1  UNL     1      26.540   2.490  50.730  1.00  0.00     0.011 C 
ENDBRANCH  13  15
BRANCH  14  17
HETATM   17  C5  UNL     1      26.214   5.638  48.811  1.00  0.00     0.094 C 
HETATM   18  C6  UNL     1      26.870   6.803  48.818  1.00  0.00     0.070 C 
BRANCH  18  19
HETATM   19  N1  UNL     1      28.179   6.375  48.366  1.00  0.00    -0.389 N 
HETATM   20  C7  UNL     1      29.122   7.364  47.802  1.00  0.00     0.145 C 
HETATM   21  C8  UNL     1      30.391   6.992  48.542  1.00  0.00     0.189 C 
HETATM   22  O1  UNL     1      30.287   5.620  48.783  1.00  0.00    -0.371 OA
HETATM   23  C9  UNL     1      29.081   5.231  48.201  1.00  0.00     0.287 C 
ENDBRANCH  18  19
ENDBRANCH  14  17
ENDBRANCH  11  13
ENDBRANCH   1  11
BRANCH   4  24
HETATM   24  C14 UNL     1      20.159   1.933  52.671  1.00  0.00     0.204 C 
BRANCH  24  25
HETATM   25  O2  UNL     1      19.429   3.029  52.146  1.00  0.00    -0.396 OA
HETATM   26  H18 UNL     1      18.478   2.904  52.361  1.00  0.00     0.209 HD
ENDBRANCH  24  25
ENDBRANCH   4  24
BRANCH   5  27
HETATM   27  C16 UNL     1      22.537  -0.047  52.548  1.00  0.00     0.035 C 
HETATM   28  C17 UNL     1      22.489  -0.797  53.807  1.00  0.00     0.010 C 
ENDBRANCH   5  27
TORSDOF 8
ENDMDL
MODEL 2
REMARK VINA RESULT:      -6.8      3.452      5.132
REMARK  8 active torsions:
REMARK  status: ('A' for Active; 'I' for Inactive)
REMARK    1  A    between atoms: C2_2  and  C3_3 
REMARK    2  A    between atoms: C3_3  and  N2_12 
REMARK    3  A    between atoms: C4_4  and  C5_5 
REMARK    4  A    between atoms: C6_6  and  N1_7 
REMARK    5  A    between atoms: N2_12  and  C10_13 
REMARK    6  A    between atoms: C13_16  and  C14_17 
REMARK    7  A    between atoms: C14_17  and  O2_18 
REMARK    8  A    between atoms: C15_19  and  C16_20 
ROOT
HETATM    1  C10 UNL     1      22.208   2.507  49.930  1.00  0.00     0.141 C 
HETATM    2  C11 UNL     1      21.963   1.226  49.649  1.00  0.00     0.037 C 
HETATM    3  C12 UNL     1      20.794   1.117  49.062  1.00  0.00    -0.000 C 
HETATM    4  C13 UNL     1      19.856   1.740  49.775  1.00  0.00    -0.016 C 
HETATM    5  C15 UNL     1      20.055   1.912  51.212  1.00  0.00    -0.048 C 
HETATM    6  C18 UNL     1      20.448   2.711  52.191  1.00  0.00     0.027 C 
HETATM    7  C19 UNL     1      20.970   4.037  52.351  1.00  0.00     0.118 C 
HETATM    8  N3  UNL     1      21.258   4.944  51.461  1.00  0.00    -0.254 NA
HETATM    9  C20 UNL     1      21.022   4.569  50.099  1.00  0.00     0.234 C 
HETATM   10  N4  UNL     1      21.388   3.564  49.394  1.00  0.00    -0.224 NA
ENDROOT
BRANCH   1  11
HETATM   11  N2  UNL     1      23.352   2.593  50.764  1.00  0.00    -0.344 N 
HETATM   12  H15 UNL     1      23.875   3.522  50.790  1.00  0.00     0.167 HD
BRANCH  11  13
HETATM   13  C3  UNL     1      24.083   1.717  51.661  1.00  0.00     0.007 C 
HETATM   14  C4  UNL     1      23.626   0.873  52.649  1.00  0.00     0.006 C 
BRANCH  13  15
HETATM   15  C2  UNL     1      25.469   2.036  51.156  1.00  0.00     0.052 C 
HETATM   16  C1  UNL     1      25.577   3.463  50.727  1.00  0.00     0.011 C 
ENDBRANCH  13  15
BRANCH  14  17
HETATM   17  C5  UNL     1      25.021   0.471  52.944  1.00  0.00     0.094 C 
HETATM   18  C6  UNL     1      25.421  -0.522  53.745  1.00  0.00     0.070 C 
BRANCH  18  19
HETATM   19  N1  UNL     1      26.860  -0.404  53.620  1.00  0.00    -0.389 N 
HETATM   20  C7  UNL     1      27.542   0.817  54.100  1.00  0.00     0.145 C 
HETATM   21  C8  UNL     1      28.691   0.207  54.876  1.00  0.00     0.189 C 
HETATM   22  O1  UNL     1      28.972  -0.999  54.228  1.00  0.00    -0.371 OA
HETATM   23  C9  UNL     1      28.085  -1.059  53.154  1.00  0.00     0.287 C 
ENDBRANCH  18  19
ENDBRANCH  14  17
ENDBRANCH  11  13
ENDBRANCH   1  11
BRANCH   4  24
HETATM   24  C14 UNL     1      18.650   2.216  49.128  1.00  0.00     0.204 C 
BRANCH  24  25
HETATM   25  O2  UNL     1      18.874   2.604  47.783  1.00  0.00    -0.396 OA
HETATM   26  H18 UNL     1      18.158   3.219  47.511  1.00  0.00     0.209 HD
ENDBRANCH  24  25
ENDBRANCH   4  24
BRANCH   5  27
HETATM   27  C16 UNL     1      19.596   0.571  51.575  1.00  0.00     0.035 C 
HETATM   28  C17 UNL     1      19.980  -0.049  52.848  1.00  0.00     0.010 C 
ENDBRANCH   5  27
TORSDOF 8
ENDMDL
MODEL 3
REMARK VINA RESULT:      -6.7      5.327     10.079
REMARK  8 active torsions:
REMARK  status: ('A' for Active; 'I' for Inactive)
REMARK    1  A    between atoms: C2_2  and  C3_3 
REMARK    2  A    between atoms: C3_3  and  N2_12 
REMARK    3  A    between atoms: C4_4  and  C5_5 
REMARK    4  A    between atoms: C6_6  and  N1_7 
REMARK    5  A    between atoms: N2_12  and  C10_13 
REMARK    6  A    between atoms: C13_16  and  C14_17 
REMARK    7  A    between atoms: C14_17  and  O2_18 
REMARK    8  A    between atoms: C15_19  and  C16_20 
ROOT
HETATM    1  C10 UNL     1      31.689   5.072  47.786  1.00  0.00     0.141 C 
HETATM    2  C11 UNL     1      31.520   3.981  47.037  1.00  0.00     0.037 C 
HETATM    3  C12 UNL     1      32.607   3.245  47.076  1.00  0.00    -0.000 C 
HETATM    4  C13 UNL     1      33.679   3.982  46.787  1.00  0.00    -0.016 C 
HETATM    5  C15 UNL     1      33.515   5.183  45.974  1.00  0.00    -0.048 C 
HETATM    6  C18 UNL     1      33.376   6.500  45.951  1.00  0.00     0.027 C 
HETATM    7  C19 UNL     1      33.299   7.587  46.881  1.00  0.00     0.118 C 
HETATM    8  N3  UNL     1      33.332   7.588  48.184  1.00  0.00    -0.254 NA
HETATM    9  C20 UNL     1      33.465   6.301  48.799  1.00  0.00     0.234 C 
HETATM   10  N4  UNL     1      32.813   5.204  48.679  1.00  0.00    -0.224 NA
ENDROOT
BRANCH   1  11
HETATM   11  N2  UNL     1      30.615   5.969  47.556  1.00  0.00    -0.344 N 
HETATM   12  H15 UNL     1      30.814   6.836  46.967  1.00  0.00     0.167 HD
BRANCH  11  13
HETATM   13  C3  UNL     1      29.214   6.068  47.920  1.00  0.00     0.007 C 
HETATM   14  C4  UNL     1      28.367   5.125  48.461  1.00  0.00     0.006 C 
BRANCH  13  15
HETATM   15  C2  UNL     1      29.010   7.508  47.519  1.00  0.00     0.052 C 
HETATM   16  C1  UNL     1      29.662   7.805  46.208  1.00  0.00     0.011 C 
ENDBRANCH  13  15
BRANCH  14  17
HETATM   17  C5  UNL     1      27.267   6.119  48.456  1.00  0.00     0.094 C 
HETATM   18  C6  UNL     1      26.062   5.987  49.019  1.00  0.00     0.070 C 
BRANCH  18  19
HETATM   19  N1  UNL     1      25.465   7.261  48.671  1.00  0.00    -0.389 N 
HETATM   20  C7  UNL     1      25.164   8.247  49.731  1.00  0.00     0.145 C 
HETATM   21  C8  UNL     1      25.728   9.507  49.107  1.00  0.00     0.189 C 
HETATM   22  O1  UNL     1      25.583   9.331  47.728  1.00  0.00    -0.371 OA
HETATM   23  C9  UNL     1      24.959   8.094  47.576  1.00  0.00     0.287 C 
ENDBRANCH  18  19
ENDBRANCH  14  17
ENDBRANCH  11  13
ENDBRANCH   1  11
BRANCH   4  24
HETATM   24  C14 UNL     1      34.986   3.576  47.261  1.00  0.00     0.204 C 
BRANCH  24  25
HETATM   25  O2  UNL     1      34.967   3.161  48.618  1.00  0.00    -0.396 OA
HETATM   26  H18 UNL     1      34.215   2.541  48.745  1.00  0.00     0.209 HD
ENDBRANCH  24  25
ENDBRANCH   4  24
BRANCH   5  27
HETATM   27  C16 UNL     1      33.517   4.481  44.690  1.00  0.00     0.035 C 
HETATM   28  C17 UNL     1      33.175   5.170  43.441  1.00  0.00     0.010 C 
ENDBRANCH   5  27
TORSDOF 8
ENDMDL
MODEL 4
REMARK VINA RESULT:      -6.5      1.471      1.788
REMARK  8 active torsions:
REMARK  status: ('A' for Active; 'I' for Inactive)
REMARK    1  A    between atoms: C2_2  and  C3_3 
REMARK    2  A    between atoms: C3_3  and  N2_12 
REMARK    3  A    between atoms: C4_4  and  C5_5 
REMARK    4  A    between atoms: C6_6  and  N1_7 
REMARK    5  A    between atoms: N2_12  and  C10_13 
REMARK    6  A    between atoms: C13_16  and  C14_17 
REMARK    7  A    between atoms: C14_17  and  O2_18 
REMARK    8  A    between atoms: C15_19  and  C16_20 
ROOT
HETATM    1  C10 UNL     1      22.556   2.952  50.234  1.00  0.00     0.141 C 
HETATM    2  C11 UNL     1      22.521   1.645  49.973  1.00  0.00     0.037 C 
HETATM    3  C12 UNL     1      21.549   1.083  50.654  1.00  0.00    -0.000 C 
HETATM    4  C13 UNL     1      21.635   1.411  51.943  1.00  0.00    -0.016 C 
HETATM    5  C15 UNL     1      22.935   1.780  52.495  1.00  0.00    -0.048 C 
HETATM    6  C18 UNL     1      23.762   2.757  52.834  1.00  0.00     0.027 C 
HETATM    7  C19 UNL     1      23.795   4.190  52.816  1.00  0.00     0.118 C 
HETATM    8  N3  UNL     1      22.912   5.050  52.393  1.00  0.00    -0.254 NA
HETATM    9  C20 UNL     1      21.712   4.486  51.853  1.00  0.00     0.234 C 
HETATM   10  N4  UNL     1      21.489   3.605  50.950  1.00  0.00    -0.224 NA
ENDROOT
BRANCH   1  11
HETATM   11  N2  UNL     1      23.740   3.508  49.685  1.00  0.00    -0.344 N 
HETATM   12  H15 UNL     1      24.618   2.902  49.690  1.00  0.00     0.167 HD
BRANCH  11  13
HETATM   13  C3  UNL     1      24.145   4.761  49.076  1.00  0.00     0.007 C 
HETATM   14  C4  UNL     1      23.412   5.675  48.351  1.00  0.00     0.006 C 
BRANCH  13  15
HETATM   15  C2  UNL     1      25.593   4.723  49.497  1.00  0.00     0.052 C 
HETATM   16  C1  UNL     1      26.082   3.318  49.638  1.00  0.00     0.011 C 
ENDBRANCH  13  15
BRANCH  14  17
HETATM   17  C5  UNL     1      24.622   6.518  48.201  1.00  0.00     0.094 C 
HETATM   18  C6  UNL     1      24.757   7.601  47.429  1.00  0.00     0.070 C 
BRANCH  18  19
HETATM   19  N1  UNL     1      26.132   7.960  47.712  1.00  0.00    -0.389 N 
HETATM   20  C7  UNL     1      26.431   9.211  48.441  1.00  0.00     0.145 C 
HETATM   21  C8  UNL     1      27.433   8.707  49.460  1.00  0.00     0.189 C 
HETATM   22  O1  UNL     1      28.088   7.643  48.834  1.00  0.00    -0.371 OA
HETATM   23  C9  UNL     1      27.536   7.565  47.557  1.00  0.00     0.287 C 
ENDBRANCH  18  19
ENDBRANCH  14  17
ENDBRANCH  11  13
ENDBRANCH   1  11
BRANCH   4  24
HETATM   24  C14 UNL     1      20.453   1.378  52.779  1.00  0.00     0.204 C 
BRANCH  24  25
HETATM   25  O2  UNL     1      19.295   1.836  52.100  1.00  0.00    -0.396 OA
HETATM   26  H18 UNL     1      18.624   1.118  52.107  1.00  0.00     0.209 HD
ENDBRANCH  24  25
ENDBRANCH   4  24
BRANCH   5  27
HETATM   27  C16 UNL     1      23.392   0.406  52.702  1.00  0.00     0.035 C 
HETATM   28  C17 UNL     1      24.784   0.107  53.053  1.00  0.00     0.010 C 
ENDBRANCH   5  27
TORSDOF 8
ENDMDL
MODEL 5
REMARK VINA RESULT:      -6.4      1.516      2.324
REMARK  8 active torsions:
REMARK  status: ('A' for Active; 'I' for Inactive)
REMARK    1  A    between atoms: C2_2  and  C3_3 
REMARK    2  A    between atoms: C3_3  and  N2_12 
REMARK    3  A    between atoms: C4_4  and  C5_5 
REMARK    4  A    between atoms: C6_6  and  N1_7 
REMARK    5  A    between atoms: N2_12  and  C10_13 
REMARK    6  A    between atoms: C13_16  and  C14_17 
REMARK    7  A    between atoms: C14_17  and  O2_18 
REMARK    8  A    between atoms: C15_19  and  C16_20 
ROOT
HETATM    1  C10 UNL     1      22.403   3.441  49.950  1.00  0.00     0.141 C 
HETATM    2  C11 UNL     1      22.856   2.277  49.482  1.00  0.00     0.037 C 
HETATM    3  C12 UNL     1      22.261   1.287  50.105  1.00  0.00    -0.000 C 
HETATM    4  C13 UNL     1      22.347   1.449  51.425  1.00  0.00    -0.016 C 
HETATM    5  C15 UNL     1      23.449   2.237  51.972  1.00  0.00    -0.048 C 
HETATM    6  C18 UNL     1      23.857   3.411  52.428  1.00  0.00     0.027 C 
HETATM    7  C19 UNL     1      23.323   4.724  52.642  1.00  0.00     0.118 C 
HETATM    8  N3  UNL     1      22.134   5.201  52.403  1.00  0.00    -0.254 NA
HETATM    9  C20 UNL     1      21.201   4.276  51.833  1.00  0.00     0.234 C 
HETATM   10  N4  UNL     1      21.248   3.506  50.809  1.00  0.00    -0.224 NA
ENDROOT
BRANCH   1  11
HETATM   11  N2  UNL     1      23.209   4.494  49.447  1.00  0.00    -0.344 N 
HETATM   12  H15 UNL     1      22.712   5.365  49.085  1.00  0.00     0.167 HD
BRANCH  11  13
HETATM   13  C3  UNL     1      24.624   4.754  49.256  1.00  0.00     0.007 C 
HETATM   14  C4  UNL     1      25.709   3.917  49.401  1.00  0.00     0.006 C 
BRANCH  13  15
HETATM   15  C2  UNL     1      24.503   6.203  48.856  1.00  0.00     0.052 C 
HETATM   16  C1  UNL     1      23.420   6.400  47.845  1.00  0.00     0.011 C 
ENDBRANCH  13  15
BRANCH  14  17
HETATM   17  C5  UNL     1      26.610   5.028  49.012  1.00  0.00     0.094 C 
HETATM   18  C6  UNL     1      27.866   4.926  48.564  1.00  0.00     0.070 C 
BRANCH  18  19
HETATM   19  N1  UNL     1      28.193   6.324  48.368  1.00  0.00    -0.389 N 
HETATM   20  C7  UNL     1      29.355   6.698  47.533  1.00  0.00     0.145 C 
HETATM   21  C8  UNL     1      28.741   7.783  46.672  1.00  0.00     0.189 C 
HETATM   22  O1  UNL     1      27.755   8.371  47.470  1.00  0.00    -0.371 OA
HETATM   23  C9  UNL     1      27.821   7.705  48.693  1.00  0.00     0.287 C 
ENDBRANCH  18  19
ENDBRANCH  14  17
ENDBRANCH  11  13
ENDBRANCH   1  11
BRANCH   4  24
HETATM   24  C14 UNL     1      21.368   0.832  52.297  1.00  0.00     0.204 C 
BRANCH  24  25
HETATM   25  O2  UNL     1      20.068   0.820  51.730  1.00  0.00    -0.396 OA
HETATM   26  H18 UNL     1      19.648   1.693  51.893  1.00  0.00     0.209 HD
ENDBRANCH  24  25
ENDBRANCH   4  24
BRANCH   5  27
HETATM   27  C16 UNL     1      24.427   1.150  51.932  1.00  0.00     0.035 C 
HETATM   28  C17 UNL     1      25.866   1.411  52.043  1.00  0.00     0.010 C 
ENDBRANCH   5  27
TORSDOF 8
ENDMDL
MODEL 6
REMARK VINA RESULT:      -6.3      3.646      6.207
REMARK  8 active torsions:
REMARK  status: ('A' for Active; 'I' for Inactive)
REMARK    1  A    between atoms: C2_2  and  C3_3 
REMARK    2  A    between atoms: C3_3  and  N2_12 
REMARK    3  A    between atoms: C4_4  and  C5_5 
REMARK    4  A    between atoms: C6_6  and  N1_7 
REMARK    5  A    between atoms: N2_12  and  C10_13 
REMARK    6  A    between atoms: C13_16  and  C14_17 
REMARK    7  A    between atoms: C14_17  and  O2_18 
REMARK    8  A    between atoms: C15_19  and  C16_20 
ROOT
HETATM    1  C10 UNL     1      23.885   3.972  51.837  1.00  0.00     0.141 C 
HETATM    2  C11 UNL     1      23.975   3.527  53.092  1.00  0.00     0.037 C 
HETATM    3  C12 UNL     1      25.020   2.741  53.209  1.00  0.00    -0.000 C 
HETATM    4  C13 UNL     1      25.002   1.800  52.265  1.00  0.00    -0.016 C 
HETATM    5  C15 UNL     1      23.723   1.407  51.680  1.00  0.00    -0.048 C 
HETATM    6  C18 UNL     1      22.868   1.548  50.679  1.00  0.00     0.027 C 
HETATM    7  C19 UNL     1      22.756   2.295  49.460  1.00  0.00     0.118 C 
HETATM    8  N3  UNL     1      23.560   3.173  48.931  1.00  0.00    -0.254 NA
HETATM    9  C20 UNL     1      24.751   3.448  49.678  1.00  0.00     0.234 C 
HETATM   10  N4  UNL     1      24.961   3.786  50.896  1.00  0.00    -0.224 NA
ENDROOT
BRANCH   1  11
HETATM   11  N2  UNL     1      22.639   4.624  51.659  1.00  0.00    -0.344 N 
HETATM   12  H15 UNL     1      21.768   4.134  52.030  1.00  0.00     0.167 HD
BRANCH  11  13
HETATM   13  C3  UNL     1      22.159   5.859  51.068  1.00  0.00     0.007 C 
HETATM   14  C4  UNL     1      22.802   7.063  50.876  1.00  0.00     0.006 C 
BRANCH  13  15
HETATM   15  C2  UNL     1      20.763   5.389  50.742  1.00  0.00     0.052 C 
HETATM   16  C1  UNL     1      20.387   4.195  51.557  1.00  0.00     0.011 C 
ENDBRANCH  13  15
BRANCH  14  17
HETATM   17  C5  UNL     1      21.574   7.614  50.257  1.00  0.00     0.094 C 
HETATM   18  C6  UNL     1      21.491   8.657  49.425  1.00  0.00     0.070 C 
BRANCH  18  19
HETATM   19  N1  UNL     1      20.062   8.694  49.184  1.00  0.00    -0.389 N 
HETATM   20  C7  UNL     1      19.182   9.459  50.093  1.00  0.00     0.145 C 
HETATM   21  C8  UNL     1      18.331  10.210  49.090  1.00  0.00     0.189 C 
HETATM   22  O1  UNL     1      18.258   9.375  47.972  1.00  0.00    -0.371 OA
HETATM   23  C9  UNL     1      18.975   8.230  48.316  1.00  0.00     0.287 C 
ENDBRANCH  18  19
ENDBRANCH  14  17
ENDBRANCH  11  13
ENDBRANCH   1  11
BRANCH   4  24
HETATM   24  C14 UNL     1      26.238   1.170  51.847  1.00  0.00     0.204 C 
BRANCH  24  25
HETATM   25  O2  UNL     1      27.317   2.087  51.777  1.00  0.00    -0.396 OA
HETATM   26  H18 UNL     1      27.185   2.667  50.995  1.00  0.00     0.209 HD
ENDBRANCH  24  25
ENDBRANCH   4  24
BRANCH   5  27
HETATM   27  C16 UNL     1      23.357   0.486  52.756  1.00  0.00     0.035 C 
HETATM   28  C17 UNL     1      21.967   0.341  53.199  1.00  0.00     0.010 C 
ENDBRANCH   5  27
TORSDOF 8
ENDMDL
MODEL 7
REMARK VINA RESULT:      -6.3      6.542     10.535
REMARK  8 active torsions:
REMARK  status: ('A' for Active; 'I' for Inactive)
REMARK    1  A    between atoms: C2_2  and  C3_3 
REMARK    2  A    between atoms: C3_3  and  N2_12 
REMARK    3  A    between atoms: C4_4  and  C5_5 
REMARK    4  A    between atoms: C6_6  and  N1_7 
REMARK    5  A    between atoms: N2_12  and  C10_13 
REMARK    6  A    between atoms: C13_16  and  C14_17 
REMARK    7  A    between atoms: C14_17  and  O2_18 
REMARK    8  A    between atoms: C15_19  and  C16_20 
ROOT
HETATM    1  C10 UNL     1      32.604   4.727  48.052  1.00  0.00     0.141 C 
HETATM    2  C11 UNL     1      31.903   3.988  47.191  1.00  0.00     0.037 C 
HETATM    3  C12 UNL     1      32.711   3.192  46.530  1.00  0.00    -0.000 C 
HETATM    4  C13 UNL     1      33.721   3.886  46.005  1.00  0.00    -0.016 C 
HETATM    5  C15 UNL     1      33.534   5.306  45.721  1.00  0.00    -0.048 C 
HETATM    6  C18 UNL     1      33.709   6.553  46.129  1.00  0.00     0.027 C 
HETATM    7  C19 UNL     1      34.263   7.247  47.254  1.00  0.00     0.118 C 
HETATM    8  N3  UNL     1      34.809   6.787  48.345  1.00  0.00    -0.254 NA
HETATM    9  C20 UNL     1      34.869   5.360  48.450  1.00  0.00     0.234 C 
HETATM   10  N4  UNL     1      33.987   4.437  48.339  1.00  0.00    -0.224 NA
ENDROOT
BRANCH   1  11
HETATM   11  N2  UNL     1      31.769   5.740  48.589  1.00  0.00    -0.344 N 
HETATM   12  H15 UNL     1      32.195   6.399  49.311  1.00  0.00     0.167 HD
BRANCH  11  13
HETATM   13  C3  UNL     1      30.393   6.174  48.441  1.00  0.00     0.007 C 
HETATM   14  C4  UNL     1      29.240   5.437  48.275  1.00  0.00     0.006 C 
BRANCH  13  15
HETATM   15  C2  UNL     1      30.646   7.658  48.530  1.00  0.00     0.052 C 
HETATM   16  C1  UNL     1      31.601   7.981  49.633  1.00  0.00     0.011 C 
ENDBRANCH  13  15
BRANCH  14  17
HETATM   17  C5  UNL     1      28.451   6.690  48.230  1.00  0.00     0.094 C 
HETATM   18  C6  UNL     1      27.119   6.802  48.195  1.00  0.00     0.070 C 
BRANCH  18  19
HETATM   19  N1  UNL     1      26.973   8.243  48.159  1.00  0.00    -0.389 N 
HETATM   20  C7  UNL     1      26.854   9.002  49.422  1.00  0.00     0.145 C 
HETATM   21  C8  UNL     1      27.838  10.126  49.167  1.00  0.00     0.189 C 
HETATM   22  O1  UNL     1      27.814  10.327  47.784  1.00  0.00    -0.371 OA
HETATM   23  C9  UNL     1      26.873   9.422  47.293  1.00  0.00     0.287 C 
ENDBRANCH  18  19
ENDBRANCH  14  17
ENDBRANCH  11  13
ENDBRANCH   1  11
BRANCH   4  24
HETATM   24  C14 UNL     1      34.975   3.225  45.706  1.00  0.00     0.204 C 
BRANCH  24  25
HETATM   25  O2  UNL     1      35.989   4.136  45.314  1.00  0.00    -0.396 OA
HETATM   26  H18 UNL     1      35.817   4.416  44.388  1.00  0.00     0.209 HD
ENDBRANCH  24  25
ENDBRANCH   4  24
BRANCH   5  27
HETATM   27  C16 UNL     1      32.864   5.102  44.437  1.00  0.00     0.035 C 
HETATM   28  C17 UNL     1      33.439   5.604  43.185  1.00  0.00     0.010 C 
ENDBRANCH   5  27
TORSDOF 8
ENDMDL
MODEL 8
REMARK VINA RESULT:      -6.1      3.330      6.552
REMARK  8 active torsions:
REMARK  status: ('A' for Active; 'I' for Inactive)
REMARK    1  A    between atoms: C2_2  and  C3_3 
REMARK    2  A    between atoms: C3_3  and  N2_12 
REMARK    3  A    between atoms: C4_4  and  C5_5 
REMARK    4  A    between atoms: C6_6  and  N1_7 
REMARK    5  A    between atoms: N2_12  and  C10_13 
REMARK    6  A    between atoms: C13_16  and  C14_17 
REMARK    7  A    between atoms: C14_17  and  O2_18 
REMARK    8  A    between atoms: C15_19  and  C16_20 
ROOT
HETATM    1  C10 UNL     1      23.830   5.691  51.041  1.00  0.00     0.141 C 
HETATM    2  C11 UNL     1      24.676   6.716  50.931  1.00  0.00     0.037 C 
HETATM    3  C12 UNL     1      24.010   7.810  50.643  1.00  0.00    -0.000 C 
HETATM    4  C13 UNL     1      23.213   7.607  49.594  1.00  0.00    -0.016 C 
HETATM    5  C15 UNL     1      23.557   6.563  48.633  1.00  0.00    -0.048 C 
HETATM    6  C18 UNL     1      23.366   5.316  48.230  1.00  0.00     0.027 C 
HETATM    7  C19 UNL     1      22.592   4.172  48.612  1.00  0.00     0.118 C 
HETATM    8  N3  UNL     1      21.761   4.006  49.601  1.00  0.00    -0.254 NA
HETATM    9  C20 UNL     1      21.583   5.142  50.455  1.00  0.00     0.234 C 
HETATM   10  N4  UNL     1      22.404   5.895  51.090  1.00  0.00    -0.224 NA
ENDROOT
BRANCH   1  11
HETATM   11  N2  UNL     1      24.566   4.481  51.118  1.00  0.00    -0.344 N 
HETATM   12  H15 UNL     1      25.343   4.330  50.403  1.00  0.00     0.167 HD
BRANCH  11  13
HETATM   13  C3  UNL     1      24.571   3.289  51.945  1.00  0.00     0.007 C 
HETATM   14  C4  UNL     1      23.559   2.714  52.682  1.00  0.00     0.006 C 
BRANCH  13  15
HETATM   15  C2  UNL     1      26.014   2.906  51.727  1.00  0.00     0.052 C 
HETATM   16  C1  UNL     1      26.426   3.125  50.307  1.00  0.00     0.011 C 
ENDBRANCH  13  15
BRANCH  14  17
HETATM   17  C5  UNL     1      24.488   1.643  53.114  1.00  0.00     0.094 C 
HETATM   18  C6  UNL     1      24.215   0.340  53.235  1.00  0.00     0.070 C 
BRANCH  18  19
HETATM   19  N1  UNL     1      25.498  -0.161  53.684  1.00  0.00    -0.389 N 
HETATM   20  C7  UNL     1      26.238  -1.135  52.853  1.00  0.00     0.145 C 
HETATM   21  C8  UNL     1      27.625  -0.526  52.878  1.00  0.00     0.189 C 
HETATM   22  O1  UNL     1      27.717   0.128  54.110  1.00  0.00    -0.371 OA
HETATM   23  C9  UNL     1      26.503  -0.115  54.751  1.00  0.00     0.287 C 
ENDBRANCH  18  19
ENDBRANCH  14  17
ENDBRANCH  11  13
ENDBRANCH   1  11
BRANCH   4  24
HETATM   24  C14 UNL     1      22.035   8.430  49.411  1.00  0.00     0.204 C 
BRANCH  24  25
HETATM   25  O2  UNL     1      21.033   7.781  48.645  1.00  0.00    -0.396 OA
HETATM   26  H18 UNL     1      20.273   7.577  49.232  1.00  0.00     0.209 HD
ENDBRANCH  24  25
ENDBRANCH   4  24
BRANCH   5  27
HETATM   27  C16 UNL     1      24.515   7.377  47.885  1.00  0.00     0.035 C 
HETATM   28  C17 UNL     1      24.239   7.813  46.512  1.00  0.00     0.010 C 
ENDBRANCH   5  27
TORSDOF 8
ENDMDL
MODEL 9
REMARK VINA RESULT:      -5.9      8.759     10.692
REMARK  8 active torsions:
REMARK  status: ('A' for Active; 'I' for Inactive)
REMARK    1  A    between atoms: C2_2  and  C3_3 
REMARK    2  A    between atoms: C3_3  and  N2_12 
REMARK    3  A    between atoms: C4_4  and  C5_5 
REMARK    4  A    between atoms: C6_6  and  N1_7 
REMARK    5  A    between atoms: N2_12  and  C10_13 
REMARK    6  A    between atoms: C13_16  and  C14_17 
REMARK    7  A    between atoms: C14_17  and  O2_18 
REMARK    8  A    between atoms: C15_19  and  C16_20 
ROOT
HETATM    1  C10 UNL     1      31.980   5.874  47.778  1.00  0.00     0.141 C 
HETATM    2  C11 UNL     1      31.591   4.698  47.282  1.00  0.00     0.037 C 
HETATM    3  C12 UNL     1      32.546   3.812  47.446  1.00  0.00    -0.000 C 
HETATM    4  C13 UNL     1      33.702   4.281  46.977  1.00  0.00    -0.016 C 
HETATM    5  C15 UNL     1      33.682   5.300  45.932  1.00  0.00    -0.048 C 
HETATM    6  C18 UNL     1      33.754   6.589  45.634  1.00  0.00     0.027 C 
HETATM    7  C19 UNL     1      33.912   7.840  46.315  1.00  0.00     0.118 C 
HETATM    8  N3  UNL     1      34.028   8.101  47.586  1.00  0.00    -0.254 NA
HETATM    9  C20 UNL     1      33.991   6.964  48.456  1.00  0.00     0.234 C 
HETATM   10  N4  UNL     1      33.165   5.993  48.590  1.00  0.00    -0.224 NA
ENDROOT
BRANCH   1  11
HETATM   11  N2  UNL     1      31.052   6.875  47.393  1.00  0.00    -0.344 N 
HETATM   12  H15 UNL     1      30.553   6.752  46.458  1.00  0.00     0.167 HD
BRANCH  11  13
HETATM   13  C3  UNL     1      30.544   8.121  47.936  1.00  0.00     0.007 C 
HETATM   14  C4  UNL     1      30.503   8.573  49.237  1.00  0.00     0.006 C 
BRANCH  13  15
HETATM   15  C2  UNL     1      30.095   8.733  46.632  1.00  0.00     0.052 C 
HETATM   16  C1  UNL     1      29.127   7.845  45.920  1.00  0.00     0.011 C 
ENDBRANCH  13  15
BRANCH  14  17
HETATM   17  C5  UNL     1      29.863   9.828  48.775  1.00  0.00     0.094 C 
HETATM   18  C6  UNL     1      28.706  10.345  49.199  1.00  0.00     0.070 C 
BRANCH  18  19
HETATM   19  N1  UNL     1      28.634  11.542  48.386  1.00  0.00    -0.389 N 
HETATM   20  C7  UNL     1      27.335  12.220  48.188  1.00  0.00     0.145 C 
HETATM   21  C8  UNL     1      27.730  13.659  48.446  1.00  0.00     0.189 C 
HETATM   22  O1  UNL     1      29.065  13.752  48.042  1.00  0.00    -0.371 OA
HETATM   23  C9  UNL     1      29.396  12.485  47.562  1.00  0.00     0.287 C 
ENDBRANCH  18  19
ENDBRANCH  14  17
ENDBRANCH  11  13
ENDBRANCH   1  11
BRANCH   4  24
HETATM   24  C14 UNL     1      34.954   3.764  47.489  1.00  0.00     0.204 C 
BRANCH  24  25
HETATM   25  O2  UNL     1      34.935   3.591  48.897  1.00  0.00    -0.396 OA
HETATM   26  H18 UNL     1      35.283   4.408  49.317  1.00  0.00     0.209 HD
ENDBRANCH  24  25
ENDBRANCH   4  24
BRANCH   5  27
HETATM   27  C16 UNL     1      33.489   4.361  44.827  1.00  0.00     0.035 C 
HETATM   28  C17 UNL     1      33.238   4.829  43.460  1.00  0.00     0.010 C 
ENDBRANCH   5  27
TORSDOF 8
ENDMDL
