MODEL 1
REMARK VINA RESULT:      -8.6      0.000      0.000
REMARK  6 active torsions:
REMARK  status: ('A' for Active; 'I' for Inactive)
REMARK    1  A    between atoms: O1_2  and  C2_3 
REMARK    2  A    between atoms: C5_6  and  O2_7 
REMARK    3  A    between atoms: O2_7  and  C6_8 
REMARK    4  A    between atoms: C6_8  and  N1_9 
REMARK    5  A    between atoms: C8_11  and  C9_12 
REMARK    6  A    between atoms: C9_12  and  C10_13 
ROOT
HETATM    1  C10 UNL     1      23.665   3.254  51.424  1.00  0.00     0.094 C 
HETATM    2  N2  UNL     1      22.540   4.288  51.080  1.00  0.00    -0.297 N 
HETATM    3  C11 UNL     1      23.009   4.694  49.730  1.00  0.00     0.167 A 
HETATM    4  N3  UNL     1      23.007   3.547  48.713  1.00  0.00    -0.254 NA
HETATM    5  C12 UNL     1      22.880   2.515  49.395  1.00  0.00     0.069 A 
HETATM    6  C13 UNL     1      23.846   3.388  49.932  1.00  0.00     0.091 A 
HETATM    7  C14 UNL     1      24.517   4.513  49.820  1.00  0.00    -0.005 A 
HETATM    8  C15 UNL     1      25.326   5.679  49.705  1.00  0.00     0.010 A 
HETATM    9  C16 UNL     1      26.343   5.399  48.813  1.00  0.00     0.016 A 
HETATM   10  C17 UNL     1      27.252   6.435  48.533  1.00  0.00     0.025 A 
HETATM   11  C18 UNL     1      27.050   7.629  49.163  1.00  0.00     0.037 A 
HETATM   12 CL1  UNL     1      28.212   8.889  48.773  1.00  0.00    -0.084 Cl
HETATM   13  C19 UNL     1      26.009   7.790  50.027  1.00  0.00     0.066 A 
HETATM   14  C20 UNL     1      25.091   6.847  50.353  1.00  0.00     0.128 A 
HETATM   15  F1  UNL     1      24.066   7.016  51.217  1.00  0.00    -0.205 F 
HETATM   16  H14 UNL     1      21.742   3.632  50.948  1.00  0.00     0.124 HD
ENDROOT
BRANCH   1  17
HETATM   17  C9  UNL     1      23.191   2.064  52.075  1.00  0.00     0.063 C 
BRANCH  17  18
HETATM   18  C8  UNL     1      24.188   1.318  52.895  1.00  0.00    -0.021 A 
HETATM   19  C2  UNL     1      23.937   0.029  53.327  1.00  0.00     0.074 A 
HETATM   20  C3  UNL     1      24.920  -0.557  54.136  1.00  0.00     0.040 A 
HETATM   21  C4  UNL     1      26.066   0.153  54.463  1.00  0.00     0.039 A 
HETATM   22  C5  UNL     1      26.297   1.420  54.033  1.00  0.00     0.071 A 
HETATM   23  C7  UNL     1      25.336   2.024  53.225  1.00  0.00     0.046 A 
BRANCH  19  24
HETATM   24  O1  UNL     1      22.752  -0.554  52.921  1.00  0.00    -0.355 OA
HETATM   25  C1  UNL     1      22.004  -1.365  53.806  1.00  0.00     0.210 C 
ENDBRANCH  19  24
BRANCH  22  26
HETATM   26  O2  UNL     1      27.398   2.197  54.309  1.00  0.00    -0.322 OA
BRANCH  26  27
HETATM   27  C6  UNL     1      28.671   2.047  53.715  1.00  0.00     0.441 C 
BRANCH  27  28
HETATM   28  N1  UNL     1      29.737   2.157  54.702  1.00  0.00     0.101 N 
HETATM   29  H8  UNL     1      29.307   2.104  55.643  1.00  0.00     0.315 HD
HETATM   30  H9  UNL     1      30.250   3.049  54.565  1.00  0.00     0.315 HD
ENDBRANCH  27  28
ENDBRANCH  26  27
ENDBRANCH  22  26
ENDBRANCH  17  18
ENDBRANCH   1  17
TORSDOF 6
ENDMDL
MODEL 2
REMARK VINA RESULT:      -8.4      4.011      6.947
REMARK  6 active torsions:
REMARK  status: ('A' for Active; 'I' for Inactive)
REMARK    1  A    between atoms: O1_2  and  C2_3 
REMARK    2  A    between atoms: C5_6  and  O2_7 
REMARK    3  A    between atoms: O2_7  and  C6_8 
REMARK    4  A    between atoms: C6_8  and  N1_9 
REMARK    5  A    between atoms: C8_11  and  C9_12 
REMARK    6  A    between atoms: C9_12  and  C10_13 
ROOT
HETATM    1  C10 UNL     1      25.017   2.450  50.850  1.00  0.00     0.094 C 
HETATM    2  N2  UNL     1      24.111   1.369  51.532  1.00  0.00    -0.297 N 
HETATM    3  C11 UNL     1      24.725   1.376  52.884  1.00  0.00     0.167 A 
HETATM    4  N3  UNL     1      24.589   2.720  53.609  1.00  0.00    -0.254 NA
HETATM    5  C12 UNL     1      24.244   3.526  52.727  1.00  0.00     0.069 A 
HETATM    6  C13 UNL     1      25.311   2.708  52.308  1.00  0.00     0.091 A 
HETATM    7  C14 UNL     1      26.172   1.759  52.603  1.00  0.00    -0.005 A 
HETATM    8  C15 UNL     1      27.175   0.792  52.898  1.00  0.00     0.010 A 
HETATM    9  C16 UNL     1      28.181   1.430  53.595  1.00  0.00     0.016 A 
HETATM   10  C17 UNL     1      29.272   0.643  54.010  1.00  0.00     0.025 A 
HETATM   11  C18 UNL     1      29.239  -0.684  53.691  1.00  0.00     0.037 A 
HETATM   12 CL1  UNL     1      30.623  -1.620  54.236  1.00  0.00    -0.084 Cl
HETATM   13  C19 UNL     1      28.190  -1.204  52.996  1.00  0.00     0.066 A 
HETATM   14  C20 UNL     1      27.104  -0.520  52.559  1.00  0.00     0.128 A 
HETATM   15  F1  UNL     1      26.072  -1.046  51.864  1.00  0.00    -0.205 F 
HETATM   16  H14 UNL     1      23.221   1.907  51.591  1.00  0.00     0.124 HD
ENDROOT
BRANCH   1  17
HETATM   17  C9  UNL     1      24.306   3.361  49.997  1.00  0.00     0.063 C 
BRANCH  17  18
HETATM   18  C8  UNL     1      25.097   4.490  49.429  1.00  0.00    -0.021 A 
HETATM   19  C2  UNL     1      24.489   5.673  49.055  1.00  0.00     0.074 A 
HETATM   20  C3  UNL     1      25.321   6.645  48.484  1.00  0.00     0.040 A 
HETATM   21  C4  UNL     1      26.676   6.392  48.319  1.00  0.00     0.039 A 
HETATM   22  C5  UNL     1      27.258   5.224  48.690  1.00  0.00     0.071 A 
HETATM   23  C7  UNL     1      26.453   4.242  49.263  1.00  0.00     0.046 A 
BRANCH  19  24
HETATM   24  O1  UNL     1      23.131   5.784  49.281  1.00  0.00    -0.355 OA
HETATM   25  C1  UNL     1      22.544   7.039  49.562  1.00  0.00     0.210 C 
ENDBRANCH  19  24
BRANCH  22  26
HETATM   26  O2  UNL     1      28.586   4.887  48.562  1.00  0.00    -0.322 OA
BRANCH  26  27
HETATM   27  C6  UNL     1      29.615   5.768  48.162  1.00  0.00     0.441 C 
BRANCH  27  28
HETATM   28  N1  UNL     1      30.457   6.151  49.289  1.00  0.00     0.101 N 
HETATM   29  H8  UNL     1      30.793   7.115  49.121  1.00  0.00     0.315 HD
HETATM   30  H9  UNL     1      31.245   5.481  49.380  1.00  0.00     0.315 HD
ENDBRANCH  27  28
ENDBRANCH  26  27
ENDBRANCH  22  26
ENDBRANCH  17  18
ENDBRANCH   1  17
TORSDOF 6
ENDMDL
MODEL 3
REMARK VINA RESULT:      -7.7      3.932      7.827
REMARK  6 active torsions:
REMARK  status: ('A' for Active; 'I' for Inactive)
REMARK    1  A    between atoms: O1_2  and  C2_3 
REMARK    2  A    between atoms: C5_6  and  O2_7 
REMARK    3  A    between atoms: O2_7  and  C6_8 
REMARK    4  A    between atoms: C6_8  and  N1_9 
REMARK    5  A    between atoms: C8_11  and  C9_12 
REMARK    6  A    between atoms: C9_12  and  C10_13 
ROOT
HETATM    1  C10 UNL     1      25.466   2.680  50.851  1.00  0.00     0.094 C 
HETATM    2  N2  UNL     1      25.126   3.636  52.045  1.00  0.00    -0.297 N 
HETATM    3  C11 UNL     1      25.061   2.628  53.133  1.00  0.00     0.167 A 
HETATM    4  N3  UNL     1      26.395   1.915  53.385  1.00  0.00    -0.254 NA
HETATM    5  C12 UNL     1      27.096   2.189  52.394  1.00  0.00     0.069 A 
HETATM    6  C13 UNL     1      25.793   1.795  52.029  1.00  0.00     0.091 A 
HETATM    7  C14 UNL     1      24.610   1.367  52.409  1.00  0.00    -0.005 A 
HETATM    8  C15 UNL     1      23.340   0.828  52.761  1.00  0.00     0.010 A 
HETATM    9  C16 UNL     1      23.498  -0.531  52.950  1.00  0.00     0.016 A 
HETATM   10  C17 UNL     1      22.358  -1.262  53.331  1.00  0.00     0.025 A 
HETATM   11  C18 UNL     1      21.195  -0.565  53.485  1.00  0.00     0.037 A 
HETATM   12 CL1  UNL     1      19.804  -1.526  53.966  1.00  0.00    -0.084 Cl
HETATM   13  C19 UNL     1      21.158   0.779  53.269  1.00  0.00     0.066 A 
HETATM   14  C20 UNL     1      22.205   1.557  52.900  1.00  0.00     0.128 A 
HETATM   15  F1  UNL     1      22.154   2.889  52.682  1.00  0.00    -0.205 F 
HETATM   16  H14 UNL     1      26.038   4.130  52.131  1.00  0.00     0.124 HD
ENDROOT
BRANCH   1  17
HETATM   17  C9  UNL     1      26.444   3.204  49.939  1.00  0.00     0.063 C 
BRANCH  17  18
HETATM   18  C8  UNL     1      26.106   4.496  49.277  1.00  0.00    -0.021 A 
HETATM   19  C2  UNL     1      27.093   5.311  48.754  1.00  0.00     0.074 A 
HETATM   20  C3  UNL     1      26.666   6.526  48.202  1.00  0.00     0.040 A 
HETATM   21  C4  UNL     1      25.318   6.856  48.204  1.00  0.00     0.039 A 
HETATM   22  C5  UNL     1      24.361   6.046  48.724  1.00  0.00     0.071 A 
HETATM   23  C7  UNL     1      24.759   4.830  49.276  1.00  0.00     0.046 A 
BRANCH  19  24
HETATM   24  O1  UNL     1      28.393   4.851  48.821  1.00  0.00    -0.355 OA
HETATM   25  C1  UNL     1      29.450   5.581  48.228  1.00  0.00     0.210 C 
ENDBRANCH  19  24
BRANCH  22  26
HETATM   26  O2  UNL     1      23.008   6.292  48.772  1.00  0.00    -0.322 OA
BRANCH  26  27
HETATM   27  C6  UNL     1      21.999   5.363  48.436  1.00  0.00     0.441 C 
BRANCH  27  28
HETATM   28  N1  UNL     1      21.457   5.621  47.107  1.00  0.00     0.101 N 
HETATM   29  H8  UNL     1      20.743   4.898  46.909  1.00  0.00     0.315 HD
HETATM   30  H9  UNL     1      22.224   5.604  46.408  1.00  0.00     0.315 HD
ENDBRANCH  27  28
ENDBRANCH  26  27
ENDBRANCH  22  26
ENDBRANCH  17  18
ENDBRANCH   1  17
TORSDOF 6
ENDMDL
MODEL 4
REMARK VINA RESULT:      -7.7      3.942      5.895
REMARK  6 active torsions:
REMARK  status: ('A' for Active; 'I' for Inactive)
REMARK    1  A    between atoms: O1_2  and  C2_3 
REMARK    2  A    between atoms: C5_6  and  O2_7 
REMARK    3  A    between atoms: O2_7  and  C6_8 
REMARK    4  A    between atoms: C6_8  and  N1_9 
REMARK    5  A    between atoms: C8_11  and  C9_12 
REMARK    6  A    between atoms: C9_12  and  C10_13 
ROOT
HETATM    1  C10 UNL     1      21.897   2.053  51.507  1.00  0.00     0.094 C 
HETATM    2  N2  UNL     1      22.435   3.524  51.558  1.00  0.00    -0.297 N 
HETATM    3  C11 UNL     1      23.790   3.291  50.997  1.00  0.00     0.167 A 
HETATM    4  N3  UNL     1      23.772   2.781  49.551  1.00  0.00    -0.254 NA
HETATM    5  C12 UNL     1      22.596   2.429  49.351  1.00  0.00     0.069 A 
HETATM    6  C13 UNL     1      23.087   1.956  50.584  1.00  0.00     0.091 A 
HETATM    7  C14 UNL     1      24.098   1.861  51.419  1.00  0.00    -0.005 A 
HETATM    8  C15 UNL     1      25.181   1.663  52.322  1.00  0.00     0.010 A 
HETATM    9  C16 UNL     1      25.955   0.632  51.828  1.00  0.00     0.016 A 
HETATM   10  C17 UNL     1      27.104   0.285  52.563  1.00  0.00     0.025 A 
HETATM   11  C18 UNL     1      27.357   1.000  53.698  1.00  0.00     0.037 A 
HETATM   12 CL1  UNL     1      28.806   0.529  54.573  1.00  0.00    -0.084 Cl
HETATM   13  C19 UNL     1      26.519   1.999  54.088  1.00  0.00     0.066 A 
HETATM   14  C20 UNL     1      25.395   2.396  53.443  1.00  0.00     0.128 A 
HETATM   15  F1  UNL     1      24.566   3.385  53.845  1.00  0.00    -0.205 F 
HETATM   16  H14 UNL     1      21.853   3.943  50.804  1.00  0.00     0.124 HD
ENDROOT
BRANCH   1  17
HETATM   17  C9  UNL     1      20.532   1.940  51.077  1.00  0.00     0.063 C 
BRANCH  17  18
HETATM   18  C8  UNL     1      19.728   0.853  51.705  1.00  0.00    -0.021 A 
HETATM   19  C2  UNL     1      18.418   0.623  51.329  1.00  0.00     0.074 A 
HETATM   20  C3  UNL     1      17.742  -0.390  52.023  1.00  0.00     0.040 A 
HETATM   21  C4  UNL     1      18.388  -1.097  53.027  1.00  0.00     0.039 A 
HETATM   22  C5  UNL     1      19.675  -0.857  53.388  1.00  0.00     0.071 A 
HETATM   23  C7  UNL     1      20.370   0.143  52.710  1.00  0.00     0.046 A 
BRANCH  19  24
HETATM   24  O1  UNL     1      17.907   1.404  50.312  1.00  0.00    -0.355 OA
HETATM   25  C1  UNL     1      16.544   1.314  49.945  1.00  0.00     0.210 C 
ENDBRANCH  19  24
BRANCH  22  26
HETATM   26  O2  UNL     1      20.391  -1.503  54.368  1.00  0.00    -0.322 OA
BRANCH  26  27
HETATM   27  C6  UNL     1      21.751  -1.874  54.273  1.00  0.00     0.441 C 
BRANCH  27  28
HETATM   28  N1  UNL     1      22.561  -1.194  55.276  1.00  0.00     0.101 N 
HETATM   29  H8  UNL     1      23.345  -0.726  54.788  1.00  0.00     0.315 HD
HETATM   30  H9  UNL     1      22.900  -1.881  55.976  1.00  0.00     0.315 HD
ENDBRANCH  27  28
ENDBRANCH  26  27
ENDBRANCH  22  26
ENDBRANCH  17  18
ENDBRANCH   1  17
TORSDOF 6
ENDMDL
MODEL 5
REMARK VINA RESULT:      -7.6      5.136      7.596
REMARK  6 active torsions:
REMARK  status: ('A' for Active; 'I' for Inactive)
REMARK    1  A    between atoms: O1_2  and  C2_3 
REMARK    2  A    between atoms: C5_6  and  O2_7 
REMARK    3  A    between atoms: O2_7  and  C6_8 
REMARK    4  A    between atoms: C6_8  and  N1_9 
REMARK    5  A    between atoms: C8_11  and  C9_12 
REMARK    6  A    between atoms: C9_12  and  C10_13 
ROOT
HETATM    1  C10 UNL     1      28.721   6.783  47.903  1.00  0.00     0.094 C 
HETATM    2  N2  UNL     1      29.589   7.331  49.087  1.00  0.00    -0.297 N 
HETATM    3  C11 UNL     1      30.794   7.734  48.318  1.00  0.00     0.167 A 
HETATM    4  N3  UNL     1      30.523   8.846  47.297  1.00  0.00    -0.254 NA
HETATM    5  C12 UNL     1      29.284   8.897  47.202  1.00  0.00     0.069 A 
HETATM    6  C13 UNL     1      29.764   7.574  47.152  1.00  0.00     0.091 A 
HETATM    7  C14 UNL     1      30.797   6.762  47.147  1.00  0.00    -0.005 A 
HETATM    8  C15 UNL     1      31.884   5.846  47.058  1.00  0.00     0.010 A 
HETATM    9  C16 UNL     1      32.346   5.867  45.757  1.00  0.00     0.016 A 
HETATM   10  C17 UNL     1      33.446   5.044  45.454  1.00  0.00     0.025 A 
HETATM   11  C18 UNL     1      33.964   4.297  46.473  1.00  0.00     0.037 A 
HETATM   12 CL1  UNL     1      35.338   3.290  46.041  1.00  0.00    -0.084 Cl
HETATM   13  C19 UNL     1      33.422   4.357  47.721  1.00  0.00     0.066 A 
HETATM   14  C20 UNL     1      32.367   5.120  48.097  1.00  0.00     0.128 A 
HETATM   15  F1  UNL     1      31.833   5.165  49.337  1.00  0.00    -0.205 F 
HETATM   16  H14 UNL     1      29.053   8.197  49.303  1.00  0.00     0.124 HD
ENDROOT
BRANCH   1  17
HETATM   17  C9  UNL     1      27.332   7.144  47.976  1.00  0.00     0.063 C 
BRANCH  17  18
HETATM   18  C8  UNL     1      26.405   6.102  48.503  1.00  0.00    -0.021 A 
HETATM   19  C2  UNL     1      25.039   6.310  48.533  1.00  0.00     0.074 A 
HETATM   20  C3  UNL     1      24.268   5.285  49.098  1.00  0.00     0.040 A 
HETATM   21  C4  UNL     1      24.882   4.141  49.589  1.00  0.00     0.039 A 
HETATM   22  C5  UNL     1      26.226   3.952  49.554  1.00  0.00     0.071 A 
HETATM   23  C7  UNL     1      27.015   4.956  48.994  1.00  0.00     0.046 A 
BRANCH  19  24
HETATM   24  O1  UNL     1      24.569   7.497  48.008  1.00  0.00    -0.355 OA
HETATM   25  C1  UNL     1      23.917   8.445  48.830  1.00  0.00     0.210 C 
ENDBRANCH  19  24
BRANCH  22  26
HETATM   26  O2  UNL     1      26.918   2.857  50.017  1.00  0.00    -0.322 OA
BRANCH  26  27
HETATM   27  C6  UNL     1      26.574   2.100  51.158  1.00  0.00     0.441 C 
BRANCH  27  28
HETATM   28  N1  UNL     1      27.278   2.572  52.344  1.00  0.00     0.101 N 
HETATM   29  H8  UNL     1      27.888   1.805  52.679  1.00  0.00     0.315 HD
HETATM   30  H9  UNL     1      26.592   2.859  53.067  1.00  0.00     0.315 HD
ENDBRANCH  27  28
ENDBRANCH  26  27
ENDBRANCH  22  26
ENDBRANCH  17  18
ENDBRANCH   1  17
TORSDOF 6
ENDMDL
MODEL 6
REMARK VINA RESULT:      -7.6      4.111      6.982
REMARK  6 active torsions:
REMARK  status: ('A' for Active; 'I' for Inactive)
REMARK    1  A    between atoms: O1_2  and  C2_3 
REMARK    2  A    between atoms: C5_6  and  O2_7 
REMARK    3  A    between atoms: O2_7  and  C6_8 
REMARK    4  A    between atoms: C6_8  and  N1_9 
REMARK    5  A    between atoms: C8_11  and  C9_12 
REMARK    6  A    between atoms: C9_12  and  C10_13 
ROOT
HETATM    1  C10 UNL     1      22.446   0.127  52.879  1.00  0.00     0.094 C 
HETATM    2  N2  UNL     1      22.549  -1.436  52.833  1.00  0.00    -0.297 N 
HETATM    3  C11 UNL     1      23.425  -1.642  54.014  1.00  0.00     0.167 A 
HETATM    4  N3  UNL     1      22.789  -1.188  55.333  1.00  0.00    -0.254 NA
HETATM    5  C12 UNL     1      21.809  -0.501  54.995  1.00  0.00     0.069 A 
HETATM    6  C13 UNL     1      22.967  -0.167  54.265  1.00  0.00     0.091 A 
HETATM    7  C14 UNL     1      24.250  -0.363  54.059  1.00  0.00    -0.005 A 
HETATM    8  C15 UNL     1      25.654  -0.480  53.849  1.00  0.00     0.010 A 
HETATM    9  C16 UNL     1      26.287   0.254  54.833  1.00  0.00     0.016 A 
HETATM   10  C17 UNL     1      27.694   0.254  54.826  1.00  0.00     0.025 A 
HETATM   11  C18 UNL     1      28.312  -0.474  53.850  1.00  0.00     0.037 A 
HETATM   12 CL1  UNL     1      30.069  -0.443  53.890  1.00  0.00    -0.084 Cl
HETATM   13  C19 UNL     1      27.581  -1.160  52.929  1.00  0.00     0.066 A 
HETATM   14  C20 UNL     1      26.228  -1.213  52.863  1.00  0.00     0.128 A 
HETATM   15  F1  UNL     1      25.513  -1.892  51.939  1.00  0.00    -0.205 F 
HETATM   16  H14 UNL     1      21.578  -1.678  53.120  1.00  0.00     0.124 HD
ENDROOT
BRANCH   1  17
HETATM   17  C9  UNL     1      21.133   0.639  52.603  1.00  0.00     0.063 C 
BRANCH  17  18
HETATM   18  C8  UNL     1      21.048   2.083  52.244  1.00  0.00    -0.021 A 
HETATM   19  C2  UNL     1      19.854   2.650  51.838  1.00  0.00     0.074 A 
HETATM   20  C3  UNL     1      19.902   4.003  51.474  1.00  0.00     0.040 A 
HETATM   21  C4  UNL     1      21.103   4.697  51.530  1.00  0.00     0.039 A 
HETATM   22  C5  UNL     1      22.268   4.125  51.928  1.00  0.00     0.071 A 
HETATM   23  C7  UNL     1      22.246   2.781  52.298  1.00  0.00     0.046 A 
BRANCH  19  24
HETATM   24  O1  UNL     1      18.738   1.837  51.834  1.00  0.00    -0.355 OA
HETATM   25  C1  UNL     1      17.748   1.973  50.833  1.00  0.00     0.210 C 
ENDBRANCH  19  24
BRANCH  22  26
HETATM   26  O2  UNL     1      23.499   4.732  52.011  1.00  0.00    -0.322 OA
BRANCH  26  27
HETATM   27  C6  UNL     1      23.955   5.769  51.167  1.00  0.00     0.441 C 
BRANCH  27  28
HETATM   28  N1  UNL     1      24.365   6.939  51.933  1.00  0.00     0.101 N 
HETATM   29  H8  UNL     1      25.085   7.442  51.385  1.00  0.00     0.315 HD
HETATM   30  H9  UNL     1      24.727   6.641  52.859  1.00  0.00     0.315 HD
ENDBRANCH  27  28
ENDBRANCH  26  27
ENDBRANCH  22  26
ENDBRANCH  17  18
ENDBRANCH   1  17
TORSDOF 6
ENDMDL
MODEL 7
REMARK VINA RESULT:      -7.5      3.829      6.746
REMARK  6 active torsions:
REMARK  status: ('A' for Active; 'I' for Inactive)
REMARK    1  A    between atoms: O1_2  and  C2_3 
REMARK    2  A    between atoms: C5_6  and  O2_7 
REMARK    3  A    between atoms: O2_7  and  C6_8 
REMARK    4  A    between atoms: C6_8  and  N1_9 
REMARK    5  A    between atoms: C8_11  and  C9_12 
REMARK    6  A    between atoms: C9_12  and  C10_13 
ROOT
HETATM    1  C10 UNL     1      23.484   4.014  51.894  1.00  0.00     0.094 C 
HETATM    2  N2  UNL     1      23.597   3.121  50.612  1.00  0.00    -0.297 N 
HETATM    3  C11 UNL     1      23.683   1.791  51.267  1.00  0.00     0.167 A 
HETATM    4  N3  UNL     1      22.426   1.422  52.064  1.00  0.00    -0.254 NA
HETATM    5  C12 UNL     1      21.791   2.486  52.171  1.00  0.00     0.069 A 
HETATM    6  C13 UNL     1      23.159   2.654  52.462  1.00  0.00     0.091 A 
HETATM    7  C14 UNL     1      24.345   2.106  52.601  1.00  0.00    -0.005 A 
HETATM    8  C15 UNL     1      25.634   1.548  52.840  1.00  0.00     0.010 A 
HETATM    9  C16 UNL     1      25.623   0.993  54.104  1.00  0.00     0.016 A 
HETATM   10  C17 UNL     1      26.803   0.360  54.537  1.00  0.00     0.025 A 
HETATM   11  C18 UNL     1      27.856   0.346  53.668  1.00  0.00     0.037 A 
HETATM   12 CL1  UNL     1      29.302  -0.461  54.256  1.00  0.00    -0.084 Cl
HETATM   13  C19 UNL     1      27.751   0.929  52.442  1.00  0.00     0.066 A 
HETATM   14  C20 UNL     1      26.656   1.558  51.949  1.00  0.00     0.128 A 
HETATM   15  F1  UNL     1      26.566   2.140  50.733  1.00  0.00    -0.205 F 
HETATM   16  H14 UNL     1      22.628   3.227  50.246  1.00  0.00     0.124 HD
ENDROOT
BRANCH   1  17
HETATM   17  C9  UNL     1      22.537   5.088  51.781  1.00  0.00     0.063 C 
BRANCH  17  18
HETATM   18  C8  UNL     1      22.999   6.302  51.049  1.00  0.00    -0.021 A 
HETATM   19  C2  UNL     1      22.110   7.095  50.347  1.00  0.00     0.074 A 
HETATM   20  C3  UNL     1      22.662   8.180  49.652  1.00  0.00     0.040 A 
HETATM   21  C4  UNL     1      24.030   8.410  49.692  1.00  0.00     0.039 A 
HETATM   22  C5  UNL     1      24.890   7.620  50.384  1.00  0.00     0.071 A 
HETATM   23  C7  UNL     1      24.366   6.536  51.086  1.00  0.00     0.046 A 
BRANCH  19  24
HETATM   24  O1  UNL     1      20.775   6.746  50.398  1.00  0.00    -0.355 OA
HETATM   25  C1  UNL     1      20.088   6.337  49.232  1.00  0.00     0.210 C 
ENDBRANCH  19  24
BRANCH  22  26
HETATM   26  O2  UNL     1      26.255   7.770  50.477  1.00  0.00    -0.322 OA
BRANCH  26  27
HETATM   27  C6  UNL     1      27.027   8.684  49.727  1.00  0.00     0.441 C 
BRANCH  27  28
HETATM   28  N1  UNL     1      27.949   9.427  50.576  1.00  0.00     0.101 N 
HETATM   29  H8  UNL     1      27.903   9.021  51.528  1.00  0.00     0.315 HD
HETATM   30  H9  UNL     1      27.691  10.433  50.577  1.00  0.00     0.315 HD
ENDBRANCH  27  28
ENDBRANCH  26  27
ENDBRANCH  22  26
ENDBRANCH  17  18
ENDBRANCH   1  17
TORSDOF 6
ENDMDL
MODEL 8
REMARK VINA RESULT:      -7.4      1.543      1.964
REMARK  6 active torsions:
REMARK  status: ('A' for Active; 'I' for Inactive)
REMARK    1  A    between atoms: O1_2  and  C2_3 
REMARK    2  A    between atoms: C5_6  and  O2_7 
REMARK    3  A    between atoms: O2_7  and  C6_8 
REMARK    4  A    between atoms: C6_8  and  N1_9 
REMARK    5  A    between atoms: C8_11  and  C9_12 
REMARK    6  A    between atoms: C9_12  and  C10_13 
ROOT
HETATM    1  C10 UNL     1      23.705   5.326  51.476  1.00  0.00     0.094 C 
HETATM    2  N2  UNL     1      22.991   6.631  50.984  1.00  0.00    -0.297 N 
HETATM    3  C11 UNL     1      23.501   6.660  49.590  1.00  0.00     0.167 A 
HETATM    4  N3  UNL     1      23.051   5.458  48.750  1.00  0.00    -0.254 NA
HETATM    5  C12 UNL     1      22.610   4.639  49.576  1.00  0.00     0.069 A 
HETATM    6  C13 UNL     1      23.845   5.184  49.979  1.00  0.00     0.091 A 
HETATM    7  C14 UNL     1      24.857   5.977  49.704  1.00  0.00    -0.005 A 
HETATM    8  C15 UNL     1      26.012   6.760  49.420  1.00  0.00     0.010 A 
HETATM    9  C16 UNL     1      26.822   6.023  48.579  1.00  0.00     0.016 A 
HETATM   10  C17 UNL     1      28.018   6.628  48.150  1.00  0.00     0.025 A 
HETATM   11  C18 UNL     1      28.273   7.891  48.599  1.00  0.00     0.037 A 
HETATM   12 CL1  UNL     1      29.778   8.599  48.030  1.00  0.00    -0.084 Cl
HETATM   13  C19 UNL     1      27.398   8.521  49.430  1.00  0.00     0.066 A 
HETATM   14  C20 UNL     1      26.228   8.013  49.891  1.00  0.00     0.128 A 
HETATM   15  F1  UNL     1      25.371   8.646  50.722  1.00  0.00    -0.205 F 
HETATM   16  H14 UNL     1      22.010   6.285  50.950  1.00  0.00     0.124 HD
ENDROOT
BRANCH   1  17
HETATM   17  C9  UNL     1      22.884   4.478  52.293  1.00  0.00     0.063 C 
BRANCH  17  18
HETATM   18  C8  UNL     1      23.431   3.126  52.602  1.00  0.00    -0.021 A 
HETATM   19  C2  UNL     1      22.693   1.983  52.358  1.00  0.00     0.074 A 
HETATM   20  C3  UNL     1      23.285   0.770  52.736  1.00  0.00     0.040 A 
HETATM   21  C4  UNL     1      24.543   0.762  53.323  1.00  0.00     0.039 A 
HETATM   22  C5  UNL     1      25.254   1.894  53.559  1.00  0.00     0.071 A 
HETATM   23  C7  UNL     1      24.689   3.113  53.188  1.00  0.00     0.046 A 
BRANCH  19  24
HETATM   24  O1  UNL     1      21.456   2.144  51.767  1.00  0.00    -0.355 OA
HETATM   25  C1  UNL     1      20.483   1.119  51.833  1.00  0.00     0.210 C 
ENDBRANCH  19  24
BRANCH  22  26
HETATM   26  O2  UNL     1      26.500   1.981  54.135  1.00  0.00    -0.322 OA
BRANCH  26  27
HETATM   27  C6  UNL     1      27.718   1.663  53.494  1.00  0.00     0.441 C 
BRANCH  27  28
HETATM   28  N1  UNL     1      28.594   2.825  53.409  1.00  0.00     0.101 N 
HETATM   29  H8  UNL     1      28.964   3.016  54.357  1.00  0.00     0.315 HD
HETATM   30  H9  UNL     1      28.065   3.635  53.033  1.00  0.00     0.315 HD
ENDBRANCH  27  28
ENDBRANCH  26  27
ENDBRANCH  22  26
ENDBRANCH  17  18
ENDBRANCH   1  17
TORSDOF 6
ENDMDL
MODEL 9
REMARK VINA RESULT:      -7.1      4.698      6.613
REMARK  6 active torsions:
REMARK  status: ('A' for Active; 'I' for Inactive)
REMARK    1  A    between atoms: O1_2  and  C2_3 
REMARK    2  A    between atoms: C5_6  and  O2_7 
REMARK    3  A    between atoms: O2_7  and  C6_8 
REMARK    4  A    between atoms: C6_8  and  N1_9 
REMARK    5  A    between atoms: C8_11  and  C9_12 
REMARK    6  A    between atoms: C9_12  and  C10_13 
ROOT
HETATM    1  C10 UNL     1      22.483   2.644  52.160  1.00  0.00     0.094 C 
HETATM    2  N2  UNL     1      22.569   1.829  50.825  1.00  0.00    -0.297 N 
HETATM    3  C11 UNL     1      21.413   2.431  50.114  1.00  0.00     0.167 A 
HETATM    4  N3  UNL     1      21.582   3.929  49.834  1.00  0.00    -0.254 NA
HETATM    5  C12 UNL     1      22.537   4.282  50.549  1.00  0.00     0.069 A 
HETATM    6  C13 UNL     1      21.615   3.483  51.254  1.00  0.00     0.091 A 
HETATM    7  C14 UNL     1      20.478   2.825  51.248  1.00  0.00    -0.005 A 
HETATM    8  C15 UNL     1      19.218   2.164  51.318  1.00  0.00     0.010 A 
HETATM    9  C16 UNL     1      18.248   3.128  51.510  1.00  0.00     0.016 A 
HETATM   10  C17 UNL     1      16.914   2.689  51.584  1.00  0.00     0.025 A 
HETATM   11  C18 UNL     1      16.692   1.348  51.456  1.00  0.00     0.037 A 
HETATM   12 CL1  UNL     1      15.007   0.855  51.551  1.00  0.00    -0.084 Cl
HETATM   13  C19 UNL     1      17.731   0.488  51.271  1.00  0.00     0.066 A 
HETATM   14  C20 UNL     1      19.041   0.826  51.189  1.00  0.00     0.128 A 
HETATM   15  F1  UNL     1      20.065  -0.038  51.012  1.00  0.00    -0.205 F 
HETATM   16  H14 UNL     1      23.434   2.248  50.426  1.00  0.00     0.124 HD
ENDROOT
BRANCH   1  17
HETATM   17  C9  UNL     1      23.756   3.066  52.675  1.00  0.00     0.063 C 
BRANCH  17  18
HETATM   18  C8  UNL     1      24.872   2.084  52.565  1.00  0.00    -0.021 A 
HETATM   19  C2  UNL     1      25.872   2.241  51.624  1.00  0.00     0.074 A 
HETATM   20  C3  UNL     1      26.841   1.230  51.575  1.00  0.00     0.040 A 
HETATM   21  C4  UNL     1      26.763   0.147  52.439  1.00  0.00     0.039 A 
HETATM   22  C5  UNL     1      25.773   0.007  53.357  1.00  0.00     0.071 A 
HETATM   23  C7  UNL     1      24.798   1.000  53.428  1.00  0.00     0.046 A 
BRANCH  19  24
HETATM   24  O1  UNL     1      25.822   3.370  50.831  1.00  0.00    -0.355 OA
HETATM   25  C1  UNL     1      26.596   3.461  49.651  1.00  0.00     0.210 C 
ENDBRANCH  19  24
BRANCH  22  26
HETATM   26  O2  UNL     1      25.615  -1.029  54.249  1.00  0.00    -0.322 OA
BRANCH  26  27
HETATM   27  C6  UNL     1      24.594  -1.118  55.221  1.00  0.00     0.441 C 
BRANCH  27  28
HETATM   28  N1  UNL     1      25.145  -1.344  56.552  1.00  0.00     0.101 N 
HETATM   29  H8  UNL     1      24.476  -0.958  57.243  1.00  0.00     0.315 HD
HETATM   30  H9  UNL     1      26.076  -0.891  56.627  1.00  0.00     0.315 HD
ENDBRANCH  27  28
ENDBRANCH  26  27
ENDBRANCH  22  26
ENDBRANCH  17  18
ENDBRANCH   1  17
TORSDOF 6
ENDMDL
