MODEL 1
REMARK VINA RESULT:      -7.7      0.000      0.000
REMARK  5 active torsions:
REMARK  status: ('A' for Active; 'I' for Inactive)
REMARK    1  A    between atoms: O1_1  and  C1_2 
REMARK    2  A    between atoms: C1_2  and  C2_3 
REMARK    3  A    between atoms: C6_7  and  N1_8 
REMARK    4  A    between atoms: N1_8  and  P1_9 
REMARK    5  A    between atoms: P1_9  and  C7_10 
ROOT
HETATM    1  P1  UNL     1      25.005   2.571  51.380  1.00  0.00    -0.005 P 
HETATM    2  H8  UNL     1      24.271   1.356  51.135  1.00  0.00     0.084 HD
ENDROOT
BRANCH   1   3
HETATM    3  N1  UNL     1      25.077   3.526  49.881  1.00  0.00    -0.364 N 
HETATM    4  H7  UNL     1      24.475   3.207  49.075  1.00  0.00     0.164 HD
BRANCH   3   5
HETATM    5  C6  UNL     1      25.681   4.654  49.283  1.00  0.00     0.032 A 
HETATM    6  C5  UNL     1      25.007   5.809  48.953  1.00  0.00     0.029 A 
HETATM    7  C4  UNL     1      25.720   6.835  48.376  1.00  0.00     0.003 A 
HETATM    8  C3  UNL     1      27.077   6.677  48.146  1.00  0.00     0.009 A 
HETATM    9  C2  UNL     1      27.780   5.543  48.460  1.00  0.00    -0.033 A 
HETATM   10  C15 UNL     1      27.051   4.515  49.042  1.00  0.00     0.038 A 
BRANCH   9  11
HETATM   11  C1  UNL     1      29.235   5.475  48.174  1.00  0.00     0.203 C 
BRANCH  11  12
HETATM   12  O1  UNL     1      29.950   5.764  49.327  1.00  0.00    -0.396 OA
HETATM   13  H1  UNL     1      29.379   6.147  50.045  1.00  0.00     0.209 HD
ENDBRANCH  11  12
ENDBRANCH   9  11
ENDBRANCH   3   5
ENDBRANCH   1   3
BRANCH   1  14
HETATM   14  C7  UNL     1      26.711   2.207  51.990  1.00  0.00     0.035 C 
HETATM   15  C8  UNL     1      26.737   0.995  52.522  1.00  0.00    -0.020 C 
HETATM   16  C9  UNL     1      25.602   0.034  52.638  1.00  0.00     0.048 C 
HETATM   17  C12 UNL     1      27.902   0.345  53.111  1.00  0.00     0.104 C 
HETATM   18  C10 UNL     1      26.358  -1.272  52.369  1.00  0.00     0.072 C 
HETATM   19  C11 UNL     1      27.662  -0.962  53.010  1.00  0.00     0.080 C 
HETATM   20  O3  UNL     1      28.599  -1.853  53.489  1.00  0.00    -0.350 OA
HETATM   21  C14 UNL     1      29.877  -1.488  53.928  1.00  0.00     0.202 C 
HETATM   22  C13 UNL     1      30.210  -0.044  53.635  1.00  0.00     0.202 C 
HETATM   23  O2  UNL     1      29.077   0.804  53.687  1.00  0.00    -0.346 OA
ENDBRANCH   1  14
TORSDOF 5
ENDMDL
MODEL 2
REMARK VINA RESULT:      -7.5      4.369      7.539
REMARK  5 active torsions:
REMARK  status: ('A' for Active; 'I' for Inactive)
REMARK    1  A    between atoms: O1_1  and  C1_2 
REMARK    2  A    between atoms: C1_2  and  C2_3 
REMARK    3  A    between atoms: C6_7  and  N1_8 
REMARK    4  A    between atoms: N1_8  and  P1_9 
REMARK    5  A    between atoms: P1_9  and  C7_10 
ROOT
HETATM    1  P1  UNL     1      25.099   2.440  51.768  1.00  0.00    -0.005 P 
HETATM    2  H8  UNL     1      25.199   1.915  50.431  1.00  0.00     0.084 HD
ENDROOT
BRANCH   1   3
HETATM    3  N1  UNL     1      26.639   2.175  52.620  1.00  0.00    -0.364 N 
HETATM    4  H7  UNL     1      27.078   3.008  53.095  1.00  0.00     0.164 HD
BRANCH   3   5
HETATM    5  C6  UNL     1      27.602   1.194  52.943  1.00  0.00     0.032 A 
HETATM    6  C5  UNL     1      28.853   1.474  53.448  1.00  0.00     0.029 A 
HETATM    7  C4  UNL     1      29.694   0.420  53.722  1.00  0.00     0.003 A 
HETATM    8  C3  UNL     1      29.263  -0.875  53.484  1.00  0.00     0.009 A 
HETATM    9  C2  UNL     1      28.028  -1.191  52.982  1.00  0.00    -0.033 A 
HETATM   10  C15 UNL     1      27.188  -0.120  52.709  1.00  0.00     0.038 A 
BRANCH   9  11
HETATM   11  C1  UNL     1      27.663  -2.613  52.764  1.00  0.00     0.203 C 
BRANCH  11  12
HETATM   12  O1  UNL     1      28.584  -3.433  53.402  1.00  0.00    -0.396 OA
HETATM   13  H1  UNL     1      29.464  -3.450  52.940  1.00  0.00     0.209 HD
ENDBRANCH  11  12
ENDBRANCH   9  11
ENDBRANCH   3   5
ENDBRANCH   1   3
BRANCH   1  14
HETATM   14  C7  UNL     1      23.712   1.643  52.694  1.00  0.00     0.035 C 
HETATM   15  C8  UNL     1      22.643   1.584  51.915  1.00  0.00    -0.020 C 
HETATM   16  C9  UNL     1      22.520   2.068  50.510  1.00  0.00     0.048 C 
HETATM   17  C12 UNL     1      21.347   1.024  52.283  1.00  0.00     0.104 C 
HETATM   18  C10 UNL     1      21.627   0.957  49.945  1.00  0.00     0.072 C 
HETATM   19  C11 UNL     1      20.780   0.668  51.131  1.00  0.00     0.080 C 
HETATM   20  O3  UNL     1      19.526   0.096  51.152  1.00  0.00    -0.350 OA
HETATM   21  C14 UNL     1      18.862  -0.298  52.319  1.00  0.00     0.202 C 
HETATM   22  C13 UNL     1      19.737  -0.226  53.547  1.00  0.00     0.202 C 
HETATM   23  O2  UNL     1      20.687   0.822  53.486  1.00  0.00    -0.346 OA
ENDBRANCH   1  14
TORSDOF 5
ENDMDL
MODEL 3
REMARK VINA RESULT:      -7.5      1.865      2.443
REMARK  5 active torsions:
REMARK  status: ('A' for Active; 'I' for Inactive)
REMARK    1  A    between atoms: O1_1  and  C1_2 
REMARK    2  A    between atoms: C1_2  and  C2_3 
REMARK    3  A    between atoms: C6_7  and  N1_8 
REMARK    4  A    between atoms: N1_8  and  P1_9 
REMARK    5  A    between atoms: P1_9  and  C7_10 
ROOT
HETATM    1  P1  UNL     1      25.027   3.252  50.205  1.00  0.00    -0.005 P 
HETATM    2  H8  UNL     1      24.476   2.369  49.209  1.00  0.00     0.084 HD
ENDROOT
BRANCH   1   3
HETATM    3  N1  UNL     1      25.306   4.853  49.480  1.00  0.00    -0.364 N 
HETATM    4  H7  UNL     1      24.465   5.367  49.106  1.00  0.00     0.164 HD
BRANCH   3   5
HETATM    5  C6  UNL     1      26.307   5.801  49.177  1.00  0.00     0.032 A 
HETATM    6  C5  UNL     1      27.434   5.527  48.433  1.00  0.00     0.029 A 
HETATM    7  C4  UNL     1      28.330   6.547  48.210  1.00  0.00     0.003 A 
HETATM    8  C3  UNL     1      28.076   7.804  48.736  1.00  0.00     0.009 A 
HETATM    9  C2  UNL     1      26.968   8.113  49.481  1.00  0.00    -0.033 A 
HETATM   10  C15 UNL     1      26.070   7.076  49.699  1.00  0.00     0.038 A 
BRANCH   9  11
HETATM   11  C1  UNL     1      26.789   9.493  49.997  1.00  0.00     0.203 C 
BRANCH  11  12
HETATM   12  O1  UNL     1      27.575   9.672  51.126  1.00  0.00    -0.396 OA
HETATM   13  H1  UNL     1      27.098  10.158  51.851  1.00  0.00     0.209 HD
ENDBRANCH  11  12
ENDBRANCH   9  11
ENDBRANCH   3   5
ENDBRANCH   1   3
BRANCH   1  14
HETATM   14  C7  UNL     1      26.603   2.578  50.894  1.00  0.00     0.035 C 
HETATM   15  C8  UNL     1      26.382   2.101  52.110  1.00  0.00    -0.020 C 
HETATM   16  C9  UNL     1      25.089   2.087  52.853  1.00  0.00     0.048 C 
HETATM   17  C12 UNL     1      27.377   1.485  52.981  1.00  0.00     0.104 C 
HETATM   18  C10 UNL     1      25.220   0.725  53.545  1.00  0.00     0.072 C 
HETATM   19  C11 UNL     1      26.684   0.695  53.799  1.00  0.00     0.080 C 
HETATM   20  O3  UNL     1      27.359  -0.035  54.754  1.00  0.00    -0.350 OA
HETATM   21  C14 UNL     1      28.753  -0.139  54.822  1.00  0.00     0.202 C 
HETATM   22  C13 UNL     1      29.448   0.460  53.623  1.00  0.00     0.202 C 
HETATM   23  O2  UNL     1      28.757   1.573  53.085  1.00  0.00    -0.346 OA
ENDBRANCH   1  14
TORSDOF 5
ENDMDL
MODEL 4
REMARK VINA RESULT:      -7.4      4.297      7.623
REMARK  5 active torsions:
REMARK  status: ('A' for Active; 'I' for Inactive)
REMARK    1  A    between atoms: O1_1  and  C1_2 
REMARK    2  A    between atoms: C1_2  and  C2_3 
REMARK    3  A    between atoms: C6_7  and  N1_8 
REMARK    4  A    between atoms: N1_8  and  P1_9 
REMARK    5  A    between atoms: P1_9  and  C7_10 
ROOT
HETATM    1  P1  UNL     1      25.796   3.087  50.930  1.00  0.00    -0.005 P 
HETATM    2  H8  UNL     1      26.573   2.912  49.730  1.00  0.00     0.084 HD
ENDROOT
BRANCH   1   3
HETATM    3  N1  UNL     1      26.731   2.497  52.325  1.00  0.00    -0.364 N 
HETATM    4  H7  UNL     1      26.763   3.114  53.181  1.00  0.00     0.164 HD
BRANCH   3   5
HETATM    5  C6  UNL     1      27.525   1.425  52.786  1.00  0.00     0.032 A 
HETATM    6  C5  UNL     1      28.706   1.578  53.479  1.00  0.00     0.029 A 
HETATM    7  C4  UNL     1      29.380   0.445  53.873  1.00  0.00     0.003 A 
HETATM    8  C3  UNL     1      28.857  -0.801  53.564  1.00  0.00     0.009 A 
HETATM    9  C2  UNL     1      27.687  -0.992  52.878  1.00  0.00    -0.033 A 
HETATM   10  C15 UNL     1      27.015   0.158  52.485  1.00  0.00     0.038 A 
BRANCH   9  11
HETATM   11  C1  UNL     1      27.213  -2.370  52.599  1.00  0.00     0.203 C 
BRANCH  11  12
HETATM   12  O1  UNL     1      28.243  -3.272  52.827  1.00  0.00    -0.396 OA
HETATM   13  H1  UNL     1      28.773  -3.048  53.638  1.00  0.00     0.209 HD
ENDBRANCH  11  12
ENDBRANCH   9  11
ENDBRANCH   3   5
ENDBRANCH   1   3
BRANCH   1  14
HETATM   14  C7  UNL     1      24.184   2.192  50.817  1.00  0.00     0.035 C 
HETATM   15  C8  UNL     1      23.283   2.816  51.559  1.00  0.00    -0.020 C 
HETATM   16  C9  UNL     1      23.482   4.047  52.378  1.00  0.00     0.048 C 
HETATM   17  C12 UNL     1      21.890   2.418  51.729  1.00  0.00     0.104 C 
HETATM   18  C10 UNL     1      22.130   4.726  52.133  1.00  0.00     0.072 C 
HETATM   19  C11 UNL     1      21.244   3.536  52.058  1.00  0.00     0.080 C 
HETATM   20  O3  UNL     1      19.885   3.480  52.287  1.00  0.00    -0.350 OA
HETATM   21  C14 UNL     1      19.092   2.355  52.033  1.00  0.00     0.202 C 
HETATM   22  C13 UNL     1      19.831   1.269  51.289  1.00  0.00     0.202 C 
HETATM   23  O2  UNL     1      21.208   1.215  51.617  1.00  0.00    -0.346 OA
ENDBRANCH   1  14
TORSDOF 5
ENDMDL
MODEL 5
REMARK VINA RESULT:      -7.1      4.749      7.667
REMARK  5 active torsions:
REMARK  status: ('A' for Active; 'I' for Inactive)
REMARK    1  A    between atoms: O1_1  and  C1_2 
REMARK    2  A    between atoms: C1_2  and  C2_3 
REMARK    3  A    between atoms: C6_7  and  N1_8 
REMARK    4  A    between atoms: N1_8  and  P1_9 
REMARK    5  A    between atoms: P1_9  and  C7_10 
ROOT
HETATM    1  P1  UNL     1      24.088   1.927  52.659  1.00  0.00    -0.005 P 
HETATM    2  H8  UNL     1      24.645   3.167  52.185  1.00  0.00     0.084 HD
ENDROOT
BRANCH   1   3
HETATM    3  N1  UNL     1      25.192   0.592  52.248  1.00  0.00    -0.364 N 
HETATM    4  H7  UNL     1      24.932  -0.013  51.424  1.00  0.00     0.164 HD
BRANCH   3   5
HETATM    5  C6  UNL     1      26.396  -0.040  52.626  1.00  0.00     0.032 A 
HETATM    6  C5  UNL     1      26.663  -1.377  52.429  1.00  0.00     0.029 A 
HETATM    7  C4  UNL     1      27.881  -1.864  52.844  1.00  0.00     0.003 A 
HETATM    8  C3  UNL     1      28.791  -1.006  53.440  1.00  0.00     0.009 A 
HETATM    9  C2  UNL     1      28.560   0.328  53.653  1.00  0.00    -0.033 A 
HETATM   10  C15 UNL     1      27.328   0.809  53.230  1.00  0.00     0.038 A 
BRANCH   9  11
HETATM   11  C1  UNL     1      29.603   1.162  54.300  1.00  0.00     0.203 C 
BRANCH  11  12
HETATM   12  O1  UNL     1      29.212   2.493  54.282  1.00  0.00    -0.396 OA
HETATM   13  H1  UNL     1      29.539   2.999  55.073  1.00  0.00     0.209 HD
ENDBRANCH  11  12
ENDBRANCH   9  11
ENDBRANCH   3   5
ENDBRANCH   1   3
BRANCH   1  14
HETATM   14  C7  UNL     1      22.419   1.624  51.927  1.00  0.00     0.035 C 
HETATM   15  C8  UNL     1      21.810   0.663  52.604  1.00  0.00    -0.020 C 
HETATM   16  C9  UNL     1      22.340  -0.090  53.777  1.00  0.00     0.048 C 
HETATM   17  C12 UNL     1      20.476   0.139  52.334  1.00  0.00     0.104 C 
HETATM   18  C10 UNL     1      21.047  -0.218  54.592  1.00  0.00     0.072 C 
HETATM   19  C11 UNL     1      20.055  -0.363  53.495  1.00  0.00     0.080 C 
HETATM   20  O3  UNL     1      18.805  -0.939  53.559  1.00  0.00    -0.350 OA
HETATM   21  C14 UNL     1      17.862  -0.888  52.526  1.00  0.00     0.202 C 
HETATM   22  C13 UNL     1      18.267   0.037  51.404  1.00  0.00     0.202 C 
HETATM   23  O2  UNL     1      19.669   0.084  51.207  1.00  0.00    -0.346 OA
ENDBRANCH   1  14
TORSDOF 5
ENDMDL
MODEL 6
REMARK VINA RESULT:      -7.1      2.762      3.834
REMARK  5 active torsions:
REMARK  status: ('A' for Active; 'I' for Inactive)
REMARK    1  A    between atoms: O1_1  and  C1_2 
REMARK    2  A    between atoms: C1_2  and  C2_3 
REMARK    3  A    between atoms: C6_7  and  N1_8 
REMARK    4  A    between atoms: N1_8  and  P1_9 
REMARK    5  A    between atoms: P1_9  and  C7_10 
ROOT
HETATM    1  P1  UNL     1      26.340   2.387  51.229  1.00  0.00    -0.005 P 
HETATM    2  H8  UNL     1      27.081   3.128  52.217  1.00  0.00     0.084 HD
ENDROOT
BRANCH   1   3
HETATM    3  N1  UNL     1      26.317   3.302  49.703  1.00  0.00    -0.364 N 
HETATM    4  H7  UNL     1      26.090   2.767  48.822  1.00  0.00     0.164 HD
BRANCH   3   5
HETATM    5  C6  UNL     1      26.500   4.588  49.149  1.00  0.00     0.032 A 
HETATM    6  C5  UNL     1      25.486   5.503  48.966  1.00  0.00     0.029 A 
HETATM    7  C4  UNL     1      25.805   6.724  48.416  1.00  0.00     0.003 A 
HETATM    8  C3  UNL     1      27.118   6.992  48.067  1.00  0.00     0.009 A 
HETATM    9  C2  UNL     1      28.151   6.107  48.234  1.00  0.00    -0.033 A 
HETATM   10  C15 UNL     1      27.819   4.879  48.790  1.00  0.00     0.038 A 
BRANCH   9  11
HETATM   11  C1  UNL     1      29.525   6.493  47.827  1.00  0.00     0.203 C 
BRANCH  11  12
HETATM   12  O1  UNL     1      30.222   6.963  48.931  1.00  0.00    -0.396 OA
HETATM   13  H1  UNL     1      31.108   7.346  48.690  1.00  0.00     0.209 HD
ENDBRANCH  11  12
ENDBRANCH   9  11
ENDBRANCH   3   5
ENDBRANCH   1   3
BRANCH   1  14
HETATM   14  C7  UNL     1      24.615   2.056  51.802  1.00  0.00     0.035 C 
HETATM   15  C8  UNL     1      24.584   0.908  52.460  1.00  0.00    -0.020 C 
HETATM   16  C9  UNL     1      25.727  -0.013  52.725  1.00  0.00     0.048 C 
HETATM   17  C12 UNL     1      23.405   0.301  53.068  1.00  0.00     0.104 C 
HETATM   18  C10 UNL     1      25.357  -0.462  54.144  1.00  0.00     0.072 C 
HETATM   19  C11 UNL     1      23.875  -0.483  54.038  1.00  0.00     0.080 C 
HETATM   20  O3  UNL     1      22.985  -1.202  54.806  1.00  0.00    -0.350 OA
HETATM   21  C14 UNL     1      21.595  -1.041  54.756  1.00  0.00     0.202 C 
HETATM   22  C13 UNL     1      21.169   0.144  53.923  1.00  0.00     0.202 C 
HETATM   23  O2  UNL     1      22.041   0.395  52.836  1.00  0.00    -0.346 OA
ENDBRANCH   1  14
TORSDOF 5
ENDMDL
MODEL 7
REMARK VINA RESULT:      -7.0      1.477      7.702
REMARK  5 active torsions:
REMARK  status: ('A' for Active; 'I' for Inactive)
REMARK    1  A    between atoms: O1_1  and  C1_2 
REMARK    2  A    between atoms: C1_2  and  C2_3 
REMARK    3  A    between atoms: C6_7  and  N1_8 
REMARK    4  A    between atoms: N1_8  and  P1_9 
REMARK    5  A    between atoms: P1_9  and  C7_10 
ROOT
HETATM    1  P1  UNL     1      25.216   3.077  50.524  1.00  0.00    -0.005 P 
HETATM    2  H8  UNL     1      24.418   4.120  51.114  1.00  0.00     0.084 HD
ENDROOT
BRANCH   1   3
HETATM    3  N1  UNL     1      25.543   1.825  51.746  1.00  0.00    -0.364 N 
HETATM    4  H7  UNL     1      24.713   1.419  52.255  1.00  0.00     0.164 HD
BRANCH   3   5
HETATM    5  C6  UNL     1      26.575   1.088  52.366  1.00  0.00     0.032 A 
HETATM    6  C5  UNL     1      27.608   1.652  53.082  1.00  0.00     0.029 A 
HETATM    7  C4  UNL     1      28.547   0.815  53.637  1.00  0.00     0.003 A 
HETATM    8  C3  UNL     1      28.429  -0.555  53.461  1.00  0.00     0.009 A 
HETATM    9  C2  UNL     1      27.417  -1.151  52.755  1.00  0.00    -0.033 A 
HETATM   10  C15 UNL     1      26.474  -0.297  52.200  1.00  0.00     0.038 A 
BRANCH   9  11
HETATM   11  C1  UNL     1      27.381  -2.629  52.626  1.00  0.00     0.203 C 
BRANCH  11  12
HETATM   12  O1  UNL     1      28.567  -3.167  53.105  1.00  0.00    -0.396 OA
HETATM   13  H1  UNL     1      29.028  -3.736  52.432  1.00  0.00     0.209 HD
ENDBRANCH  11  12
ENDBRANCH   9  11
ENDBRANCH   3   5
ENDBRANCH   1   3
BRANCH   1  14
HETATM   14  C7  UNL     1      26.803   3.748  49.856  1.00  0.00     0.035 C 
HETATM   15  C8  UNL     1      26.553   4.834  49.141  1.00  0.00    -0.020 C 
HETATM   16  C9  UNL     1      25.224   5.458  48.880  1.00  0.00     0.048 C 
HETATM   17  C12 UNL     1      27.545   5.651  48.451  1.00  0.00     0.104 C 
HETATM   18  C10 UNL     1      25.632   6.936  48.937  1.00  0.00     0.072 C 
HETATM   19  C11 UNL     1      26.993   6.859  48.346  1.00  0.00     0.080 C 
HETATM   20  O3  UNL     1      27.702   7.867  47.729  1.00  0.00    -0.350 OA
HETATM   21  C14 UNL     1      29.044   7.763  47.347  1.00  0.00     0.202 C 
HETATM   22  C13 UNL     1      29.707   6.507  47.861  1.00  0.00     0.202 C 
HETATM   23  O2  UNL     1      28.815   5.410  47.948  1.00  0.00    -0.346 OA
ENDBRANCH   1  14
TORSDOF 5
ENDMDL
MODEL 8
REMARK VINA RESULT:      -7.0      1.780      7.243
REMARK  5 active torsions:
REMARK  status: ('A' for Active; 'I' for Inactive)
REMARK    1  A    between atoms: O1_1  and  C1_2 
REMARK    2  A    between atoms: C1_2  and  C2_3 
REMARK    3  A    between atoms: C6_7  and  N1_8 
REMARK    4  A    between atoms: N1_8  and  P1_9 
REMARK    5  A    between atoms: P1_9  and  C7_10 
ROOT
HETATM    1  P1  UNL     1      24.723   3.154  50.607  1.00  0.00    -0.005 P 
HETATM    2  H8  UNL     1      24.185   4.215  51.419  1.00  0.00     0.084 HD
ENDROOT
BRANCH   1   3
HETATM    3  N1  UNL     1      24.724   1.641  51.544  1.00  0.00    -0.364 N 
HETATM    4  H7  UNL     1      24.058   0.882  51.238  1.00  0.00     0.164 HD
BRANCH   3   5
HETATM    5  C6  UNL     1      25.322   0.989  52.644  1.00  0.00     0.032 A 
HETATM    6  C5  UNL     1      24.693   0.037  53.416  1.00  0.00     0.029 A 
HETATM    7  C4  UNL     1      25.395  -0.521  54.460  1.00  0.00     0.003 A 
HETATM    8  C3  UNL     1      26.698  -0.114  54.700  1.00  0.00     0.009 A 
HETATM    9  C2  UNL     1      27.355   0.829  53.954  1.00  0.00    -0.033 A 
HETATM   10  C15 UNL     1      26.637   1.385  52.904  1.00  0.00     0.038 A 
BRANCH   9  11
HETATM   11  C1  UNL     1      28.753   1.194  54.295  1.00  0.00     0.203 C 
BRANCH  11  12
HETATM   12  O1  UNL     1      28.902   2.572  54.232  1.00  0.00    -0.396 OA
HETATM   13  H1  UNL     1      28.783   3.010  55.117  1.00  0.00     0.209 HD
ENDBRANCH  11  12
ENDBRANCH   9  11
ENDBRANCH   3   5
ENDBRANCH   1   3
BRANCH   1  14
HETATM   14  C7  UNL     1      26.434   3.553  50.036  1.00  0.00     0.035 C 
HETATM   15  C8  UNL     1      26.398   4.627  49.262  1.00  0.00    -0.020 C 
HETATM   16  C9  UNL     1      25.198   5.424  48.877  1.00  0.00     0.048 C 
HETATM   17  C12 UNL     1      27.546   5.255  48.618  1.00  0.00     0.104 C 
HETATM   18  C10 UNL     1      25.816   6.827  48.907  1.00  0.00     0.072 C 
HETATM   19  C11 UNL     1      27.188   6.524  48.424  1.00  0.00     0.080 C 
HETATM   20  O3  UNL     1      28.080   7.386  47.824  1.00  0.00    -0.350 OA
HETATM   21  C14 UNL     1      29.415   7.069  47.549  1.00  0.00     0.202 C 
HETATM   22  C13 UNL     1      29.847   5.758  48.161  1.00  0.00     0.202 C 
HETATM   23  O2  UNL     1      28.798   4.808  48.223  1.00  0.00    -0.346 OA
ENDBRANCH   1  14
TORSDOF 5
ENDMDL
MODEL 9
REMARK VINA RESULT:      -7.0      3.260      4.577
REMARK  5 active torsions:
REMARK  status: ('A' for Active; 'I' for Inactive)
REMARK    1  A    between atoms: O1_1  and  C1_2 
REMARK    2  A    between atoms: C1_2  and  C2_3 
REMARK    3  A    between atoms: C6_7  and  N1_8 
REMARK    4  A    between atoms: N1_8  and  P1_9 
REMARK    5  A    between atoms: P1_9  and  C7_10 
ROOT
HETATM    1  P1  UNL     1      26.409   1.805  51.552  1.00  0.00    -0.005 P 
HETATM    2  H8  UNL     1      27.024   2.416  52.702  1.00  0.00     0.084 HD
ENDROOT
BRANCH   1   3
HETATM    3  N1  UNL     1      26.597   2.879  50.145  1.00  0.00    -0.364 N 
HETATM    4  H7  UNL     1      26.959   2.447  49.253  1.00  0.00     0.164 HD
BRANCH   3   5
HETATM    5  C6  UNL     1      26.438   4.211  49.707  1.00  0.00     0.032 A 
HETATM    6  C5  UNL     1      27.276   4.835  48.808  1.00  0.00     0.029 A 
HETATM    7  C4  UNL     1      27.003   6.139  48.464  1.00  0.00     0.003 A 
HETATM    8  C3  UNL     1      25.909   6.778  49.025  1.00  0.00     0.009 A 
HETATM    9  C2  UNL     1      25.055   6.190  49.921  1.00  0.00    -0.033 A 
HETATM   10  C15 UNL     1      25.339   4.874  50.261  1.00  0.00     0.038 A 
BRANCH   9  11
HETATM   11  C1  UNL     1      23.909   6.962  50.463  1.00  0.00     0.203 C 
BRANCH  11  12
HETATM   12  O1  UNL     1      24.340   7.757  51.516  1.00  0.00    -0.396 OA
HETATM   13  H1  UNL     1      25.311   7.650  51.702  1.00  0.00     0.209 HD
ENDBRANCH  11  12
ENDBRANCH   9  11
ENDBRANCH   3   5
ENDBRANCH   1   3
BRANCH   1  14
HETATM   14  C7  UNL     1      24.620   1.460  51.858  1.00  0.00     0.035 C 
HETATM   15  C8  UNL     1      24.505   0.399  52.642  1.00  0.00    -0.020 C 
HETATM   16  C9  UNL     1      25.609  -0.424  53.214  1.00  0.00     0.048 C 
HETATM   17  C12 UNL     1      23.255  -0.187  53.112  1.00  0.00     0.104 C 
HETATM   18  C10 UNL     1      25.007  -0.717  54.594  1.00  0.00     0.072 C 
HETATM   19  C11 UNL     1      23.568  -0.825  54.239  1.00  0.00     0.080 C 
HETATM   20  O3  UNL     1      22.577  -1.489  54.928  1.00  0.00    -0.350 OA
HETATM   21  C14 UNL     1      21.214  -1.404  54.621  1.00  0.00     0.202 C 
HETATM   22  C13 UNL     1      20.909  -0.350  53.584  1.00  0.00     0.202 C 
HETATM   23  O2  UNL     1      21.951  -0.189  52.638  1.00  0.00    -0.346 OA
ENDBRANCH   1  14
TORSDOF 5
ENDMDL
