MODEL 1
REMARK VINA RESULT:      -8.0      0.000      0.000
REMARK  5 active torsions:
REMARK  status: ('A' for Active; 'I' for Inactive)
REMARK    1  A    between atoms: O1_2  and  C2_3 
REMARK       I    between atoms: C2_3  and  N1_5 
REMARK    2  A    between atoms: N1_5  and  C3_6 
REMARK    3  A    between atoms: C6_9  and  C7_10 
REMARK    4  A    between atoms: C11_16  and  O3_17 
REMARK    5  A    between atoms: C13_19  and  O4_20 
ROOT
HETATM    1  C7  UNL     1      23.889  -0.069  53.703  1.00  0.00     0.082 A 
HETATM    2  N2  UNL     1      24.570  -0.672  54.724  1.00  0.00    -0.240 NA
HETATM    3  C8  UNL     1      23.992  -1.487  55.614  1.00  0.00     0.234 A 
HETATM    4  N3  UNL     1      22.664  -1.742  55.516  1.00  0.00    -0.241 NA
HETATM    5  C9  UNL     1      21.924  -1.187  54.540  1.00  0.00     0.073 A 
HETATM    6  C10 UNL     1      20.568  -1.380  54.368  1.00  0.00     0.072 A 
HETATM    7  C11 UNL     1      19.907  -0.745  53.328  1.00  0.00     0.103 A 
HETATM    8  C13 UNL     1      20.541   0.096  52.425  1.00  0.00     0.102 A 
HETATM    9  C15 UNL     1      21.896   0.286  52.601  1.00  0.00     0.055 A 
HETATM   10  C16 UNL     1      22.543  -0.351  53.637  1.00  0.00     0.025 A 
ENDROOT
BRANCH   1  11
HETATM   11  C6  UNL     1      24.725   0.769  52.872  1.00  0.00     0.011 A 
HETATM   12  C5  UNL     1      25.849   0.472  52.130  1.00  0.00     0.019 A 
HETATM   13  C4  UNL     1      26.487   1.433  51.378  1.00  0.00     0.051 A 
HETATM   14  C3  UNL     1      26.060   2.726  51.316  1.00  0.00     0.131 A 
HETATM   15  N4  UNL     1      24.980   3.008  52.031  1.00  0.00    -0.242 NA
HETATM   16  C17 UNL     1      24.319   2.106  52.782  1.00  0.00     0.132 A 
BRANCH  14  17
HETATM   17  N1  UNL     1      26.796   3.631  50.508  1.00  0.00    -0.287 N 
HETATM   18  C2  UNL     1      26.365   4.437  49.421  1.00  0.00     0.365 C 
HETATM   19  O2  UNL     1      25.151   4.426  49.023  1.00  0.00    -0.238 OA
HETATM   20  H4  UNL     1      27.800   3.629  50.851  1.00  0.00     0.172 HD
BRANCH  18  21
HETATM   21  O1  UNL     1      27.357   5.215  48.848  1.00  0.00    -0.309 OA
HETATM   22  C1  UNL     1      27.140   6.577  48.578  1.00  0.00     0.215 C 
ENDBRANCH  18  21
ENDBRANCH  14  17
ENDBRANCH   1  11
BRANCH   8  23
HETATM   23  O4  UNL     1      19.756   0.652  51.451  1.00  0.00    -0.353 OA
HETATM   24  C14 UNL     1      19.316   1.976  51.440  1.00  0.00     0.210 C 
ENDBRANCH   8  23
BRANCH   7  25
HETATM   25  O3  UNL     1      18.545  -0.991  53.222  1.00  0.00    -0.353 OA
HETATM   26  C12 UNL     1      18.025  -2.239  53.635  1.00  0.00     0.210 C 
ENDBRANCH   7  25
TORSDOF 5
ENDMDL
MODEL 2
REMARK VINA RESULT:      -7.8      3.635      5.357
REMARK  5 active torsions:
REMARK  status: ('A' for Active; 'I' for Inactive)
REMARK    1  A    between atoms: O1_2  and  C2_3 
REMARK       I    between atoms: C2_3  and  N1_5 
REMARK    2  A    between atoms: N1_5  and  C3_6 
REMARK    3  A    between atoms: C6_9  and  C7_10 
REMARK    4  A    between atoms: C11_16  and  O3_17 
REMARK    5  A    between atoms: C13_19  and  O4_20 
ROOT
HETATM    1  C7  UNL     1      24.646   2.680  50.802  1.00  0.00     0.082 A 
HETATM    2  N2  UNL     1      23.441   2.484  50.187  1.00  0.00    -0.240 NA
HETATM    3  C8  UNL     1      22.545   1.578  50.595  1.00  0.00     0.234 A 
HETATM    4  N3  UNL     1      22.827   0.804  51.672  1.00  0.00    -0.241 NA
HETATM    5  C9  UNL     1      23.991   0.934  52.331  1.00  0.00     0.073 A 
HETATM    6  C10 UNL     1      24.368   0.186  53.428  1.00  0.00     0.072 A 
HETATM    7  C11 UNL     1      25.602   0.404  54.021  1.00  0.00     0.103 A 
HETATM    8  C13 UNL     1      26.507   1.353  53.568  1.00  0.00     0.102 A 
HETATM    9  C15 UNL     1      26.126   2.098  52.471  1.00  0.00     0.055 A 
HETATM   10  C16 UNL     1      24.897   1.875  51.891  1.00  0.00     0.025 A 
ENDROOT
BRANCH   1  11
HETATM   11  C6  UNL     1      25.447   3.711  50.180  1.00  0.00     0.011 A 
HETATM   12  C5  UNL     1      26.599   3.630  49.427  1.00  0.00     0.019 A 
HETATM   13  C4  UNL     1      27.194   4.756  48.901  1.00  0.00     0.051 A 
HETATM   14  C3  UNL     1      26.693   6.010  49.086  1.00  0.00     0.131 A 
HETATM   15  N4  UNL     1      25.585   6.085  49.811  1.00  0.00    -0.242 NA
HETATM   16  C17 UNL     1      24.965   5.016  50.347  1.00  0.00     0.132 A 
BRANCH  14  17
HETATM   17  N1  UNL     1      27.389   7.097  48.497  1.00  0.00    -0.287 N 
HETATM   18  C2  UNL     1      27.652   8.394  49.012  1.00  0.00     0.365 C 
HETATM   19  O2  UNL     1      27.247   8.746  50.172  1.00  0.00    -0.238 OA
HETATM   20  H4  UNL     1      27.719   6.788  47.537  1.00  0.00     0.172 HD
BRANCH  18  21
HETATM   21  O1  UNL     1      28.370   9.220  48.162  1.00  0.00    -0.309 OA
HETATM   22  C1  UNL     1      29.051  10.345  48.656  1.00  0.00     0.215 C 
ENDBRANCH  18  21
ENDBRANCH  14  17
ENDBRANCH   1  11
BRANCH   8  23
HETATM   23  O4  UNL     1      27.686   1.452  54.256  1.00  0.00    -0.353 OA
HETATM   24  C14 UNL     1      28.927   1.028  53.778  1.00  0.00     0.210 C 
ENDBRANCH   8  23
BRANCH   7  25
HETATM   25  O3  UNL     1      25.906  -0.388  55.119  1.00  0.00    -0.353 OA
HETATM   26  C12 UNL     1      24.889  -1.156  55.733  1.00  0.00     0.210 C 
ENDBRANCH   7  25
TORSDOF 5
ENDMDL
MODEL 3
REMARK VINA RESULT:      -7.7      4.208      6.259
REMARK  5 active torsions:
REMARK  status: ('A' for Active; 'I' for Inactive)
REMARK    1  A    between atoms: O1_2  and  C2_3 
REMARK       I    between atoms: C2_3  and  N1_5 
REMARK    2  A    between atoms: N1_5  and  C3_6 
REMARK    3  A    between atoms: C6_9  and  C7_10 
REMARK    4  A    between atoms: C11_16  and  O3_17 
REMARK    5  A    between atoms: C13_19  and  O4_20 
ROOT
HETATM    1  C7  UNL     1      25.203   3.568  50.104  1.00  0.00     0.082 A 
HETATM    2  N2  UNL     1      23.924   3.586  49.622  1.00  0.00    -0.240 NA
HETATM    3  C8  UNL     1      22.982   2.714  50.001  1.00  0.00     0.234 A 
HETATM    4  N3  UNL     1      23.291   1.756  50.909  1.00  0.00    -0.241 NA
HETATM    5  C9  UNL     1      24.527   1.671  51.430  1.00  0.00     0.073 A 
HETATM    6  C10 UNL     1      24.934   0.727  52.350  1.00  0.00     0.072 A 
HETATM    7  C11 UNL     1      26.243   0.731  52.811  1.00  0.00     0.103 A 
HETATM    8  C13 UNL     1      27.193   1.650  52.392  1.00  0.00     0.102 A 
HETATM    9  C15 UNL     1      26.781   2.593  51.473  1.00  0.00     0.055 A 
HETATM   10  C16 UNL     1      25.479   2.580  51.023  1.00  0.00     0.025 A 
ENDROOT
BRANCH   1  11
HETATM   11  C6  UNL     1      26.041   4.605  49.545  1.00  0.00     0.011 A 
HETATM   12  C5  UNL     1      27.223   4.529  48.838  1.00  0.00     0.019 A 
HETATM   13  C4  UNL     1      27.853   5.661  48.369  1.00  0.00     0.051 A 
HETATM   14  C3  UNL     1      27.360   6.917  48.568  1.00  0.00     0.131 A 
HETATM   15  N4  UNL     1      26.224   6.986  49.248  1.00  0.00    -0.242 NA
HETATM   16  C17 UNL     1      25.569   5.911  49.728  1.00  0.00     0.132 A 
BRANCH  14  17
HETATM   17  N1  UNL     1      28.094   8.009  48.040  1.00  0.00    -0.287 N 
HETATM   18  C2  UNL     1      28.602   9.164  48.693  1.00  0.00     0.365 C 
HETATM   19  O2  UNL     1      28.431   9.352  49.945  1.00  0.00    -0.238 OA
HETATM   20  H4  UNL     1      28.227   7.838  47.001  1.00  0.00     0.172 HD
BRANCH  18  21
HETATM   21  O1  UNL     1      29.282  10.044  47.867  1.00  0.00    -0.309 OA
HETATM   22  C1  UNL     1      30.047  11.093  48.405  1.00  0.00     0.215 C 
ENDBRANCH  18  21
ENDBRANCH  14  17
ENDBRANCH   1  11
BRANCH   8  23
HETATM   23  O4  UNL     1      28.444   1.528  52.935  1.00  0.00    -0.353 OA
HETATM   24  C14 UNL     1      28.987   2.389  53.888  1.00  0.00     0.210 C 
ENDBRANCH   8  23
BRANCH   7  25
HETATM   25  O3  UNL     1      26.574  -0.250  53.734  1.00  0.00    -0.353 OA
HETATM   26  C12 UNL     1      26.181  -0.104  55.084  1.00  0.00     0.210 C 
ENDBRANCH   7  25
TORSDOF 5
ENDMDL
MODEL 4
REMARK VINA RESULT:      -7.7      3.553      7.140
REMARK  5 active torsions:
REMARK  status: ('A' for Active; 'I' for Inactive)
REMARK    1  A    between atoms: O1_2  and  C2_3 
REMARK       I    between atoms: C2_3  and  N1_5 
REMARK    2  A    between atoms: N1_5  and  C3_6 
REMARK    3  A    between atoms: C6_9  and  C7_10 
REMARK    4  A    between atoms: C11_16  and  O3_17 
REMARK    5  A    between atoms: C13_19  and  O4_20 
ROOT
HETATM    1  C7  UNL     1      24.372   2.131  51.444  1.00  0.00     0.082 A 
HETATM    2  N2  UNL     1      24.838   3.023  50.519  1.00  0.00    -0.240 NA
HETATM    3  C8  UNL     1      26.138   3.277  50.330  1.00  0.00     0.234 A 
HETATM    4  N3  UNL     1      27.058   2.626  51.085  1.00  0.00    -0.241 NA
HETATM    5  C9  UNL     1      26.681   1.734  52.016  1.00  0.00     0.073 A 
HETATM    6  C10 UNL     1      27.542   1.033  52.835  1.00  0.00     0.072 A 
HETATM    7  C11 UNL     1      27.035   0.142  53.770  1.00  0.00     0.103 A 
HETATM    8  C13 UNL     1      25.678  -0.093  53.939  1.00  0.00     0.102 A 
HETATM    9  C15 UNL     1      24.821   0.610  53.117  1.00  0.00     0.055 A 
HETATM   10  C16 UNL     1      25.336   1.491  52.192  1.00  0.00     0.025 A 
ENDROOT
BRANCH   1  11
HETATM   11  C6  UNL     1      22.930   2.029  51.467  1.00  0.00     0.011 A 
HETATM   12  C5  UNL     1      22.082   1.092  50.914  1.00  0.00     0.019 A 
HETATM   13  C4  UNL     1      20.717   1.173  51.081  1.00  0.00     0.051 A 
HETATM   14  C3  UNL     1      20.118   2.169  51.794  1.00  0.00     0.131 A 
HETATM   15  N4  UNL     1      20.936   3.067  52.323  1.00  0.00    -0.242 NA
HETATM   16  C17 UNL     1      22.276   3.034  52.190  1.00  0.00     0.132 A 
BRANCH  14  17
HETATM   17  N1  UNL     1      18.703   2.151  51.899  1.00  0.00    -0.287 N 
HETATM   18  C2  UNL     1      17.748   3.115  51.480  1.00  0.00     0.365 C 
HETATM   19  O2  UNL     1      18.103   4.202  50.910  1.00  0.00    -0.238 OA
HETATM   20  H4  UNL     1      18.425   1.244  52.374  1.00  0.00     0.172 HD
BRANCH  18  21
HETATM   21  O1  UNL     1      16.431   2.776  51.741  1.00  0.00    -0.309 OA
HETATM   22  C1  UNL     1      15.556   3.694  52.347  1.00  0.00     0.215 C 
ENDBRANCH  18  21
ENDBRANCH  14  17
ENDBRANCH   1  11
BRANCH   8  23
HETATM   23  O4  UNL     1      25.329  -0.999  54.903  1.00  0.00    -0.353 OA
HETATM   24  C14 UNL     1      24.021  -1.275  55.303  1.00  0.00     0.210 C 
ENDBRANCH   8  23
BRANCH   7  25
HETATM   25  O3  UNL     1      27.966  -0.523  54.555  1.00  0.00    -0.353 OA
HETATM   26  C12 UNL     1      29.328  -0.527  54.175  1.00  0.00     0.210 C 
ENDBRANCH   7  25
TORSDOF 5
ENDMDL
MODEL 5
REMARK VINA RESULT:      -7.6      3.330      7.435
REMARK  5 active torsions:
REMARK  status: ('A' for Active; 'I' for Inactive)
REMARK    1  A    between atoms: O1_2  and  C2_3 
REMARK       I    between atoms: C2_3  and  N1_5 
REMARK    2  A    between atoms: N1_5  and  C3_6 
REMARK    3  A    between atoms: C6_9  and  C7_10 
REMARK    4  A    between atoms: C11_16  and  O3_17 
REMARK    5  A    between atoms: C13_19  and  O4_20 
ROOT
HETATM    1  C7  UNL     1      24.254   1.928  51.524  1.00  0.00     0.082 A 
HETATM    2  N2  UNL     1      24.631   2.847  50.585  1.00  0.00    -0.240 NA
HETATM    3  C8  UNL     1      25.907   3.162  50.332  1.00  0.00     0.234 A 
HETATM    4  N3  UNL     1      26.893   2.548  51.033  1.00  0.00    -0.241 NA
HETATM    5  C9  UNL     1      26.605   1.633  51.973  1.00  0.00     0.073 A 
HETATM    6  C10 UNL     1      27.538   0.966  52.740  1.00  0.00     0.072 A 
HETATM    7  C11 UNL     1      27.121   0.046  53.691  1.00  0.00     0.103 A 
HETATM    8  C13 UNL     1      25.787  -0.252  53.926  1.00  0.00     0.102 A 
HETATM    9  C15 UNL     1      24.857   0.417  53.157  1.00  0.00     0.055 A 
HETATM   10  C16 UNL     1      25.283   1.327  52.215  1.00  0.00     0.025 A 
ENDROOT
BRANCH   1  11
HETATM   11  C6  UNL     1      22.821   1.759  51.619  1.00  0.00     0.011 A 
HETATM   12  C5  UNL     1      21.922   2.186  52.573  1.00  0.00     0.019 A 
HETATM   13  C4  UNL     1      20.574   1.933  52.453  1.00  0.00     0.051 A 
HETATM   14  C3  UNL     1      20.041   1.252  51.399  1.00  0.00     0.131 A 
HETATM   15  N4  UNL     1      20.908   0.843  50.483  1.00  0.00    -0.242 NA
HETATM   16  C17 UNL     1      22.235   1.064  50.553  1.00  0.00     0.132 A 
BRANCH  14  17
HETATM   17  N1  UNL     1      18.637   1.050  51.380  1.00  0.00    -0.287 N 
HETATM   18  C2  UNL     1      17.859   0.018  51.971  1.00  0.00     0.365 C 
HETATM   19  O2  UNL     1      18.401  -0.923  52.645  1.00  0.00    -0.238 OA
HETATM   20  H4  UNL     1      18.203   1.839  50.818  1.00  0.00     0.172 HD
BRANCH  18  21
HETATM   21  O1  UNL     1      16.495   0.126  51.754  1.00  0.00    -0.309 OA
HETATM   22  C1  UNL     1      15.871   1.383  51.698  1.00  0.00     0.215 C 
ENDBRANCH  18  21
ENDBRANCH  14  17
ENDBRANCH   1  11
BRANCH   8  23
HETATM   23  O4  UNL     1      25.529  -1.181  54.898  1.00  0.00    -0.353 OA
HETATM   24  C14 UNL     1      24.338  -1.273  55.618  1.00  0.00     0.210 C 
ENDBRANCH   8  23
BRANCH   7  25
HETATM   25  O3  UNL     1      28.120  -0.582  54.421  1.00  0.00    -0.353 OA
HETATM   26  C12 UNL     1      29.424  -0.683  53.881  1.00  0.00     0.210 C 
ENDBRANCH   7  25
TORSDOF 5
ENDMDL
MODEL 6
REMARK VINA RESULT:      -7.5      2.864      6.757
REMARK  5 active torsions:
REMARK  status: ('A' for Active; 'I' for Inactive)
REMARK    1  A    between atoms: O1_2  and  C2_3 
REMARK       I    between atoms: C2_3  and  N1_5 
REMARK    2  A    between atoms: N1_5  and  C3_6 
REMARK    3  A    between atoms: C6_9  and  C7_10 
REMARK    4  A    between atoms: C11_16  and  O3_17 
REMARK    5  A    between atoms: C13_19  and  O4_20 
ROOT
HETATM    1  C7  UNL     1      23.241  -0.215  53.726  1.00  0.00     0.082 A 
HETATM    2  N2  UNL     1      22.896  -1.012  54.782  1.00  0.00    -0.240 NA
HETATM    3  C8  UNL     1      23.785  -1.509  55.650  1.00  0.00     0.234 A 
HETATM    4  N3  UNL     1      25.100  -1.218  55.494  1.00  0.00    -0.241 NA
HETATM    5  C9  UNL     1      25.520  -0.440  54.481  1.00  0.00     0.073 A 
HETATM    6  C10 UNL     1      26.835  -0.099  54.238  1.00  0.00     0.072 A 
HETATM    7  C11 UNL     1      27.150   0.704  53.152  1.00  0.00     0.103 A 
HETATM    8  C13 UNL     1      26.200   1.198  52.270  1.00  0.00     0.102 A 
HETATM    9  C15 UNL     1      24.887   0.855  52.518  1.00  0.00     0.055 A 
HETATM   10  C16 UNL     1      24.585   0.058  53.600  1.00  0.00     0.025 A 
ENDROOT
BRANCH   1  11
HETATM   11  C6  UNL     1      22.110   0.197  52.925  1.00  0.00     0.011 A 
HETATM   12  C5  UNL     1      21.923   0.199  51.558  1.00  0.00     0.019 A 
HETATM   13  C4  UNL     1      20.737   0.617  50.997  1.00  0.00     0.051 A 
HETATM   14  C3  UNL     1      19.681   1.053  51.741  1.00  0.00     0.131 A 
HETATM   15  N4  UNL     1      19.863   1.049  53.054  1.00  0.00    -0.242 NA
HETATM   16  C17 UNL     1      21.002   0.650  53.652  1.00  0.00     0.132 A 
BRANCH  14  17
HETATM   17  N1  UNL     1      18.508   1.460  51.054  1.00  0.00    -0.287 N 
HETATM   18  C2  UNL     1      17.789   2.683  51.129  1.00  0.00     0.365 C 
HETATM   19  O2  UNL     1      18.164   3.631  51.898  1.00  0.00    -0.238 OA
HETATM   20  H4  UNL     1      18.210   0.663  50.420  1.00  0.00     0.172 HD
BRANCH  18  21
HETATM   21  O1  UNL     1      16.673   2.749  50.311  1.00  0.00    -0.309 OA
HETATM   22  C1  UNL     1      15.413   2.333  50.775  1.00  0.00     0.215 C 
ENDBRANCH  18  21
ENDBRANCH  14  17
ENDBRANCH   1  11
BRANCH   8  23
HETATM   23  O4  UNL     1      26.664   1.977  51.245  1.00  0.00    -0.353 OA
HETATM   24  C14 UNL     1      26.022   3.115  50.755  1.00  0.00     0.210 C 
ENDBRANCH   8  23
BRANCH   7  25
HETATM   25  O3  UNL     1      28.494   1.001  52.976  1.00  0.00    -0.353 OA
HETATM   26  C12 UNL     1      29.469   0.313  53.734  1.00  0.00     0.210 C 
ENDBRANCH   7  25
TORSDOF 5
ENDMDL
MODEL 7
REMARK VINA RESULT:      -7.4      3.720      5.601
REMARK  5 active torsions:
REMARK  status: ('A' for Active; 'I' for Inactive)
REMARK    1  A    between atoms: O1_2  and  C2_3 
REMARK       I    between atoms: C2_3  and  N1_5 
REMARK    2  A    between atoms: N1_5  and  C3_6 
REMARK    3  A    between atoms: C6_9  and  C7_10 
REMARK    4  A    between atoms: C11_16  and  O3_17 
REMARK    5  A    between atoms: C13_19  and  O4_20 
ROOT
HETATM    1  C7  UNL     1      23.111   1.698  52.406  1.00  0.00     0.082 A 
HETATM    2  N2  UNL     1      22.069   0.836  52.204  1.00  0.00    -0.240 NA
HETATM    3  C8  UNL     1      22.069  -0.432  52.630  1.00  0.00     0.234 A 
HETATM    4  N3  UNL     1      23.148  -0.908  53.299  1.00  0.00    -0.241 NA
HETATM    5  C9  UNL     1      24.213  -0.124  53.538  1.00  0.00     0.073 A 
HETATM    6  C10 UNL     1      25.356  -0.523  54.200  1.00  0.00     0.072 A 
HETATM    7  C11 UNL     1      26.399   0.374  54.379  1.00  0.00     0.103 A 
HETATM    8  C13 UNL     1      26.364   1.683  53.920  1.00  0.00     0.102 A 
HETATM    9  C15 UNL     1      25.219   2.077  53.259  1.00  0.00     0.055 A 
HETATM   10  C16 UNL     1      24.189   1.178  53.088  1.00  0.00     0.025 A 
ENDROOT
BRANCH   1  11
HETATM   11  C6  UNL     1      22.883   3.014  51.852  1.00  0.00     0.011 A 
HETATM   12  C5  UNL     1      22.325   4.145  52.410  1.00  0.00     0.019 A 
HETATM   13  C4  UNL     1      22.226   5.321  51.701  1.00  0.00     0.051 A 
HETATM   14  C3  UNL     1      22.665   5.448  50.416  1.00  0.00     0.131 A 
HETATM   15  N4  UNL     1      23.200   4.359  49.882  1.00  0.00    -0.242 NA
HETATM   16  C17 UNL     1      23.321   3.185  50.533  1.00  0.00     0.132 A 
BRANCH  14  17
HETATM   17  N1  UNL     1      22.510   6.708  49.783  1.00  0.00    -0.287 N 
HETATM   18  C2  UNL     1      23.153   7.946  50.053  1.00  0.00     0.365 C 
HETATM   19  O2  UNL     1      24.019   8.058  50.986  1.00  0.00    -0.238 OA
HETATM   20  H4  UNL     1      21.790   6.598  49.012  1.00  0.00     0.172 HD
BRANCH  18  21
HETATM   21  O1  UNL     1      22.763   8.992  49.233  1.00  0.00    -0.309 OA
HETATM   22  C1  UNL     1      21.413   9.372  49.142  1.00  0.00     0.215 C 
ENDBRANCH  18  21
ENDBRANCH  14  17
ENDBRANCH   1  11
BRANCH   8  23
HETATM   23  O4  UNL     1      27.470   2.449  54.171  1.00  0.00    -0.353 OA
HETATM   24  C14 UNL     1      28.541   2.616  53.293  1.00  0.00     0.210 C 
ENDBRANCH   8  23
BRANCH   7  25
HETATM   25  O3  UNL     1      27.513  -0.103  55.055  1.00  0.00    -0.353 OA
HETATM   26  C12 UNL     1      28.603  -0.631  54.325  1.00  0.00     0.210 C 
ENDBRANCH   7  25
TORSDOF 5
ENDMDL
MODEL 8
REMARK VINA RESULT:      -7.3      4.441      7.047
REMARK  5 active torsions:
REMARK  status: ('A' for Active; 'I' for Inactive)
REMARK    1  A    between atoms: O1_2  and  C2_3 
REMARK       I    between atoms: C2_3  and  N1_5 
REMARK    2  A    between atoms: N1_5  and  C3_6 
REMARK    3  A    between atoms: C6_9  and  C7_10 
REMARK    4  A    between atoms: C11_16  and  O3_17 
REMARK    5  A    between atoms: C13_19  and  O4_20 
ROOT
HETATM    1  C7  UNL     1      23.188   3.640  51.781  1.00  0.00     0.082 A 
HETATM    2  N2  UNL     1      22.037   2.955  52.053  1.00  0.00    -0.240 NA
HETATM    3  C8  UNL     1      20.814   3.473  51.886  1.00  0.00     0.234 A 
HETATM    4  N3  UNL     1      20.689   4.742  51.423  1.00  0.00    -0.241 NA
HETATM    5  C9  UNL     1      21.773   5.481  51.132  1.00  0.00     0.073 A 
HETATM    6  C10 UNL     1      21.743   6.780  50.666  1.00  0.00     0.072 A 
HETATM    7  C11 UNL     1      22.931   7.448  50.409  1.00  0.00     0.103 A 
HETATM    8  C13 UNL     1      24.181   6.878  50.598  1.00  0.00     0.102 A 
HETATM    9  C15 UNL     1      24.206   5.579  51.063  1.00  0.00     0.055 A 
HETATM   10  C16 UNL     1      23.021   4.924  51.313  1.00  0.00     0.025 A 
ENDROOT
BRANCH   1  11
HETATM   11  C6  UNL     1      24.387   2.874  52.043  1.00  0.00     0.011 A 
HETATM   12  C5  UNL     1      25.279   2.269  51.182  1.00  0.00     0.019 A 
HETATM   13  C4  UNL     1      26.387   1.599  51.652  1.00  0.00     0.051 A 
HETATM   14  C3  UNL     1      26.676   1.489  52.980  1.00  0.00     0.131 A 
HETATM   15  N4  UNL     1      25.816   2.072  53.804  1.00  0.00    -0.242 NA
HETATM   16  C17 UNL     1      24.718   2.738  53.397  1.00  0.00     0.132 A 
BRANCH  14  17
HETATM   17  N1  UNL     1      27.845   0.776  53.348  1.00  0.00    -0.287 N 
HETATM   18  C2  UNL     1      29.022   1.233  53.999  1.00  0.00     0.365 C 
HETATM   19  O2  UNL     1      29.157   2.454  54.353  1.00  0.00    -0.238 OA
HETATM   20  H4  UNL     1      27.717  -0.234  53.049  1.00  0.00     0.172 HD
BRANCH  18  21
HETATM   21  O1  UNL     1      29.983   0.259  54.210  1.00  0.00    -0.309 OA
HETATM   22  C1  UNL     1      29.849  -1.021  53.645  1.00  0.00     0.215 C 
ENDBRANCH  18  21
ENDBRANCH  14  17
ENDBRANCH   1  11
BRANCH   8  23
HETATM   23  O4  UNL     1      25.263   7.662  50.302  1.00  0.00    -0.353 OA
HETATM   24  C14 UNL     1      26.239   7.351  49.356  1.00  0.00     0.210 C 
ENDBRANCH   8  23
BRANCH   7  25
HETATM   25  O3  UNL     1      22.816   8.750  49.943  1.00  0.00    -0.353 OA
HETATM   26  C12 UNL     1      22.411   8.984  48.609  1.00  0.00     0.210 C 
ENDBRANCH   7  25
TORSDOF 5
ENDMDL
MODEL 9
REMARK VINA RESULT:      -7.3      3.190      5.195
REMARK  5 active torsions:
REMARK  status: ('A' for Active; 'I' for Inactive)
REMARK    1  A    between atoms: O1_2  and  C2_3 
REMARK       I    between atoms: C2_3  and  N1_5 
REMARK    2  A    between atoms: N1_5  and  C3_6 
REMARK    3  A    between atoms: C6_9  and  C7_10 
REMARK    4  A    between atoms: C11_16  and  O3_17 
REMARK    5  A    between atoms: C13_19  and  O4_20 
ROOT
HETATM    1  C7  UNL     1      23.110   3.818  51.731  1.00  0.00     0.082 A 
HETATM    2  N2  UNL     1      23.429   5.111  51.420  1.00  0.00    -0.240 NA
HETATM    3  C8  UNL     1      22.518   6.037  51.101  1.00  0.00     0.234 A 
HETATM    4  N3  UNL     1      21.205   5.698  51.081  1.00  0.00    -0.241 NA
HETATM    5  C9  UNL     1      20.810   4.448  51.375  1.00  0.00     0.073 A 
HETATM    6  C10 UNL     1      19.501   4.009  51.370  1.00  0.00     0.072 A 
HETATM    7  C11 UNL     1      19.214   2.689  51.681  1.00  0.00     0.103 A 
HETATM    8  C13 UNL     1      20.187   1.754  52.004  1.00  0.00     0.102 A 
HETATM    9  C15 UNL     1      21.494   2.197  52.008  1.00  0.00     0.055 A 
HETATM   10  C16 UNL     1      21.767   3.511  51.699  1.00  0.00     0.025 A 
ENDROOT
BRANCH   1  11
HETATM   11  C6  UNL     1      24.263   3.001  52.038  1.00  0.00     0.011 A 
HETATM   12  C5  UNL     1      25.120   2.302  51.214  1.00  0.00     0.019 A 
HETATM   13  C4  UNL     1      26.188   1.597  51.723  1.00  0.00     0.051 A 
HETATM   14  C3  UNL     1      26.468   1.540  53.056  1.00  0.00     0.131 A 
HETATM   15  N4  UNL     1      25.642   2.212  53.845  1.00  0.00    -0.242 NA
HETATM   16  C17 UNL     1      24.584   2.917  53.398  1.00  0.00     0.132 A 
BRANCH  14  17
HETATM   17  N1  UNL     1      27.595   0.782  53.466  1.00  0.00    -0.287 N 
HETATM   18  C2  UNL     1      28.806   1.210  54.074  1.00  0.00     0.365 C 
HETATM   19  O2  UNL     1      29.022   2.441  54.337  1.00  0.00    -0.238 OA
HETATM   20  H4  UNL     1      27.400  -0.236  53.242  1.00  0.00     0.172 HD
BRANCH  18  21
HETATM   21  O1  UNL     1      29.707   0.194  54.347  1.00  0.00    -0.309 OA
HETATM   22  C1  UNL     1      29.856  -0.893  53.469  1.00  0.00     0.215 C 
ENDBRANCH  18  21
ENDBRANCH  14  17
ENDBRANCH   1  11
BRANCH   8  23
HETATM   23  O4  UNL     1      19.751   0.489  52.288  1.00  0.00    -0.353 OA
HETATM   24  C14 UNL     1      20.062  -0.221  53.448  1.00  0.00     0.210 C 
ENDBRANCH   8  23
BRANCH   7  25
HETATM   25  O3  UNL     1      17.874   2.327  51.655  1.00  0.00    -0.353 OA
HETATM   26  C12 UNL     1      17.108   2.560  50.490  1.00  0.00     0.210 C 
ENDBRANCH   7  25
TORSDOF 5
ENDMDL
