MODEL 1
REMARK VINA RESULT:      -7.5      0.000      0.000
REMARK  5 active torsions:
REMARK  status: ('A' for Active; 'I' for Inactive)
REMARK    1  A    between atoms: O1_2  and  C2_3 
REMARK    2  A    between atoms: C4_5  and  O2_6 
REMARK    3  A    between atoms: C11_16  and  N3_17 
REMARK    4  A    between atoms: N3_17  and  C12_18 
REMARK    5  A    between atoms: C12_18  and  C13_19 
ROOT
HETATM    1  C13 UNL     1      29.427   5.804  48.029  1.00  0.00     0.000 C 
HETATM    2  C14 UNL     1      30.338   6.571  48.611  1.00  0.00     0.162 C 
HETATM    3 BR1  UNL     1      31.699   7.628  49.398  1.00  0.00    -0.172 Br
ENDROOT
BRANCH   1   4
HETATM    4  C12 UNL     1      27.951   5.918  48.328  1.00  0.00     0.149 C 
BRANCH   4   5
HETATM    5  N3  UNL     1      27.540   4.735  49.036  1.00  0.00    -0.369 N 
HETATM    6  H10 UNL     1      28.356   4.110  49.157  1.00  0.00     0.161 HD
BRANCH   5   7
HETATM    7  C11 UNL     1      26.175   4.655  49.421  1.00  0.00     0.156 A 
HETATM    8  N2  UNL     1      25.288   5.536  48.938  1.00  0.00    -0.222 NA
HETATM    9  C10 UNL     1      23.995   5.501  49.287  1.00  0.00     0.238 A 
HETATM   10  N1  UNL     1      23.481   4.595  50.137  1.00  0.00    -0.215 NA
HETATM   11  C9  UNL     1      24.326   3.669  50.665  1.00  0.00     0.202 A 
HETATM   12  O3  UNL     1      23.668   2.790  51.530  1.00  0.00    -0.289 OA
HETATM   13  C15 UNL     1      25.675   3.714  50.294  1.00  0.00     0.128 A 
HETATM   14  C7  UNL     1      24.248   1.734  52.213  1.00  0.00     0.091 A 
HETATM   15  C6  UNL     1      25.599   1.476  52.436  1.00  0.00     0.027 A 
HETATM   16  C8  UNL     1      23.259   0.895  52.685  1.00  0.00     0.074 A 
HETATM   17  C4  UNL     1      25.936   0.330  53.164  1.00  0.00     0.081 A 
HETATM   18  C16 UNL     1      26.818   2.199  52.047  1.00  0.00     0.164 C 
HETATM   19  C3  UNL     1      24.933  -0.508  53.635  1.00  0.00     0.074 A 
HETATM   20  C2  UNL     1      23.584  -0.237  53.403  1.00  0.00     0.073 A 
HETATM   21  N4  UNL     1      26.711   2.816  50.740  1.00  0.00    -0.379 N 
HETATM   22  H15 UNL     1      27.395   2.678  49.935  1.00  0.00     0.160 HD
BRANCH  17  23
HETATM   23  O2  UNL     1      27.279   0.051  53.400  1.00  0.00    -0.355 OA
HETATM   24  C5  UNL     1      27.829   0.096  54.705  1.00  0.00     0.210 C 
ENDBRANCH  17  23
BRANCH  20  25
HETATM   25  O1  UNL     1      22.718  -1.172  53.941  1.00  0.00    -0.356 OA
HETATM   26  C1  UNL     1      21.623  -0.775  54.725  1.00  0.00     0.210 C 
ENDBRANCH  20  25
ENDBRANCH   5   7
ENDBRANCH   4   5
ENDBRANCH   1   4
TORSDOF 5
ENDMDL
MODEL 2
REMARK VINA RESULT:      -7.2      3.048      4.937
REMARK  5 active torsions:
REMARK  status: ('A' for Active; 'I' for Inactive)
REMARK    1  A    between atoms: O1_2  and  C2_3 
REMARK    2  A    between atoms: C4_5  and  O2_6 
REMARK    3  A    between atoms: C11_16  and  N3_17 
REMARK    4  A    between atoms: N3_17  and  C12_18 
REMARK    5  A    between atoms: C12_18  and  C13_19 
ROOT
HETATM    1  C13 UNL     1      21.823   7.530  50.493  1.00  0.00     0.000 C 
HETATM    2  C14 UNL     1      20.836   6.785  50.016  1.00  0.00     0.162 C 
HETATM    3 BR1  UNL     1      19.376   5.788  49.333  1.00  0.00    -0.172 Br
ENDROOT
BRANCH   1   4
HETATM    4  C12 UNL     1      23.190   6.971  50.808  1.00  0.00     0.149 C 
BRANCH   4   5
HETATM    5  N3  UNL     1      23.230   5.600  50.375  1.00  0.00    -0.369 N 
HETATM    6  H10 UNL     1      22.264   5.231  50.326  1.00  0.00     0.161 HD
BRANCH   5   7
HETATM    7  C11 UNL     1      24.509   5.044  50.106  1.00  0.00     0.156 A 
HETATM    8  N2  UNL     1      25.338   5.651  49.246  1.00  0.00    -0.222 NA
HETATM    9  C10 UNL     1      26.547   5.152  48.957  1.00  0.00     0.238 A 
HETATM   10  N1  UNL     1      27.028   4.017  49.495  1.00  0.00    -0.215 NA
HETATM   11  C9  UNL     1      26.239   3.348  50.378  1.00  0.00     0.202 A 
HETATM   12  O3  UNL     1      26.854   2.191  50.861  1.00  0.00    -0.289 OA
HETATM   13  C15 UNL     1      24.977   3.879  50.673  1.00  0.00     0.128 A 
HETATM   14  C7  UNL     1      26.315   1.304  51.779  1.00  0.00     0.091 A 
HETATM   15  C6  UNL     1      24.993   1.182  52.201  1.00  0.00     0.027 A 
HETATM   16  C8  UNL     1      27.314   0.489  52.270  1.00  0.00     0.074 A 
HETATM   17  C4  UNL     1      24.695   0.198  53.149  1.00  0.00     0.081 A 
HETATM   18  C16 UNL     1      23.771   1.913  51.837  1.00  0.00     0.164 C 
HETATM   19  C3  UNL     1      25.708  -0.618  53.638  1.00  0.00     0.074 A 
HETATM   20  C2  UNL     1      27.028  -0.483  53.206  1.00  0.00     0.073 A 
HETATM   21  N4  UNL     1      24.011   3.320  51.587  1.00  0.00    -0.379 N 
HETATM   22  H15 UNL     1      23.496   4.126  52.055  1.00  0.00     0.160 HD
BRANCH  17  23
HETATM   23  O2  UNL     1      23.381   0.057  53.586  1.00  0.00    -0.355 OA
HETATM   24  C5  UNL     1      23.025  -0.893  54.575  1.00  0.00     0.210 C 
ENDBRANCH  17  23
BRANCH  20  25
HETATM   25  O1  UNL     1      27.909  -1.374  53.793  1.00  0.00    -0.356 OA
HETATM   26  C1  UNL     1      29.272  -1.368  53.458  1.00  0.00     0.210 C 
ENDBRANCH  20  25
ENDBRANCH   5   7
ENDBRANCH   4   5
ENDBRANCH   1   4
TORSDOF 5
ENDMDL
MODEL 3
REMARK VINA RESULT:      -7.2      3.246      6.845
REMARK  5 active torsions:
REMARK  status: ('A' for Active; 'I' for Inactive)
REMARK    1  A    between atoms: O1_2  and  C2_3 
REMARK    2  A    between atoms: C4_5  and  O2_6 
REMARK    3  A    between atoms: C11_16  and  N3_17 
REMARK    4  A    between atoms: N3_17  and  C12_18 
REMARK    5  A    between atoms: C12_18  and  C13_19 
ROOT
HETATM    1  C13 UNL     1      26.674  -0.937  52.700  1.00  0.00     0.000 C 
HETATM    2  C14 UNL     1      27.941  -0.904  53.086  1.00  0.00     0.162 C 
HETATM    3 BR1  UNL     1      29.775  -0.893  53.566  1.00  0.00    -0.172 Br
ENDROOT
BRANCH   1   4
HETATM    4  C12 UNL     1      25.545  -0.412  53.554  1.00  0.00     0.149 C 
BRANCH   4   5
HETATM    5  N3  UNL     1      25.553   1.024  53.484  1.00  0.00    -0.369 N 
HETATM    6  H10 UNL     1      26.409   1.382  53.942  1.00  0.00     0.161 HD
BRANCH   5   7
HETATM    7  C11 UNL     1      24.454   1.644  52.832  1.00  0.00     0.156 A 
HETATM    8  N2  UNL     1      23.200   1.306  53.160  1.00  0.00    -0.222 NA
HETATM    9  C10 UNL     1      22.138   1.859  52.559  1.00  0.00     0.238 A 
HETATM   10  N1  UNL     1      22.234   2.787  51.591  1.00  0.00    -0.215 NA
HETATM   11  C9  UNL     1      23.479   3.179  51.208  1.00  0.00     0.202 A 
HETATM   12  O3  UNL     1      23.439   4.143  50.199  1.00  0.00    -0.289 OA
HETATM   13  C15 UNL     1      24.582   2.594  51.843  1.00  0.00     0.128 A 
HETATM   14  C7  UNL     1      24.536   4.748  49.607  1.00  0.00     0.091 A 
HETATM   15  C6  UNL     1      25.874   4.361  49.648  1.00  0.00     0.027 A 
HETATM   16  C8  UNL     1      24.124   5.870  48.916  1.00  0.00     0.074 A 
HETATM   17  C4  UNL     1      26.806   5.146  48.961  1.00  0.00     0.081 A 
HETATM   18  C16 UNL     1      26.553   3.232  50.299  1.00  0.00     0.164 C 
HETATM   19  C3  UNL     1      26.380   6.274  48.268  1.00  0.00     0.074 A 
HETATM   20  C2  UNL     1      25.037   6.649  48.237  1.00  0.00     0.073 A 
HETATM   21  N4  UNL     1      25.970   2.888  51.580  1.00  0.00    -0.379 N 
HETATM   22  H15 UNL     1      26.502   2.811  52.499  1.00  0.00     0.160 HD
BRANCH  17  23
HETATM   23  O2  UNL     1      28.148   4.779  48.987  1.00  0.00    -0.355 OA
HETATM   24  C5  UNL     1      29.128   5.496  48.258  1.00  0.00     0.210 C 
ENDBRANCH  17  23
BRANCH  20  25
HETATM   25  O1  UNL     1      24.787   7.795  47.503  1.00  0.00    -0.356 OA
HETATM   26  C1  UNL     1      23.575   7.961  46.814  1.00  0.00     0.210 C 
ENDBRANCH  20  25
ENDBRANCH   5   7
ENDBRANCH   4   5
ENDBRANCH   1   4
TORSDOF 5
ENDMDL
MODEL 4
REMARK VINA RESULT:      -7.2      3.059      5.386
REMARK  5 active torsions:
REMARK  status: ('A' for Active; 'I' for Inactive)
REMARK    1  A    between atoms: O1_2  and  C2_3 
REMARK    2  A    between atoms: C4_5  and  O2_6 
REMARK    3  A    between atoms: C11_16  and  N3_17 
REMARK    4  A    between atoms: N3_17  and  C12_18 
REMARK    5  A    between atoms: C12_18  and  C13_19 
ROOT
HETATM    1  C13 UNL     1      26.421   3.519  49.431  1.00  0.00     0.000 C 
HETATM    2  C14 UNL     1      26.797   4.736  49.065  1.00  0.00     0.162 C 
HETATM    3 BR1  UNL     1      27.298   6.462  48.466  1.00  0.00    -0.172 Br
ENDROOT
BRANCH   1   4
HETATM    4  C12 UNL     1      26.745   2.936  50.786  1.00  0.00     0.149 C 
BRANCH   4   5
HETATM    5  N3  UNL     1      25.593   3.087  51.632  1.00  0.00    -0.369 N 
HETATM    6  H10 UNL     1      25.156   4.008  51.452  1.00  0.00     0.161 HD
BRANCH   5   7
HETATM    7  C11 UNL     1      25.283   2.007  52.501  1.00  0.00     0.156 A 
HETATM    8  N2  UNL     1      26.223   1.510  53.317  1.00  0.00    -0.222 NA
HETATM    9  C10 UNL     1      25.973   0.483  54.141  1.00  0.00     0.238 A 
HETATM   10  N1  UNL     1      24.779  -0.129  54.221  1.00  0.00    -0.215 NA
HETATM   11  C9  UNL     1      23.777   0.325  53.420  1.00  0.00     0.202 A 
HETATM   12  O3  UNL     1      22.594  -0.394  53.601  1.00  0.00    -0.289 OA
HETATM   13  C15 UNL     1      24.049   1.398  52.563  1.00  0.00     0.128 A 
HETATM   14  C7  UNL     1      21.395  -0.168  52.944  1.00  0.00     0.091 A 
HETATM   15  C6  UNL     1      21.159   0.584  51.795  1.00  0.00     0.027 A 
HETATM   16  C8  UNL     1      20.378  -0.824  53.607  1.00  0.00     0.074 A 
HETATM   17  C4  UNL     1      19.846   0.661  51.320  1.00  0.00     0.081 A 
HETATM   18  C16 UNL     1      22.052   1.359  50.924  1.00  0.00     0.164 C 
HETATM   19  C3  UNL     1      18.828  -0.003  51.995  1.00  0.00     0.074 A 
HETATM   20  C2  UNL     1      19.080  -0.752  53.145  1.00  0.00     0.073 A 
HETATM   21  N4  UNL     1      23.117   2.019  51.654  1.00  0.00    -0.379 N 
HETATM   22  H15 UNL     1      23.343   3.058  51.610  1.00  0.00     0.160 HD
BRANCH  17  23
HETATM   23  O2  UNL     1      19.584   1.406  50.174  1.00  0.00    -0.355 OA
HETATM   24  C5  UNL     1      18.285   1.892  49.884  1.00  0.00     0.210 C 
ENDBRANCH  17  23
BRANCH  20  25
HETATM   25  O1  UNL     1      17.957  -1.346  53.691  1.00  0.00    -0.356 OA
HETATM   26  C1  UNL     1      17.723  -2.722  53.543  1.00  0.00     0.210 C 
ENDBRANCH  20  25
ENDBRANCH   5   7
ENDBRANCH   4   5
ENDBRANCH   1   4
TORSDOF 5
ENDMDL
MODEL 5
REMARK VINA RESULT:      -7.1      4.220      7.380
REMARK  5 active torsions:
REMARK  status: ('A' for Active; 'I' for Inactive)
REMARK    1  A    between atoms: O1_2  and  C2_3 
REMARK    2  A    between atoms: C4_5  and  O2_6 
REMARK    3  A    between atoms: C11_16  and  N3_17 
REMARK    4  A    between atoms: N3_17  and  C12_18 
REMARK    5  A    between atoms: C12_18  and  C13_19 
ROOT
HETATM    1  C13 UNL     1      18.215   0.615  50.383  1.00  0.00     0.000 C 
HETATM    2  C14 UNL     1      18.872   1.495  49.641  1.00  0.00     0.162 C 
HETATM    3 BR1  UNL     1      19.744   2.758  48.529  1.00  0.00    -0.172 Br
ENDROOT
BRANCH   1   4
HETATM    4  C12 UNL     1      18.822  -0.043  51.598  1.00  0.00     0.149 C 
BRANCH   4   5
HETATM    5  N3  UNL     1      20.122   0.528  51.822  1.00  0.00    -0.369 N 
HETATM    6  H10 UNL     1      20.241   1.353  51.208  1.00  0.00     0.161 HD
BRANCH   5   7
HETATM    7  C11 UNL     1      20.947  -0.103  52.791  1.00  0.00     0.156 A 
HETATM    8  N2  UNL     1      20.419  -0.981  53.654  1.00  0.00    -0.222 NA
HETATM    9  C10 UNL     1      21.162  -1.587  54.590  1.00  0.00     0.238 A 
HETATM   10  N1  UNL     1      22.480  -1.373  54.744  1.00  0.00    -0.215 NA
HETATM   11  C9  UNL     1      23.083  -0.492  53.900  1.00  0.00     0.202 A 
HETATM   12  O3  UNL     1      24.448  -0.360  54.165  1.00  0.00    -0.289 OA
HETATM   13  C15 UNL     1      22.297   0.136  52.925  1.00  0.00     0.128 A 
HETATM   14  C7  UNL     1      25.337   0.448  53.476  1.00  0.00     0.091 A 
HETATM   15  C6  UNL     1      25.064   1.493  52.596  1.00  0.00     0.027 A 
HETATM   16  C8  UNL     1      26.629   0.072  53.781  1.00  0.00     0.074 A 
HETATM   17  C4  UNL     1      26.147   2.166  52.020  1.00  0.00     0.081 A 
HETATM   18  C16 UNL     1      23.802   2.075  52.119  1.00  0.00     0.164 C 
HETATM   19  C3  UNL     1      27.444   1.779  52.333  1.00  0.00     0.074 A 
HETATM   20  C2  UNL     1      27.702   0.730  53.216  1.00  0.00     0.073 A 
HETATM   21  N4  UNL     1      22.758   1.085  51.942  1.00  0.00    -0.379 N 
HETATM   22  H15 UNL     1      22.196   0.934  51.050  1.00  0.00     0.160 HD
BRANCH  17  23
HETATM   23  O2  UNL     1      25.899   3.214  51.138  1.00  0.00    -0.355 OA
HETATM   24  C5  UNL     1      26.477   3.250  49.845  1.00  0.00     0.210 C 
ENDBRANCH  17  23
BRANCH  20  25
HETATM   25  O1  UNL     1      29.047   0.477  53.417  1.00  0.00    -0.356 OA
HETATM   26  C1  UNL     1      29.491  -0.792  53.823  1.00  0.00     0.210 C 
ENDBRANCH  20  25
ENDBRANCH   5   7
ENDBRANCH   4   5
ENDBRANCH   1   4
TORSDOF 5
ENDMDL
MODEL 6
REMARK VINA RESULT:      -7.1      5.125      7.545
REMARK  5 active torsions:
REMARK  status: ('A' for Active; 'I' for Inactive)
REMARK    1  A    between atoms: O1_2  and  C2_3 
REMARK    2  A    between atoms: C4_5  and  O2_6 
REMARK    3  A    between atoms: C11_16  and  N3_17 
REMARK    4  A    between atoms: N3_17  and  C12_18 
REMARK    5  A    between atoms: C12_18  and  C13_19 
ROOT
HETATM    1  C13 UNL     1      26.815  -0.051  52.800  1.00  0.00     0.000 C 
HETATM    2  C14 UNL     1      28.034  -0.402  53.185  1.00  0.00     0.162 C 
HETATM    3 BR1  UNL     1      29.791  -0.934  53.657  1.00  0.00    -0.172 Br
ENDROOT
BRANCH   1   4
HETATM    4  C12 UNL     1      25.825   0.609  53.728  1.00  0.00     0.149 C 
BRANCH   4   5
HETATM    5  N3  UNL     1      24.540   0.626  53.082  1.00  0.00    -0.369 N 
HETATM    6  H10 UNL     1      24.593   1.219  52.234  1.00  0.00     0.161 HD
BRANCH   5   7
HETATM    7  C11 UNL     1      23.503  -0.133  53.686  1.00  0.00     0.156 A 
HETATM    8  N2  UNL     1      23.764  -0.893  54.759  1.00  0.00    -0.222 NA
HETATM    9  C10 UNL     1      22.815  -1.632  55.349  1.00  0.00     0.238 A 
HETATM   10  N1  UNL     1      21.540  -1.677  54.926  1.00  0.00    -0.215 NA
HETATM   11  C9  UNL     1      21.204  -0.928  53.841  1.00  0.00     0.202 A 
HETATM   12  O3  UNL     1      19.855  -1.064  53.506  1.00  0.00    -0.289 OA
HETATM   13  C15 UNL     1      22.203  -0.159  53.231  1.00  0.00     0.128 A 
HETATM   14  C7  UNL     1      19.206  -0.424  52.462  1.00  0.00     0.091 A 
HETATM   15  C6  UNL     1      19.758   0.239  51.369  1.00  0.00     0.027 A 
HETATM   16  C8  UNL     1      17.841  -0.524  52.641  1.00  0.00     0.074 A 
HETATM   17  C4  UNL     1      18.884   0.811  50.438  1.00  0.00     0.081 A 
HETATM   18  C16 UNL     1      21.149   0.478  50.960  1.00  0.00     0.164 C 
HETATM   19  C3  UNL     1      17.510   0.705  50.627  1.00  0.00     0.074 A 
HETATM   20  C2  UNL     1      16.973   0.038  51.728  1.00  0.00     0.073 A 
HETATM   21  N4  UNL     1      22.035   0.700  52.085  1.00  0.00    -0.379 N 
HETATM   22  H15 UNL     1      22.679   1.540  52.207  1.00  0.00     0.160 HD
BRANCH  17  23
HETATM   23  O2  UNL     1      19.411   1.478  49.337  1.00  0.00    -0.355 OA
HETATM   24  C5  UNL     1      18.965   2.772  48.968  1.00  0.00     0.210 C 
ENDBRANCH  17  23
BRANCH  20  25
HETATM   25  O1  UNL     1      15.590   0.026  51.763  1.00  0.00    -0.356 OA
HETATM   26  C1  UNL     1      14.896   0.165  52.975  1.00  0.00     0.210 C 
ENDBRANCH  20  25
ENDBRANCH   5   7
ENDBRANCH   4   5
ENDBRANCH   1   4
TORSDOF 5
ENDMDL
MODEL 7
REMARK VINA RESULT:      -7.0      3.630      4.620
REMARK  5 active torsions:
REMARK  status: ('A' for Active; 'I' for Inactive)
REMARK    1  A    between atoms: O1_2  and  C2_3 
REMARK    2  A    between atoms: C4_5  and  O2_6 
REMARK    3  A    between atoms: C11_16  and  N3_17 
REMARK    4  A    between atoms: N3_17  and  C12_18 
REMARK    5  A    between atoms: C12_18  and  C13_19 
ROOT
HETATM    1  C13 UNL     1      23.500   5.974  50.207  1.00  0.00     0.000 C 
HETATM    2  C14 UNL     1      23.335   6.274  48.927  1.00  0.00     0.162 C 
HETATM    3 BR1  UNL     1      23.179   6.682  47.083  1.00  0.00    -0.172 Br
ENDROOT
BRANCH   1   4
HETATM    4  C12 UNL     1      22.399   6.121  51.229  1.00  0.00     0.149 C 
BRANCH   4   5
HETATM    5  N3  UNL     1      22.714   5.289  52.359  1.00  0.00    -0.369 N 
HETATM    6  H10 UNL     1      23.155   5.868  53.095  1.00  0.00     0.161 HD
BRANCH   5   7
HETATM    7  C11 UNL     1      22.376   3.913  52.262  1.00  0.00     0.156 A 
HETATM    8  N2  UNL     1      21.134   3.549  51.914  1.00  0.00    -0.222 NA
HETATM    9  C10 UNL     1      20.774   2.262  51.825  1.00  0.00     0.238 A 
HETATM   10  N1  UNL     1      21.611   1.239  52.071  1.00  0.00    -0.215 NA
HETATM   11  C9  UNL     1      22.889   1.536  52.429  1.00  0.00     0.202 A 
HETATM   12  O3  UNL     1      23.652   0.388  52.656  1.00  0.00    -0.289 OA
HETATM   13  C15 UNL     1      23.256   2.885  52.520  1.00  0.00     0.128 A 
HETATM   14  C7  UNL     1      24.987   0.357  53.022  1.00  0.00     0.091 A 
HETATM   15  C6  UNL     1      25.780   1.389  53.518  1.00  0.00     0.027 A 
HETATM   16  C8  UNL     1      25.488  -0.914  52.823  1.00  0.00     0.074 A 
HETATM   17  C4  UNL     1      27.117   1.105  53.816  1.00  0.00     0.081 A 
HETATM   18  C16 UNL     1      25.491   2.799  53.813  1.00  0.00     0.164 C 
HETATM   19  C3  UNL     1      27.611  -0.178  53.613  1.00  0.00     0.074 A 
HETATM   20  C2  UNL     1      26.805  -1.202  53.115  1.00  0.00     0.073 A 
HETATM   21  N4  UNL     1      24.559   3.390  52.873  1.00  0.00    -0.379 N 
HETATM   22  H15 UNL     1      24.727   4.283  52.317  1.00  0.00     0.160 HD
BRANCH  17  23
HETATM   23  O2  UNL     1      27.929   2.120  54.313  1.00  0.00    -0.355 OA
HETATM   24  C5  UNL     1      29.339   2.078  54.177  1.00  0.00     0.210 C 
ENDBRANCH  17  23
BRANCH  20  25
HETATM   25  O1  UNL     1      27.454  -2.416  52.973  1.00  0.00    -0.356 OA
HETATM   26  C1  UNL     1      28.849  -2.508  53.097  1.00  0.00     0.210 C 
ENDBRANCH  20  25
ENDBRANCH   5   7
ENDBRANCH   4   5
ENDBRANCH   1   4
TORSDOF 5
ENDMDL
MODEL 8
REMARK VINA RESULT:      -6.8      4.094      7.822
REMARK  5 active torsions:
REMARK  status: ('A' for Active; 'I' for Inactive)
REMARK    1  A    between atoms: O1_2  and  C2_3 
REMARK    2  A    between atoms: C4_5  and  O2_6 
REMARK    3  A    between atoms: C11_16  and  N3_17 
REMARK    4  A    between atoms: N3_17  and  C12_18 
REMARK    5  A    between atoms: C12_18  and  C13_19 
ROOT
HETATM    1  C13 UNL     1      24.421  -0.199  53.279  1.00  0.00     0.000 C 
HETATM    2  C14 UNL     1      23.278  -0.625  53.797  1.00  0.00     0.162 C 
HETATM    3 BR1  UNL     1      21.658  -1.311  54.503  1.00  0.00    -0.172 Br
ENDROOT
BRANCH   1   4
HETATM    4  C12 UNL     1      24.932   1.208  53.477  1.00  0.00     0.149 C 
BRANCH   4   5
HETATM    5  N3  UNL     1      25.309   1.738  52.194  1.00  0.00    -0.369 N 
HETATM    6  H10 UNL     1      26.165   1.257  51.865  1.00  0.00     0.161 HD
BRANCH   5   7
HETATM    7  C11 UNL     1      24.483   2.757  51.649  1.00  0.00     0.156 A 
HETATM    8  N2  UNL     1      23.175   2.788  51.938  1.00  0.00    -0.222 NA
HETATM    9  C10 UNL     1      22.361   3.725  51.433  1.00  0.00     0.238 A 
HETATM   10  N1  UNL     1      22.777   4.699  50.605  1.00  0.00    -0.215 NA
HETATM   11  C9  UNL     1      24.095   4.728  50.269  1.00  0.00     0.202 A 
HETATM   12  O3  UNL     1      24.394   5.786  49.407  1.00  0.00    -0.289 OA
HETATM   13  C15 UNL     1      24.937   3.745  50.803  1.00  0.00     0.128 A 
HETATM   14  C7  UNL     1      25.645   6.090  48.895  1.00  0.00     0.091 A 
HETATM   15  C6  UNL     1      26.792   5.300  48.867  1.00  0.00     0.027 A 
HETATM   16  C8  UNL     1      25.629   7.368  48.375  1.00  0.00     0.074 A 
HETATM   17  C4  UNL     1      27.946   5.838  48.289  1.00  0.00     0.081 A 
HETATM   18  C16 UNL     1      27.061   3.936  49.344  1.00  0.00     0.164 C 
HETATM   19  C3  UNL     1      27.920   7.127  47.768  1.00  0.00     0.074 A 
HETATM   20  C2  UNL     1      26.763   7.906  47.804  1.00  0.00     0.073 A 
HETATM   21  N4  UNL     1      26.355   3.620  50.570  1.00  0.00    -0.379 N 
HETATM   22  H15 UNL     1      26.803   3.254  51.464  1.00  0.00     0.160 HD
BRANCH  17  23
HETATM   23  O2  UNL     1      29.104   5.068  48.249  1.00  0.00    -0.355 OA
HETATM   24  C5  UNL     1      30.380   5.653  48.052  1.00  0.00     0.210 C 
ENDBRANCH  17  23
BRANCH  20  25
HETATM   25  O1  UNL     1      26.910   9.162  47.242  1.00  0.00    -0.356 OA
HETATM   26  C1  UNL     1      26.086  10.229  47.633  1.00  0.00     0.210 C 
ENDBRANCH  20  25
ENDBRANCH   5   7
ENDBRANCH   4   5
ENDBRANCH   1   4
TORSDOF 5
ENDMDL
MODEL 9
REMARK VINA RESULT:      -6.8      2.681      4.424
REMARK  5 active torsions:
REMARK  status: ('A' for Active; 'I' for Inactive)
REMARK    1  A    between atoms: O1_2  and  C2_3 
REMARK    2  A    between atoms: C4_5  and  O2_6 
REMARK    3  A    between atoms: C11_16  and  N3_17 
REMARK    4  A    between atoms: N3_17  and  C12_18 
REMARK    5  A    between atoms: C12_18  and  C13_19 
ROOT
HETATM    1  C13 UNL     1      23.212   6.143  48.000  1.00  0.00     0.000 C 
HETATM    2  C14 UNL     1      22.748   6.325  46.772  1.00  0.00     0.162 C 
HETATM    3 BR1  UNL     1      22.077   6.502  45.009  1.00  0.00    -0.172 Br
ENDROOT
BRANCH   1   4
HETATM    4  C12 UNL     1      23.636   7.286  48.891  1.00  0.00     0.149 C 
BRANCH   4   5
HETATM    5  N3  UNL     1      24.358   6.744  50.011  1.00  0.00    -0.369 N 
HETATM    6  H10 UNL     1      23.951   7.112  50.888  1.00  0.00     0.161 HD
BRANCH   5   7
HETATM    7  C11 UNL     1      25.426   5.853  49.721  1.00  0.00     0.156 A 
HETATM    8  N2  UNL     1      26.376   6.206  48.845  1.00  0.00    -0.222 NA
HETATM    9  C10 UNL     1      27.391   5.388  48.536  1.00  0.00     0.238 A 
HETATM   10  N1  UNL     1      27.545   4.163  49.068  1.00  0.00    -0.215 NA
HETATM   11  C9  UNL     1      26.616   3.740  49.967  1.00  0.00     0.202 A 
HETATM   12  O3  UNL     1      26.891   2.456  50.442  1.00  0.00    -0.289 OA
HETATM   13  C15 UNL     1      25.558   4.602  50.283  1.00  0.00     0.128 A 
HETATM   14  C7  UNL     1      26.142   1.754  51.373  1.00  0.00     0.091 A 
HETATM   15  C6  UNL     1      24.846   2.006  51.818  1.00  0.00     0.027 A 
HETATM   16  C8  UNL     1      26.881   0.691  51.849  1.00  0.00     0.074 A 
HETATM   17  C4  UNL     1      24.302   1.143  52.775  1.00  0.00     0.081 A 
HETATM   18  C16 UNL     1      23.871   3.050  51.474  1.00  0.00     0.164 C 
HETATM   19  C3  UNL     1      25.055   0.075  53.248  1.00  0.00     0.074 A 
HETATM   20  C2  UNL     1      26.351  -0.164  52.793  1.00  0.00     0.073 A 
HETATM   21  N4  UNL     1      24.491   4.334  51.215  1.00  0.00    -0.379 N 
HETATM   22  H15 UNL     1      24.231   5.251  51.690  1.00  0.00     0.160 HD
BRANCH  17  23
HETATM   23  O2  UNL     1      23.009   1.374  53.235  1.00  0.00    -0.355 OA
HETATM   24  C5  UNL     1      22.102   0.311  53.469  1.00  0.00     0.210 C 
ENDBRANCH  17  23
BRANCH  20  25
HETATM   25  O1  UNL     1      26.958  -1.267  53.366  1.00  0.00    -0.356 OA
HETATM   26  C1  UNL     1      28.355  -1.405  53.366  1.00  0.00     0.210 C 
ENDBRANCH  20  25
ENDBRANCH   5   7
ENDBRANCH   4   5
ENDBRANCH   1   4
TORSDOF 5
ENDMDL
