MODEL 1
REMARK VINA RESULT:      -8.0      0.000      0.000
REMARK  6 active torsions:
REMARK  status: ('A' for Active; 'I' for Inactive)
REMARK    1  A    between atoms: O1_2  and  C2_3 
REMARK    2  A    between atoms: C5_6  and  N1_7 
REMARK    3  A    between atoms: N1_7  and  C6_8 
REMARK    4  A    between atoms: C12_16  and  C13_17 
REMARK    5  A    between atoms: C13_17  and  O3_19 
REMARK    6  A    between atoms: C17_24  and  P1_25 
ROOT
HETATM    1  C2  UNL     1      21.346   0.957  53.013  1.00  0.00     0.080 A 
HETATM    2  C3  UNL     1      22.544   1.607  52.865  1.00  0.00     0.053 A 
HETATM    3  C4  UNL     1      22.868   2.045  51.602  1.00  0.00     0.023 A 
HETATM    4  C5  UNL     1      24.077   2.699  51.465  1.00  0.00     0.064 A 
HETATM    5  C12 UNL     1      24.440   3.157  50.204  1.00  0.00     0.082 A 
HETATM    6  C14 UNL     1      23.628   2.978  49.083  1.00  0.00     0.138 A 
HETATM    7  N2  UNL     1      22.447   2.330  49.263  1.00  0.00    -0.259 NA
HETATM    8  C15 UNL     1      22.090   1.886  50.477  1.00  0.00     0.070 A 
HETATM    9  C16 UNL     1      20.888   1.227  50.655  1.00  0.00     0.047 A 
HETATM   10  C17 UNL     1      20.513   0.763  51.913  1.00  0.00     0.001 A 
ENDROOT
BRANCH   4  11
HETATM   11  N1  UNL     1      24.986   2.932  52.561  1.00  0.00    -0.355 N 
HETATM   12  H5  UNL     1      25.039   3.715  53.249  1.00  0.00     0.166 HD
BRANCH  11  13
HETATM   13  C6  UNL     1      25.952   1.905  52.694  1.00  0.00     0.034 A 
HETATM   14  C7  UNL     1      25.842   0.679  52.070  1.00  0.00     0.032 A 
HETATM   15  C8  UNL     1      26.803  -0.324  52.211  1.00  0.00     0.046 A 
HETATM   16  C9  UNL     1      27.914  -0.111  52.997  1.00  0.00     0.138 A 
HETATM   17  F1  UNL     1      28.838  -1.083  53.129  1.00  0.00    -0.204 F 
HETATM   18  C10 UNL     1      28.075   1.107  53.648  1.00  0.00     0.074 A 
HETATM   19 CL1  UNL     1      29.474   1.403  54.650  1.00  0.00    -0.081 Cl
HETATM   20  C11 UNL     1      27.097   2.040  53.466  1.00  0.00     0.056 A 
ENDBRANCH  11  13
ENDBRANCH   4  11
BRANCH   5  21
HETATM   21  C13 UNL     1      25.702   3.865  49.936  1.00  0.00     0.179 C 
HETATM   22  O2  UNL     1      26.674   3.379  49.277  1.00  0.00    -0.646 OA
BRANCH  21  23
HETATM   23  O3  UNL     1      25.942   5.158  50.389  1.00  0.00    -0.773 OA
HETATM   24  H9  UNL     1      25.180   5.853  50.422  1.00  0.00     0.167 HD
ENDBRANCH  21  23
ENDBRANCH   5  21
BRANCH   1  25
HETATM   25  O1  UNL     1      20.858   0.446  54.220  1.00  0.00    -0.355 OA
HETATM   26  C1  UNL     1      21.509  -0.643  54.877  1.00  0.00     0.210 C 
ENDBRANCH   1  25
BRANCH  10  27
HETATM   27  P1  UNL     1      18.882  -0.086  51.949  1.00  0.00    -0.096 P 
HETATM   28  C18 UNL     1      17.924   0.340  50.412  1.00  0.00     0.046 C 
HETATM   29  H12 UNL     1      19.152  -1.519  51.921  1.00  0.00     0.062 HD
ENDBRANCH  10  27
TORSDOF 6
ENDMDL
MODEL 2
REMARK VINA RESULT:      -7.9      3.698      5.160
REMARK  6 active torsions:
REMARK  status: ('A' for Active; 'I' for Inactive)
REMARK    1  A    between atoms: O1_2  and  C2_3 
REMARK    2  A    between atoms: C5_6  and  N1_7 
REMARK    3  A    between atoms: N1_7  and  C6_8 
REMARK    4  A    between atoms: C12_16  and  C13_17 
REMARK    5  A    between atoms: C13_17  and  O3_19 
REMARK    6  A    between atoms: C17_24  and  P1_25 
ROOT
HETATM    1  C2  UNL     1      20.497  -0.019  51.945  1.00  0.00     0.080 A 
HETATM    2  C3  UNL     1      21.850   0.187  51.998  1.00  0.00     0.053 A 
HETATM    3  C4  UNL     1      22.510  -0.265  53.117  1.00  0.00     0.023 A 
HETATM    4  C5  UNL     1      23.874  -0.052  53.160  1.00  0.00     0.064 A 
HETATM    5  C12 UNL     1      24.576  -0.494  54.275  1.00  0.00     0.082 A 
HETATM    6  C14 UNL     1      23.950  -1.140  55.343  1.00  0.00     0.138 A 
HETATM    7  N2  UNL     1      22.608  -1.329  55.259  1.00  0.00    -0.259 NA
HETATM    8  C15 UNL     1      21.924  -0.905  54.186  1.00  0.00     0.070 A 
HETATM    9  C16 UNL     1      20.557  -1.100  54.106  1.00  0.00     0.047 A 
HETATM   10  C17 UNL     1      19.843  -0.661  52.995  1.00  0.00     0.001 A 
ENDROOT
BRANCH   4  11
HETATM   11  N1  UNL     1      24.611   0.606  52.109  1.00  0.00    -0.355 N 
HETATM   12  H5  UNL     1      25.311   0.234  51.430  1.00  0.00     0.166 HD
BRANCH  11  13
HETATM   13  C6  UNL     1      24.306   1.986  52.013  1.00  0.00     0.034 A 
HETATM   14  C7  UNL     1      24.189   2.812  53.112  1.00  0.00     0.032 A 
HETATM   15  C8  UNL     1      23.888   4.171  53.001  1.00  0.00     0.046 A 
HETATM   16  C9  UNL     1      23.694   4.737  51.760  1.00  0.00     0.138 A 
HETATM   17  F1  UNL     1      23.403   6.049  51.661  1.00  0.00    -0.204 F 
HETATM   18  C10 UNL     1      23.800   3.950  50.619  1.00  0.00     0.074 A 
HETATM   19 CL1  UNL     1      23.558   4.642  49.035  1.00  0.00    -0.081 Cl
HETATM   20  C11 UNL     1      24.096   2.631  50.802  1.00  0.00     0.056 A 
ENDBRANCH  11  13
ENDBRANCH   4  11
BRANCH   5  21
HETATM   21  C13 UNL     1      26.029  -0.323  54.433  1.00  0.00     0.179 C 
HETATM   22  O2  UNL     1      26.906  -1.037  53.854  1.00  0.00    -0.646 OA
BRANCH  21  23
HETATM   23  O3  UNL     1      26.579   0.660  55.249  1.00  0.00    -0.773 OA
HETATM   24  H9  UNL     1      26.762   0.473  56.248  1.00  0.00     0.167 HD
ENDBRANCH  21  23
ENDBRANCH   5  21
BRANCH   1  25
HETATM   25  O1  UNL     1      19.669   0.373  50.887  1.00  0.00    -0.355 OA
HETATM   26  C1  UNL     1      20.156   1.222  49.846  1.00  0.00     0.210 C 
ENDBRANCH   1  25
BRANCH  10  27
HETATM   27  P1  UNL     1      18.039  -1.010  53.071  1.00  0.00    -0.096 P 
HETATM   28  C18 UNL     1      17.767  -2.748  53.677  1.00  0.00     0.046 C 
HETATM   29  H12 UNL     1      17.475  -0.101  54.063  1.00  0.00     0.062 HD
ENDBRANCH  10  27
TORSDOF 6
ENDMDL
MODEL 3
REMARK VINA RESULT:      -7.6      3.725      6.796
REMARK  6 active torsions:
REMARK  status: ('A' for Active; 'I' for Inactive)
REMARK    1  A    between atoms: O1_2  and  C2_3 
REMARK    2  A    between atoms: C5_6  and  N1_7 
REMARK    3  A    between atoms: N1_7  and  C6_8 
REMARK    4  A    between atoms: C12_16  and  C13_17 
REMARK    5  A    between atoms: C13_17  and  O3_19 
REMARK    6  A    between atoms: C17_24  and  P1_25 
ROOT
HETATM    1  C2  UNL     1      24.871   1.483  53.154  1.00  0.00     0.080 A 
HETATM    2  C3  UNL     1      23.535   1.553  52.858  1.00  0.00     0.053 A 
HETATM    3  C4  UNL     1      22.742   0.516  53.292  1.00  0.00     0.023 A 
HETATM    4  C5  UNL     1      21.396   0.597  52.988  1.00  0.00     0.064 A 
HETATM    5  C12 UNL     1      20.562  -0.432  53.410  1.00  0.00     0.082 A 
HETATM    6  C14 UNL     1      21.038  -1.534  54.123  1.00  0.00     0.138 A 
HETATM    7  N2  UNL     1      22.367  -1.572  54.401  1.00  0.00    -0.259 NA
HETATM    8  C15 UNL     1      23.178  -0.583  53.998  1.00  0.00     0.070 A 
HETATM    9  C16 UNL     1      24.531  -0.628  54.282  1.00  0.00     0.047 A 
HETATM   10  C17 UNL     1      25.377   0.396  53.865  1.00  0.00     0.001 A 
ENDROOT
BRANCH   4  11
HETATM   11  N1  UNL     1      20.810   1.692  52.256  1.00  0.00    -0.355 N 
HETATM   12  H5  UNL     1      20.112   2.412  52.547  1.00  0.00     0.166 HD
BRANCH  11  13
HETATM   13  C6  UNL     1      21.284   1.772  50.924  1.00  0.00     0.034 A 
HETATM   14  C7  UNL     1      21.122   0.756  50.003  1.00  0.00     0.032 A 
HETATM   15  C8  UNL     1      21.595   0.850  48.693  1.00  0.00     0.046 A 
HETATM   16  C9  UNL     1      22.253   1.985  48.274  1.00  0.00     0.138 A 
HETATM   17  F1  UNL     1      22.707   2.068  47.009  1.00  0.00    -0.204 F 
HETATM   18  C10 UNL     1      22.443   3.038  49.162  1.00  0.00     0.074 A 
HETATM   19 CL1  UNL     1      23.274   4.489  48.656  1.00  0.00    -0.081 Cl
HETATM   20  C11 UNL     1      21.955   2.879  50.425  1.00  0.00     0.056 A 
ENDBRANCH  11  13
ENDBRANCH   4  11
BRANCH   5  21
HETATM   21  C13 UNL     1      19.115  -0.456  53.145  1.00  0.00     0.179 C 
HETATM   22  O2  UNL     1      18.566   0.017  52.102  1.00  0.00    -0.646 OA
BRANCH  21  23
HETATM   23  O3  UNL     1      18.204  -1.014  54.035  1.00  0.00    -0.773 OA
HETATM   24  H9  UNL     1      18.351  -0.939  55.054  1.00  0.00     0.167 HD
ENDBRANCH  21  23
ENDBRANCH   5  21
BRANCH   1  25
HETATM   25  O1  UNL     1      25.821   2.445  52.793  1.00  0.00    -0.355 OA
HETATM   26  C1  UNL     1      26.194   2.637  51.427  1.00  0.00     0.210 C 
ENDBRANCH   1  25
BRANCH  10  27
HETATM   27  P1  UNL     1      27.138   0.159  54.337  1.00  0.00    -0.096 P 
HETATM   28  C18 UNL     1      27.991  -0.883  53.053  1.00  0.00     0.046 C 
HETATM   29  H12 UNL     1      27.760   1.479  54.323  1.00  0.00     0.062 HD
ENDBRANCH  10  27
TORSDOF 6
ENDMDL
MODEL 4
REMARK VINA RESULT:      -7.5      3.816      6.969
REMARK  6 active torsions:
REMARK  status: ('A' for Active; 'I' for Inactive)
REMARK    1  A    between atoms: O1_2  and  C2_3 
REMARK    2  A    between atoms: C5_6  and  N1_7 
REMARK    3  A    between atoms: N1_7  and  C6_8 
REMARK    4  A    between atoms: C12_16  and  C13_17 
REMARK    5  A    between atoms: C13_17  and  O3_19 
REMARK    6  A    between atoms: C17_24  and  P1_25 
ROOT
HETATM    1  C2  UNL     1      25.903   0.667  52.580  1.00  0.00     0.080 A 
HETATM    2  C3  UNL     1      24.577   0.592  52.244  1.00  0.00     0.053 A 
HETATM    3  C4  UNL     1      23.733  -0.004  53.152  1.00  0.00     0.023 A 
HETATM    4  C5  UNL     1      22.398  -0.074  52.802  1.00  0.00     0.064 A 
HETATM    5  C12 UNL     1      21.513  -0.670  53.693  1.00  0.00     0.082 A 
HETATM    6  C14 UNL     1      21.929  -1.195  54.918  1.00  0.00     0.138 A 
HETATM    7  N2  UNL     1      23.250  -1.105  55.222  1.00  0.00    -0.259 NA
HETATM    8  C15 UNL     1      24.109  -0.531  54.367  1.00  0.00     0.070 A 
HETATM    9  C16 UNL     1      25.453  -0.442  54.680  1.00  0.00     0.047 A 
HETATM   10  C17 UNL     1      26.349   0.152  53.796  1.00  0.00     0.001 A 
ENDROOT
BRANCH   4  11
HETATM   11  N1  UNL     1      21.871   0.439  51.561  1.00  0.00    -0.355 N 
HETATM   12  H5  UNL     1      21.435  -0.053  50.750  1.00  0.00     0.166 HD
BRANCH  11  13
HETATM   13  C6  UNL     1      21.982   1.847  51.464  1.00  0.00     0.034 A 
HETATM   14  C7  UNL     1      21.379   2.716  52.350  1.00  0.00     0.032 A 
HETATM   15  C8  UNL     1      21.498   4.102  52.240  1.00  0.00     0.046 A 
HETATM   16  C9  UNL     1      22.239   4.654  51.219  1.00  0.00     0.138 A 
HETATM   17  F1  UNL     1      22.349   5.994  51.119  1.00  0.00    -0.204 F 
HETATM   18  C10 UNL     1      22.868   3.825  50.298  1.00  0.00     0.074 A 
HETATM   19 CL1  UNL     1      23.814   4.499  48.993  1.00  0.00    -0.081 Cl
HETATM   20  C11 UNL     1      22.709   2.481  50.465  1.00  0.00     0.056 A 
ENDBRANCH  11  13
ENDBRANCH   4  11
BRANCH   5  21
HETATM   21  C13 UNL     1      20.071  -0.803  53.431  1.00  0.00     0.179 C 
HETATM   22  O2  UNL     1      19.401  -0.024  52.683  1.00  0.00    -0.646 OA
BRANCH  21  23
HETATM   23  O3  UNL     1      19.302  -1.817  53.992  1.00  0.00    -0.773 OA
HETATM   24  H9  UNL     1      18.469  -2.178  53.501  1.00  0.00     0.167 HD
ENDBRANCH  21  23
ENDBRANCH   5  21
BRANCH   1  25
HETATM   25  O1  UNL     1      26.899   1.239  51.781  1.00  0.00    -0.355 OA
HETATM   26  C1  UNL     1      26.659   2.444  51.052  1.00  0.00     0.210 C 
ENDBRANCH   1  25
BRANCH  10  27
HETATM   27  P1  UNL     1      28.090   0.176  54.388  1.00  0.00    -0.096 P 
HETATM   28  C18 UNL     1      29.079  -1.099  53.462  1.00  0.00     0.046 C 
HETATM   29  H12 UNL     1      28.632   1.488  54.052  1.00  0.00     0.062 HD
ENDBRANCH  10  27
TORSDOF 6
ENDMDL
MODEL 5
REMARK VINA RESULT:      -7.5      2.123      4.614
REMARK  6 active torsions:
REMARK  status: ('A' for Active; 'I' for Inactive)
REMARK    1  A    between atoms: O1_2  and  C2_3 
REMARK    2  A    between atoms: C5_6  and  N1_7 
REMARK    3  A    between atoms: N1_7  and  C6_8 
REMARK    4  A    between atoms: C12_16  and  C13_17 
REMARK    5  A    between atoms: C13_17  and  O3_19 
REMARK    6  A    between atoms: C17_24  and  P1_25 
ROOT
HETATM    1  C2  UNL     1      24.183   3.037  50.735  1.00  0.00     0.080 A 
HETATM    2  C3  UNL     1      24.219   2.303  51.892  1.00  0.00     0.053 A 
HETATM    3  C4  UNL     1      23.226   1.368  52.072  1.00  0.00     0.023 A 
HETATM    4  C5  UNL     1      23.273   0.633  53.241  1.00  0.00     0.064 A 
HETATM    5  C12 UNL     1      22.287  -0.321  53.460  1.00  0.00     0.082 A 
HETATM    6  C14 UNL     1      21.260  -0.557  52.543  1.00  0.00     0.138 A 
HETATM    7  N2  UNL     1      21.253   0.188  51.407  1.00  0.00    -0.259 NA
HETATM    8  C15 UNL     1      22.201   1.110  51.189  1.00  0.00     0.070 A 
HETATM    9  C16 UNL     1      22.189   1.866  50.032  1.00  0.00     0.047 A 
HETATM   10  C17 UNL     1      23.171   2.825  49.800  1.00  0.00     0.001 A 
ENDROOT
BRANCH   4  11
HETATM   11  N1  UNL     1      24.291   0.803  54.249  1.00  0.00    -0.355 N 
HETATM   12  H5  UNL     1      24.253   1.257  55.187  1.00  0.00     0.166 HD
BRANCH  11  13
HETATM   13  C6  UNL     1      25.536   0.248  53.863  1.00  0.00     0.034 A 
HETATM   14  C7  UNL     1      25.649  -0.909  53.118  1.00  0.00     0.032 A 
HETATM   15  C8  UNL     1      26.883  -1.444  52.746  1.00  0.00     0.046 A 
HETATM   16  C9  UNL     1      28.051  -0.817  53.122  1.00  0.00     0.138 A 
HETATM   17  F1  UNL     1      29.239  -1.339  52.760  1.00  0.00    -0.204 F 
HETATM   18  C10 UNL     1      27.994   0.352  53.874  1.00  0.00     0.074 A 
HETATM   19 CL1  UNL     1      29.459   1.166  54.364  1.00  0.00    -0.081 Cl
HETATM   20  C11 UNL     1      26.755   0.817  54.202  1.00  0.00     0.056 A 
ENDBRANCH  11  13
ENDBRANCH   4  11
BRANCH   5  21
HETATM   21  C13 UNL     1      22.232  -1.162  54.666  1.00  0.00     0.179 C 
HETATM   22  O2  UNL     1      23.217  -1.377  55.440  1.00  0.00    -0.646 OA
BRANCH  21  23
HETATM   23  O3  UNL     1      21.069  -1.808  55.072  1.00  0.00    -0.773 OA
HETATM   24  H9  UNL     1      20.148  -1.504  54.718  1.00  0.00     0.167 HD
ENDBRANCH  21  23
ENDBRANCH   5  21
BRANCH   1  25
HETATM   25  O1  UNL     1      25.109   4.027  50.388  1.00  0.00    -0.355 OA
HETATM   26  C1  UNL     1      26.444   3.687  50.007  1.00  0.00     0.210 C 
ENDBRANCH   1  25
BRANCH  10  27
HETATM   27  P1  UNL     1      22.987   3.727  48.208  1.00  0.00    -0.096 P 
HETATM   28  C18 UNL     1      21.489   3.092  47.305  1.00  0.00     0.046 C 
HETATM   29  H12 UNL     1      22.744   5.126  48.542  1.00  0.00     0.062 HD
ENDBRANCH  10  27
TORSDOF 6
ENDMDL
MODEL 6
REMARK VINA RESULT:      -7.4      4.435      6.792
REMARK  6 active torsions:
REMARK  status: ('A' for Active; 'I' for Inactive)
REMARK    1  A    between atoms: O1_2  and  C2_3 
REMARK    2  A    between atoms: C5_6  and  N1_7 
REMARK    3  A    between atoms: N1_7  and  C6_8 
REMARK    4  A    between atoms: C12_16  and  C13_17 
REMARK    5  A    between atoms: C13_17  and  O3_19 
REMARK    6  A    between atoms: C17_24  and  P1_25 
ROOT
HETATM    1  C2  UNL     1      26.022  -0.308  53.210  1.00  0.00     0.080 A 
HETATM    2  C3  UNL     1      24.868   0.007  52.541  1.00  0.00     0.053 A 
HETATM    3  C4  UNL     1      24.435   1.311  52.617  1.00  0.00     0.023 A 
HETATM    4  C5  UNL     1      23.271   1.617  51.939  1.00  0.00     0.064 A 
HETATM    5  C12 UNL     1      22.801   2.924  51.992  1.00  0.00     0.082 A 
HETATM    6  C14 UNL     1      23.464   3.927  52.702  1.00  0.00     0.138 A 
HETATM    7  N2  UNL     1      24.605   3.582  53.353  1.00  0.00    -0.259 NA
HETATM    8  C15 UNL     1      25.064   2.323  53.307  1.00  0.00     0.070 A 
HETATM    9  C16 UNL     1      26.226   1.977  53.972  1.00  0.00     0.047 A 
HETATM   10  C17 UNL     1      26.706   0.671  53.928  1.00  0.00     0.001 A 
ENDROOT
BRANCH   4  11
HETATM   11  N1  UNL     1      22.514   0.652  51.178  1.00  0.00    -0.355 N 
HETATM   12  H5  UNL     1      22.690   0.234  50.239  1.00  0.00     0.166 HD
BRANCH  11  13
HETATM   13  C6  UNL     1      21.345   0.225  51.853  1.00  0.00     0.034 A 
HETATM   14  C7  UNL     1      21.353  -0.266  53.143  1.00  0.00     0.032 A 
HETATM   15  C8  UNL     1      20.192  -0.684  53.794  1.00  0.00     0.046 A 
HETATM   16  C9  UNL     1      18.976  -0.616  53.151  1.00  0.00     0.138 A 
HETATM   17  F1  UNL     1      17.858  -1.021  53.786  1.00  0.00    -0.204 F 
HETATM   18  C10 UNL     1      18.910  -0.130  51.851  1.00  0.00     0.074 A 
HETATM   19 CL1  UNL     1      17.381  -0.033  51.012  1.00  0.00    -0.081 Cl
HETATM   20  C11 UNL     1      20.083   0.260  51.276  1.00  0.00     0.056 A 
ENDBRANCH  11  13
ENDBRANCH   4  11
BRANCH   5  21
HETATM   21  C13 UNL     1      21.574   3.368  51.312  1.00  0.00     0.179 C 
HETATM   22  O2  UNL     1      21.414   3.383  50.051  1.00  0.00    -0.646 OA
BRANCH  21  23
HETATM   23  O3  UNL     1      20.458   3.819  52.008  1.00  0.00    -0.773 OA
HETATM   24  H9  UNL     1      19.508   3.537  51.719  1.00  0.00     0.167 HD
ENDBRANCH  21  23
ENDBRANCH   5  21
BRANCH   1  25
HETATM   25  O1  UNL     1      26.606  -1.579  53.242  1.00  0.00    -0.355 OA
HETATM   26  C1  UNL     1      26.839  -2.314  52.038  1.00  0.00     0.210 C 
ENDBRANCH   1  25
BRANCH  10  27
HETATM   27  P1  UNL     1      28.262   0.406  54.873  1.00  0.00    -0.096 P 
HETATM   28  C18 UNL     1      29.647   0.018  53.693  1.00  0.00     0.046 C 
HETATM   29  H12 UNL     1      28.577   1.670  55.528  1.00  0.00     0.062 HD
ENDBRANCH  10  27
TORSDOF 6
ENDMDL
MODEL 7
REMARK VINA RESULT:      -7.4      3.548      4.854
REMARK  6 active torsions:
REMARK  status: ('A' for Active; 'I' for Inactive)
REMARK    1  A    between atoms: O1_2  and  C2_3 
REMARK    2  A    between atoms: C5_6  and  N1_7 
REMARK    3  A    between atoms: N1_7  and  C6_8 
REMARK    4  A    between atoms: C12_16  and  C13_17 
REMARK    5  A    between atoms: C13_17  and  O3_19 
REMARK    6  A    between atoms: C17_24  and  P1_25 
ROOT
HETATM    1  C2  UNL     1      20.450   2.111  52.435  1.00  0.00     0.080 A 
HETATM    2  C3  UNL     1      21.698   2.655  52.592  1.00  0.00     0.053 A 
HETATM    3  C4  UNL     1      22.741   1.783  52.795  1.00  0.00     0.023 A 
HETATM    4  C5  UNL     1      23.995   2.343  52.952  1.00  0.00     0.064 A 
HETATM    5  C12 UNL     1      25.075   1.493  53.160  1.00  0.00     0.082 A 
HETATM    6  C14 UNL     1      24.933   0.105  53.214  1.00  0.00     0.138 A 
HETATM    7  N2  UNL     1      23.683  -0.403  53.054  1.00  0.00    -0.259 NA
HETATM    8  C15 UNL     1      22.636   0.411  52.853  1.00  0.00     0.070 A 
HETATM    9  C16 UNL     1      21.366  -0.111  52.691  1.00  0.00     0.047 A 
HETATM   10  C17 UNL     1      20.276   0.729  52.483  1.00  0.00     0.001 A 
ENDROOT
BRANCH   4  11
HETATM   11  N1  UNL     1      24.243   3.763  52.913  1.00  0.00    -0.355 N 
HETATM   12  H5  UNL     1      24.481   4.435  53.675  1.00  0.00     0.166 HD
BRANCH  11  13
HETATM   13  C6  UNL     1      24.139   4.297  51.606  1.00  0.00     0.034 A 
HETATM   14  C7  UNL     1      24.536   3.613  50.476  1.00  0.00     0.032 A 
HETATM   15  C8  UNL     1      24.427   4.154  49.194  1.00  0.00     0.046 A 
HETATM   16  C9  UNL     1      23.906   5.417  49.018  1.00  0.00     0.138 A 
HETATM   17  F1  UNL     1      23.803   5.933  47.778  1.00  0.00    -0.204 F 
HETATM   18  C10 UNL     1      23.490   6.151  50.123  1.00  0.00     0.074 A 
HETATM   19 CL1  UNL     1      22.827   7.754  49.929  1.00  0.00    -0.081 Cl
HETATM   20  C11 UNL     1      23.627   5.561  51.345  1.00  0.00     0.056 A 
ENDBRANCH  11  13
ENDBRANCH   4  11
BRANCH   5  21
HETATM   21  C13 UNL     1      26.454   1.972  53.341  1.00  0.00     0.179 C 
HETATM   22  O2  UNL     1      27.126   1.845  54.412  1.00  0.00    -0.646 OA
BRANCH  21  23
HETATM   23  O3  UNL     1      27.157   2.620  52.330  1.00  0.00    -0.773 OA
HETATM   24  H9  UNL     1      27.189   2.226  51.377  1.00  0.00     0.167 HD
ENDBRANCH  21  23
ENDBRANCH   5  21
BRANCH   1  25
HETATM   25  O1  UNL     1      19.279   2.846  52.220  1.00  0.00    -0.355 OA
HETATM   26  C1  UNL     1      19.165   3.745  51.115  1.00  0.00     0.210 C 
ENDBRANCH   1  25
BRANCH  10  27
HETATM   27  P1  UNL     1      18.672  -0.149  52.291  1.00  0.00    -0.096 P 
HETATM   28  C18 UNL     1      18.027   0.106  50.564  1.00  0.00     0.046 C 
HETATM   29  H12 UNL     1      18.947  -1.572  52.456  1.00  0.00     0.062 HD
ENDBRANCH  10  27
TORSDOF 6
ENDMDL
MODEL 8
REMARK VINA RESULT:      -7.2      2.767      5.182
REMARK  6 active torsions:
REMARK  status: ('A' for Active; 'I' for Inactive)
REMARK    1  A    between atoms: O1_2  and  C2_3 
REMARK    2  A    between atoms: C5_6  and  N1_7 
REMARK    3  A    between atoms: N1_7  and  C6_8 
REMARK    4  A    between atoms: C12_16  and  C13_17 
REMARK    5  A    between atoms: C13_17  and  O3_19 
REMARK    6  A    between atoms: C17_24  and  P1_25 
ROOT
HETATM    1  C2  UNL     1      25.204   4.357  49.687  1.00  0.00     0.080 A 
HETATM    2  C3  UNL     1      25.381   3.142  50.296  1.00  0.00     0.053 A 
HETATM    3  C4  UNL     1      24.403   2.733  51.173  1.00  0.00     0.023 A 
HETATM    4  C5  UNL     1      24.592   1.506  51.781  1.00  0.00     0.064 A 
HETATM    5  C12 UNL     1      23.626   1.057  52.674  1.00  0.00     0.082 A 
HETATM    6  C14 UNL     1      22.483   1.801  52.973  1.00  0.00     0.138 A 
HETATM    7  N2  UNL     1      22.337   3.001  52.352  1.00  0.00    -0.259 NA
HETATM    8  C15 UNL     1      23.265   3.440  51.489  1.00  0.00     0.070 A 
HETATM    9  C16 UNL     1      23.112   4.662  50.861  1.00  0.00     0.047 A 
HETATM   10  C17 UNL     1      24.073   5.123  49.964  1.00  0.00     0.001 A 
ENDROOT
BRANCH   4  11
HETATM   11  N1  UNL     1      25.738   0.665  51.539  1.00  0.00    -0.355 N 
HETATM   12  H5  UNL     1      25.886  -0.107  50.853  1.00  0.00     0.166 HD
BRANCH  11  13
HETATM   13  C6  UNL     1      26.825   0.969  52.395  1.00  0.00     0.034 A 
HETATM   14  C7  UNL     1      27.018   2.213  52.959  1.00  0.00     0.032 A 
HETATM   15  C8  UNL     1      28.095   2.496  53.801  1.00  0.00     0.046 A 
HETATM   16  C9  UNL     1      29.017   1.517  54.098  1.00  0.00     0.138 A 
HETATM   17  F1  UNL     1      30.054   1.798  54.911  1.00  0.00    -0.204 F 
HETATM   18  C10 UNL     1      28.871   0.246  53.556  1.00  0.00     0.074 A 
HETATM   19 CL1  UNL     1      30.026  -1.014  53.916  1.00  0.00    -0.081 Cl
HETATM   20  C11 UNL     1      27.796   0.039  52.742  1.00  0.00     0.056 A 
ENDBRANCH  11  13
ENDBRANCH   4  11
BRANCH   5  21
HETATM   21  C13 UNL     1      23.718  -0.229  53.382  1.00  0.00     0.179 C 
HETATM   22  O2  UNL     1      24.628  -0.529  54.216  1.00  0.00    -0.646 OA
BRANCH  21  23
HETATM   23  O3  UNL     1      22.793  -1.251  53.193  1.00  0.00    -0.773 OA
HETATM   24  H9  UNL     1      21.928  -1.085  52.655  1.00  0.00     0.167 HD
ENDBRANCH  21  23
ENDBRANCH   5  21
BRANCH   1  25
HETATM   25  O1  UNL     1      26.093   4.929  48.770  1.00  0.00    -0.355 OA
HETATM   26  C1  UNL     1      27.493   4.649  48.829  1.00  0.00     0.210 C 
ENDBRANCH   1  25
BRANCH  10  27
HETATM   27  P1  UNL     1      23.694   6.767  49.231  1.00  0.00    -0.096 P 
HETATM   28  C18 UNL     1      23.922   8.090  50.520  1.00  0.00     0.046 C 
HETATM   29  H12 UNL     1      24.679   6.997  48.180  1.00  0.00     0.062 HD
ENDBRANCH  10  27
TORSDOF 6
ENDMDL
MODEL 9
REMARK VINA RESULT:      -7.1      7.062     10.328
REMARK  6 active torsions:
REMARK  status: ('A' for Active; 'I' for Inactive)
REMARK    1  A    between atoms: O1_2  and  C2_3 
REMARK    2  A    between atoms: C5_6  and  N1_7 
REMARK    3  A    between atoms: N1_7  and  C6_8 
REMARK    4  A    between atoms: C12_16  and  C13_17 
REMARK    5  A    between atoms: C13_17  and  O3_19 
REMARK    6  A    between atoms: C17_24  and  P1_25 
ROOT
HETATM    1  C2  UNL     1      31.926   5.477  47.175  1.00  0.00     0.080 A 
HETATM    2  C3  UNL     1      30.705   6.087  47.306  1.00  0.00     0.053 A 
HETATM    3  C4  UNL     1      30.639   7.184  48.134  1.00  0.00     0.023 A 
HETATM    4  C5  UNL     1      29.404   7.791  48.258  1.00  0.00     0.064 A 
HETATM    5  C12 UNL     1      29.296   8.902  49.086  1.00  0.00     0.082 A 
HETATM    6  C14 UNL     1      30.387   9.418  49.789  1.00  0.00     0.138 A 
HETATM    7  N2  UNL     1      31.582   8.791  49.637  1.00  0.00    -0.259 NA
HETATM    8  C15 UNL     1      31.694   7.718  48.840  1.00  0.00     0.070 A 
HETATM    9  C16 UNL     1      32.912   7.082  48.689  1.00  0.00     0.047 A 
HETATM   10  C17 UNL     1      33.034   5.968  47.864  1.00  0.00     0.001 A 
ENDROOT
BRANCH   4  11
HETATM   11  N1  UNL     1      28.219   7.333  47.575  1.00  0.00    -0.355 N 
HETATM   12  H5  UNL     1      27.847   7.560  46.627  1.00  0.00     0.166 HD
BRANCH  11  13
HETATM   13  C6  UNL     1      27.459   6.427  48.354  1.00  0.00     0.034 A 
HETATM   14  C7  UNL     1      27.771   5.088  48.474  1.00  0.00     0.032 A 
HETATM   15  C8  UNL     1      27.011   4.207  49.245  1.00  0.00     0.046 A 
HETATM   16  C9  UNL     1      25.902   4.661  49.924  1.00  0.00     0.138 A 
HETATM   17  F1  UNL     1      25.173   3.805  50.666  1.00  0.00    -0.204 F 
HETATM   18  C10 UNL     1      25.542   6.001  49.837  1.00  0.00     0.074 A 
HETATM   19 CL1  UNL     1      24.140   6.603  50.687  1.00  0.00    -0.081 Cl
HETATM   20  C11 UNL     1      26.329   6.805  49.066  1.00  0.00     0.056 A 
ENDBRANCH  11  13
ENDBRANCH   4  11
BRANCH   5  21
HETATM   21  C13 UNL     1      28.035   9.631  49.297  1.00  0.00     0.179 C 
HETATM   22  O2  UNL     1      27.314  10.108  48.366  1.00  0.00    -0.646 OA
BRANCH  21  23
HETATM   23  O3  UNL     1      27.512   9.863  50.565  1.00  0.00    -0.773 OA
HETATM   24  H9  UNL     1      28.137  10.049  51.366  1.00  0.00     0.167 HD
ENDBRANCH  21  23
ENDBRANCH   5  21
BRANCH   1  25
HETATM   25  O1  UNL     1      32.176   4.354  46.379  1.00  0.00    -0.355 OA
HETATM   26  C1  UNL     1      31.675   3.066  46.742  1.00  0.00     0.210 C 
ENDBRANCH   1  25
BRANCH  10  27
HETATM   27  P1  UNL     1      34.730   5.262  47.792  1.00  0.00    -0.096 P 
HETATM   28  C18 UNL     1      35.704   5.833  49.272  1.00  0.00     0.046 C 
HETATM   29  H12 UNL     1      34.589   3.813  47.885  1.00  0.00     0.062 HD
ENDBRANCH  10  27
TORSDOF 6
ENDMDL
