MODEL 1
REMARK VINA RESULT:      -8.1      0.000      0.000
REMARK  8 active torsions:
REMARK  status: ('A' for Active; 'I' for Inactive)
REMARK    1  A    between atoms: O1_2  and  C2_3 
REMARK    2  A    between atoms: C2_3  and  C3_4 
REMARK    3  A    between atoms: C3_4  and  O2_5 
REMARK    4  A    between atoms: O2_5  and  C4_6 
REMARK    5  A    between atoms: C6_8  and  O3_9 
REMARK    6  A    between atoms: O3_9  and  C7_10 
REMARK    7  A    between atoms: C13_17  and  N1_18 
REMARK    8  A    between atoms: N1_18  and  C14_19 
ROOT
HETATM    1  C4  UNL     1      26.884   4.679  49.189  1.00  0.00     0.073 A 
HETATM    2  C5  UNL     1      26.901   3.473  49.854  1.00  0.00     0.074 A 
HETATM    3  C6  UNL     1      25.908   3.107  50.723  1.00  0.00     0.088 A 
HETATM    4  C12 UNL     1      24.880   4.042  50.887  1.00  0.00     0.072 A 
HETATM    5  C13 UNL     1      23.808   3.826  51.727  1.00  0.00     0.144 A 
HETATM    6  N2  UNL     1      22.818   4.722  51.890  1.00  0.00    -0.223 NA
HETATM    7  C20 UNL     1      22.846   5.889  51.217  1.00  0.00     0.236 A 
HETATM    8  N3  UNL     1      23.869   6.150  50.382  1.00  0.00    -0.241 NA
HETATM    9  C21 UNL     1      24.862   5.249  50.222  1.00  0.00     0.077 A 
HETATM   10  C22 UNL     1      25.870   5.599  49.351  1.00  0.00     0.069 A 
ENDROOT
BRANCH   5  11
HETATM   11  N1  UNL     1      23.700   2.619  52.472  1.00  0.00    -0.340 N 
HETATM   12  H18 UNL     1      24.266   2.278  53.265  1.00  0.00     0.167 HD
BRANCH  11  13
HETATM   13  C14 UNL     1      22.638   1.795  52.017  1.00  0.00     0.035 A 
HETATM   14  C15 UNL     1      22.362   1.555  50.689  1.00  0.00     0.029 A 
HETATM   15  C16 UNL     1      21.319   0.748  50.274  1.00  0.00     0.004 A 
HETATM   16  C17 UNL     1      20.495   0.138  51.194  1.00  0.00     0.024 A 
HETATM   17  C18 UNL     1      20.721   0.341  52.533  1.00  0.00     0.036 A 
HETATM   18 CL1  UNL     1      19.701  -0.411  53.739  1.00  0.00    -0.084 Cl
HETATM   19  C19 UNL     1      21.776   1.155  52.887  1.00  0.00     0.053 A 
ENDBRANCH  11  13
ENDBRANCH   5  11
BRANCH   3  20
HETATM   20  O3  UNL     1      25.745   1.963  51.474  1.00  0.00    -0.345 OA
BRANCH  20  21
HETATM   21  C7  UNL     1      26.767   1.265  52.148  1.00  0.00     0.133 C 
HETATM   22  C8  UNL     1      26.582  -0.207  51.939  1.00  0.00     0.058 C 
HETATM   23  C9  UNL     1      26.328  -1.009  53.167  1.00  0.00     0.170 C 
HETATM   24  O4  UNL     1      27.297  -0.632  54.121  1.00  0.00    -0.391 OA
HETATM   25  C10 UNL     1      26.851   0.600  54.592  1.00  0.00     0.170 C 
HETATM   26  C11 UNL     1      26.896   1.682  53.585  1.00  0.00     0.058 C 
ENDBRANCH  20  21
ENDBRANCH   3  20
BRANCH   1  27
HETATM   27  O2  UNL     1      27.916   4.997  48.321  1.00  0.00    -0.349 OA
BRANCH  27  28
HETATM   28  C3  UNL     1      28.370   6.317  48.089  1.00  0.00     0.201 C 
BRANCH  28  29
HETATM   29  C2  UNL     1      29.877   6.222  47.987  1.00  0.00     0.193 C 
BRANCH  29  30
HETATM   30  O1  UNL     1      30.455   5.443  48.974  1.00  0.00    -0.394 OA
HETATM   31  C1  UNL     1      31.688   5.928  49.402  1.00  0.00     0.201 C 
ENDBRANCH  29  30
ENDBRANCH  28  29
ENDBRANCH  27  28
ENDBRANCH   1  27
TORSDOF 8
ENDMDL
MODEL 2
REMARK VINA RESULT:      -7.8      3.133      5.783
REMARK  8 active torsions:
REMARK  status: ('A' for Active; 'I' for Inactive)
REMARK    1  A    between atoms: O1_2  and  C2_3 
REMARK    2  A    between atoms: C2_3  and  C3_4 
REMARK    3  A    between atoms: C3_4  and  O2_5 
REMARK    4  A    between atoms: O2_5  and  C4_6 
REMARK    5  A    between atoms: C6_8  and  O3_9 
REMARK    6  A    between atoms: O3_9  and  C7_10 
REMARK    7  A    between atoms: C13_17  and  N1_18 
REMARK    8  A    between atoms: N1_18  and  C14_19 
ROOT
HETATM    1  C4  UNL     1      25.933  -0.411  53.662  1.00  0.00     0.073 A 
HETATM    2  C5  UNL     1      25.673   0.444  52.615  1.00  0.00     0.074 A 
HETATM    3  C6  UNL     1      24.403   0.864  52.316  1.00  0.00     0.088 A 
HETATM    4  C12 UNL     1      23.396   0.364  53.149  1.00  0.00     0.072 A 
HETATM    5  C13 UNL     1      22.066   0.689  52.981  1.00  0.00     0.144 A 
HETATM    6  N2  UNL     1      21.093   0.210  53.777  1.00  0.00    -0.223 NA
HETATM    7  C20 UNL     1      21.399  -0.624  54.790  1.00  0.00     0.236 A 
HETATM    8  N3  UNL     1      22.682  -0.973  54.999  1.00  0.00    -0.241 NA
HETATM    9  C21 UNL     1      23.655  -0.492  54.198  1.00  0.00     0.077 A 
HETATM   10  C22 UNL     1      24.939  -0.902  54.482  1.00  0.00     0.069 A 
ENDROOT
BRANCH   5  11
HETATM   11  N1  UNL     1      21.658   1.565  51.937  1.00  0.00    -0.340 N 
HETATM   12  H18 UNL     1      22.209   2.244  51.390  1.00  0.00     0.167 HD
BRANCH  11  13
HETATM   13  C14 UNL     1      20.274   1.449  51.642  1.00  0.00     0.035 A 
HETATM   14  C15 UNL     1      19.675   0.291  51.198  1.00  0.00     0.029 A 
HETATM   15  C16 UNL     1      18.323   0.208  50.916  1.00  0.00     0.004 A 
HETATM   16  C17 UNL     1      17.505   1.304  51.073  1.00  0.00     0.024 A 
HETATM   17  C18 UNL     1      18.046   2.486  51.513  1.00  0.00     0.036 A 
HETATM   18 CL1  UNL     1      17.048   3.907  51.727  1.00  0.00    -0.084 Cl
HETATM   19  C19 UNL     1      19.400   2.510  51.778  1.00  0.00     0.053 A 
ENDBRANCH  11  13
ENDBRANCH   5  11
BRANCH   3  20
HETATM   20  O3  UNL     1      23.942   1.703  51.326  1.00  0.00    -0.345 OA
BRANCH  20  21
HETATM   21  C7  UNL     1      24.538   2.917  50.928  1.00  0.00     0.133 C 
HETATM   22  C8  UNL     1      24.194   3.986  51.920  1.00  0.00     0.058 C 
HETATM   23  C9  UNL     1      23.403   5.130  51.392  1.00  0.00     0.170 C 
HETATM   24  O4  UNL     1      24.032   5.561  50.204  1.00  0.00    -0.391 OA
HETATM   25  C10 UNL     1      23.662   4.610  49.258  1.00  0.00     0.170 C 
HETATM   26  C11 UNL     1      24.230   3.266  49.500  1.00  0.00     0.058 C 
ENDBRANCH  20  21
ENDBRANCH   3  20
BRANCH   1  27
HETATM   27  O2  UNL     1      27.238  -0.803  53.918  1.00  0.00    -0.349 OA
BRANCH  27  28
HETATM   28  C3  UNL     1      28.143  -0.056  54.708  1.00  0.00     0.201 C 
BRANCH  28  29
HETATM   29  C2  UNL     1      29.308   0.273  53.799  1.00  0.00     0.193 C 
BRANCH  29  30
HETATM   30  O1  UNL     1      29.084   1.365  52.979  1.00  0.00    -0.394 OA
HETATM   31  C1  UNL     1      28.642   2.489  53.674  1.00  0.00     0.201 C 
ENDBRANCH  29  30
ENDBRANCH  28  29
ENDBRANCH  27  28
ENDBRANCH   1  27
TORSDOF 8
ENDMDL
MODEL 3
REMARK VINA RESULT:      -7.5      3.351      5.496
REMARK  8 active torsions:
REMARK  status: ('A' for Active; 'I' for Inactive)
REMARK    1  A    between atoms: O1_2  and  C2_3 
REMARK    2  A    between atoms: C2_3  and  C3_4 
REMARK    3  A    between atoms: C3_4  and  O2_5 
REMARK    4  A    between atoms: O2_5  and  C4_6 
REMARK    5  A    between atoms: C6_8  and  O3_9 
REMARK    6  A    between atoms: O3_9  and  C7_10 
REMARK    7  A    between atoms: C13_17  and  N1_18 
REMARK    8  A    between atoms: N1_18  and  C14_19 
ROOT
HETATM    1  C4  UNL     1      26.832   1.396  53.507  1.00  0.00     0.073 A 
HETATM    2  C5  UNL     1      25.526   0.964  53.551  1.00  0.00     0.074 A 
HETATM    3  C6  UNL     1      24.619   1.284  52.576  1.00  0.00     0.088 A 
HETATM    4  C12 UNL     1      25.114   2.079  51.536  1.00  0.00     0.072 A 
HETATM    5  C13 UNL     1      24.330   2.490  50.479  1.00  0.00     0.144 A 
HETATM    6  N2  UNL     1      24.799   3.256  49.478  1.00  0.00    -0.223 NA
HETATM    7  C20 UNL     1      26.086   3.654  49.479  1.00  0.00     0.236 A 
HETATM    8  N3  UNL     1      26.896   3.280  50.487  1.00  0.00    -0.241 NA
HETATM    9  C21 UNL     1      26.422   2.513  51.490  1.00  0.00     0.077 A 
HETATM   10  C22 UNL     1      27.318   2.179  52.481  1.00  0.00     0.069 A 
ENDROOT
BRANCH   5  11
HETATM   11  N1  UNL     1      22.961   2.111  50.399  1.00  0.00    -0.340 N 
HETATM   12  H18 UNL     1      22.533   1.173  50.386  1.00  0.00     0.167 HD
BRANCH  11  13
HETATM   13  C14 UNL     1      22.092   3.232  50.330  1.00  0.00     0.035 A 
HETATM   14  C15 UNL     1      21.991   4.192  51.312  1.00  0.00     0.029 A 
HETATM   15  C16 UNL     1      21.134   5.273  51.219  1.00  0.00     0.004 A 
HETATM   16  C17 UNL     1      20.327   5.436  50.115  1.00  0.00     0.024 A 
HETATM   17  C18 UNL     1      20.384   4.510  49.103  1.00  0.00     0.036 A 
HETATM   18 CL1  UNL     1      19.379   4.673  47.680  1.00  0.00    -0.084 Cl
HETATM   19  C19 UNL     1      21.258   3.453  49.251  1.00  0.00     0.053 A 
ENDBRANCH  11  13
ENDBRANCH   5  11
BRANCH   3  20
HETATM   20  O3  UNL     1      23.288   0.955  52.440  1.00  0.00    -0.345 OA
BRANCH  20  21
HETATM   21  C7  UNL     1      22.401   0.651  53.492  1.00  0.00     0.133 C 
HETATM   22  C8  UNL     1      22.708  -0.718  54.018  1.00  0.00     0.058 C 
HETATM   23  C9  UNL     1      21.620  -1.725  53.881  1.00  0.00     0.170 C 
HETATM   24  O4  UNL     1      20.434  -1.126  54.357  1.00  0.00    -0.391 OA
HETATM   25  C10 UNL     1      20.046  -0.272  53.329  1.00  0.00     0.170 C 
HETATM   26  C11 UNL     1      20.964   0.867  53.113  1.00  0.00     0.058 C 
ENDBRANCH  20  21
ENDBRANCH   3  20
BRANCH   1  27
HETATM   27  O2  UNL     1      27.706   1.041  54.522  1.00  0.00    -0.349 OA
BRANCH  27  28
HETATM   28  C3  UNL     1      29.109   0.967  54.362  1.00  0.00     0.201 C 
BRANCH  28  29
HETATM   29  C2  UNL     1      29.446  -0.509  54.350  1.00  0.00     0.193 C 
BRANCH  29  30
HETATM   30  O1  UNL     1      28.444  -1.304  53.821  1.00  0.00    -0.394 OA
HETATM   31  C1  UNL     1      28.933  -2.402  53.117  1.00  0.00     0.201 C 
ENDBRANCH  29  30
ENDBRANCH  28  29
ENDBRANCH  27  28
ENDBRANCH   1  27
TORSDOF 8
ENDMDL
MODEL 4
REMARK VINA RESULT:      -7.4      3.530      6.314
REMARK  8 active torsions:
REMARK  status: ('A' for Active; 'I' for Inactive)
REMARK    1  A    between atoms: O1_2  and  C2_3 
REMARK    2  A    between atoms: C2_3  and  C3_4 
REMARK    3  A    between atoms: C3_4  and  O2_5 
REMARK    4  A    between atoms: O2_5  and  C4_6 
REMARK    5  A    between atoms: C6_8  and  O3_9 
REMARK    6  A    between atoms: O3_9  and  C7_10 
REMARK    7  A    between atoms: C13_17  and  N1_18 
REMARK    8  A    between atoms: N1_18  and  C14_19 
ROOT
HETATM    1  C4  UNL     1      25.493   0.764  52.342  1.00  0.00     0.073 A 
HETATM    2  C5  UNL     1      24.155   1.077  52.260  1.00  0.00     0.074 A 
HETATM    3  C6  UNL     1      23.694   2.113  51.492  1.00  0.00     0.088 A 
HETATM    4  C12 UNL     1      24.678   2.828  50.799  1.00  0.00     0.072 A 
HETATM    5  C13 UNL     1      24.380   3.899  49.984  1.00  0.00     0.144 A 
HETATM    6  N2  UNL     1      25.321   4.591  49.316  1.00  0.00    -0.223 NA
HETATM    7  C20 UNL     1      26.618   4.246  49.428  1.00  0.00     0.236 A 
HETATM    8  N3  UNL     1      26.964   3.207  50.210  1.00  0.00    -0.241 NA
HETATM    9  C21 UNL     1      26.018   2.516  50.879  1.00  0.00     0.077 A 
HETATM   10  C22 UNL     1      26.461   1.469  51.657  1.00  0.00     0.069 A 
ENDROOT
BRANCH   5  11
HETATM   11  N1  UNL     1      23.034   4.327  49.808  1.00  0.00    -0.340 N 
HETATM   12  H18 UNL     1      22.335   4.617  50.509  1.00  0.00     0.167 HD
BRANCH  11  13
HETATM   13  C14 UNL     1      22.643   4.338  48.443  1.00  0.00     0.035 A 
HETATM   14  C15 UNL     1      22.316   3.209  47.725  1.00  0.00     0.029 A 
HETATM   15  C16 UNL     1      21.941   3.250  46.395  1.00  0.00     0.004 A 
HETATM   16  C17 UNL     1      21.877   4.449  45.720  1.00  0.00     0.024 A 
HETATM   17  C18 UNL     1      22.192   5.609  46.384  1.00  0.00     0.036 A 
HETATM   18 CL1  UNL     1      22.127   7.156  45.571  1.00  0.00    -0.084 Cl
HETATM   19  C19 UNL     1      22.560   5.506  47.710  1.00  0.00     0.053 A 
ENDBRANCH  11  13
ENDBRANCH   5  11
BRANCH   3  20
HETATM   20  O3  UNL     1      22.415   2.579  51.281  1.00  0.00    -0.345 OA
BRANCH  20  21
HETATM   21  C7  UNL     1      21.224   1.890  51.587  1.00  0.00     0.133 C 
HETATM   22  C8  UNL     1      20.796   1.088  50.397  1.00  0.00     0.058 C 
HETATM   23  C9  UNL     1      19.482   1.458  49.804  1.00  0.00     0.170 C 
HETATM   24  O4  UNL     1      18.554   1.545  50.864  1.00  0.00    -0.391 OA
HETATM   25  C10 UNL     1      18.847   2.760  51.476  1.00  0.00     0.170 C 
HETATM   26  C11 UNL     1      20.164   2.795  52.146  1.00  0.00     0.058 C 
ENDBRANCH  20  21
ENDBRANCH   3  20
BRANCH   1  27
HETATM   27  O2  UNL     1      25.902  -0.295  53.136  1.00  0.00    -0.349 OA
BRANCH  27  28
HETATM   28  C3  UNL     1      27.247  -0.524  53.511  1.00  0.00     0.201 C 
BRANCH  28  29
HETATM   29  C2  UNL     1      27.404   0.101  54.881  1.00  0.00     0.193 C 
BRANCH  29  30
HETATM   30  O1  UNL     1      28.385   1.076  54.940  1.00  0.00    -0.394 OA
HETATM   31  C1  UNL     1      29.384   0.904  53.985  1.00  0.00     0.201 C 
ENDBRANCH  29  30
ENDBRANCH  28  29
ENDBRANCH  27  28
ENDBRANCH   1  27
TORSDOF 8
ENDMDL
MODEL 5
REMARK VINA RESULT:      -7.2      3.720      8.110
REMARK  8 active torsions:
REMARK  status: ('A' for Active; 'I' for Inactive)
REMARK    1  A    between atoms: O1_2  and  C2_3 
REMARK    2  A    between atoms: C2_3  and  C3_4 
REMARK    3  A    between atoms: C3_4  and  O2_5 
REMARK    4  A    between atoms: O2_5  and  C4_6 
REMARK    5  A    between atoms: C6_8  and  O3_9 
REMARK    6  A    between atoms: O3_9  and  C7_10 
REMARK    7  A    between atoms: C13_17  and  N1_18 
REMARK    8  A    between atoms: N1_18  and  C14_19 
ROOT
HETATM    1  C4  UNL     1      22.825   0.969  52.680  1.00  0.00     0.073 A 
HETATM    2  C5  UNL     1      22.636   1.421  51.394  1.00  0.00     0.074 A 
HETATM    3  C6  UNL     1      23.646   1.996  50.667  1.00  0.00     0.088 A 
HETATM    4  C12 UNL     1      24.878   2.089  51.325  1.00  0.00     0.072 A 
HETATM    5  C13 UNL     1      25.994   2.642  50.733  1.00  0.00     0.144 A 
HETATM    6  N2  UNL     1      27.180   2.736  51.361  1.00  0.00    -0.223 NA
HETATM    7  C20 UNL     1      27.316   2.278  52.620  1.00  0.00     0.236 A 
HETATM    8  N3  UNL     1      26.258   1.728  53.244  1.00  0.00    -0.241 NA
HETATM    9  C21 UNL     1      25.069   1.636  52.613  1.00  0.00     0.077 A 
HETATM   10  C22 UNL     1      24.040   1.061  53.326  1.00  0.00     0.069 A 
ENDROOT
BRANCH   5  11
HETATM   11  N1  UNL     1      25.937   3.147  49.404  1.00  0.00    -0.340 N 
HETATM   12  H18 UNL     1      25.720   2.661  48.521  1.00  0.00     0.167 HD
BRANCH  11  13
HETATM   13  C14 UNL     1      26.232   4.534  49.338  1.00  0.00     0.035 A 
HETATM   14  C15 UNL     1      25.481   5.512  49.952  1.00  0.00     0.029 A 
HETATM   15  C16 UNL     1      25.791   6.857  49.869  1.00  0.00     0.004 A 
HETATM   16  C17 UNL     1      26.888   7.282  49.153  1.00  0.00     0.024 A 
HETATM   17  C18 UNL     1      27.674   6.352  48.519  1.00  0.00     0.036 A 
HETATM   18 CL1  UNL     1      29.078   6.842  47.597  1.00  0.00    -0.084 Cl
HETATM   19  C19 UNL     1      27.316   5.025  48.637  1.00  0.00     0.053 A 
ENDBRANCH  11  13
ENDBRANCH   5  11
BRANCH   3  20
HETATM   20  O3  UNL     1      23.658   2.504  49.387  1.00  0.00    -0.345 OA
BRANCH  20  21
HETATM   21  C7  UNL     1      22.566   3.101  48.725  1.00  0.00     0.133 C 
HETATM   22  C8  UNL     1      21.999   4.188  49.586  1.00  0.00     0.058 C 
HETATM   23  C9  UNL     1      20.592   3.996  50.031  1.00  0.00     0.170 C 
HETATM   24  O4  UNL     1      19.837   3.647  48.891  1.00  0.00    -0.391 OA
HETATM   25  C10 UNL     1      20.159   2.311  48.665  1.00  0.00     0.170 C 
HETATM   26  C11 UNL     1      21.561   2.091  48.251  1.00  0.00     0.058 C 
ENDBRANCH  20  21
ENDBRANCH   3  20
BRANCH   1  27
HETATM   27  O2  UNL     1      21.767   0.396  53.368  1.00  0.00    -0.349 OA
BRANCH  27  28
HETATM   28  C3  UNL     1      20.419   0.796  53.213  1.00  0.00     0.201 C 
BRANCH  28  29
HETATM   29  C2  UNL     1      19.590  -0.445  53.457  1.00  0.00     0.193 C 
BRANCH  29  30
HETATM   30  O1  UNL     1      18.658  -0.698  52.465  1.00  0.00    -0.394 OA
HETATM   31  C1  UNL     1      18.787   0.149  51.367  1.00  0.00     0.201 C 
ENDBRANCH  29  30
ENDBRANCH  28  29
ENDBRANCH  27  28
ENDBRANCH   1  27
TORSDOF 8
ENDMDL
MODEL 6
REMARK VINA RESULT:      -7.1      3.270      5.973
REMARK  8 active torsions:
REMARK  status: ('A' for Active; 'I' for Inactive)
REMARK    1  A    between atoms: O1_2  and  C2_3 
REMARK    2  A    between atoms: C2_3  and  C3_4 
REMARK    3  A    between atoms: C3_4  and  O2_5 
REMARK    4  A    between atoms: O2_5  and  C4_6 
REMARK    5  A    between atoms: C6_8  and  O3_9 
REMARK    6  A    between atoms: O3_9  and  C7_10 
REMARK    7  A    between atoms: C13_17  and  N1_18 
REMARK    8  A    between atoms: N1_18  and  C14_19 
ROOT
HETATM    1  C4  UNL     1      26.229   0.792  52.489  1.00  0.00     0.073 A 
HETATM    2  C5  UNL     1      24.858   0.691  52.420  1.00  0.00     0.074 A 
HETATM    3  C6  UNL     1      24.106   1.514  51.624  1.00  0.00     0.088 A 
HETATM    4  C12 UNL     1      24.830   2.460  50.889  1.00  0.00     0.072 A 
HETATM    5  C13 UNL     1      24.223   3.363  50.042  1.00  0.00     0.144 A 
HETATM    6  N2  UNL     1      24.913   4.276  49.335  1.00  0.00    -0.223 NA
HETATM    7  C20 UNL     1      26.255   4.335  49.436  1.00  0.00     0.236 A 
HETATM    8  N3  UNL     1      26.898   3.476  50.248  1.00  0.00    -0.241 NA
HETATM    9  C21 UNL     1      26.203   2.562  50.957  1.00  0.00     0.077 A 
HETATM   10  C22 UNL     1      26.940   1.724  51.764  1.00  0.00     0.069 A 
ENDROOT
BRANCH   5  11
HETATM   11  N1  UNL     1      22.810   3.366  49.875  1.00  0.00    -0.340 N 
HETATM   12  H18 UNL     1      22.157   2.578  49.750  1.00  0.00     0.167 HD
BRANCH  11  13
HETATM   13  C14 UNL     1      22.266   4.678  49.889  1.00  0.00     0.035 A 
HETATM   14  C15 UNL     1      22.215   5.479  51.008  1.00  0.00     0.029 A 
HETATM   15  C16 UNL     1      21.677   6.753  50.994  1.00  0.00     0.004 A 
HETATM   16  C17 UNL     1      21.158   7.282  49.834  1.00  0.00     0.024 A 
HETATM   17  C18 UNL     1      21.180   6.529  48.686  1.00  0.00     0.036 A 
HETATM   18 CL1  UNL     1      20.533   7.158  47.187  1.00  0.00    -0.084 Cl
HETATM   19  C19 UNL     1      21.730   5.266  48.761  1.00  0.00     0.053 A 
ENDBRANCH  11  13
ENDBRANCH   5  11
BRANCH   3  20
HETATM   20  O3  UNL     1      22.745   1.572  51.418  1.00  0.00    -0.345 OA
BRANCH  20  21
HETATM   21  C7  UNL     1      21.849   0.488  51.513  1.00  0.00     0.133 C 
HETATM   22  C8  UNL     1      20.731   0.684  50.536  1.00  0.00     0.058 C 
HETATM   23  C9  UNL     1      19.371   0.820  51.125  1.00  0.00     0.170 C 
HETATM   24  O4  UNL     1      19.210  -0.231  52.054  1.00  0.00    -0.391 OA
HETATM   25  C10 UNL     1      19.949   0.177  53.161  1.00  0.00     0.170 C 
HETATM   26  C11 UNL     1      21.408   0.230  52.925  1.00  0.00     0.058 C 
ENDBRANCH  20  21
ENDBRANCH   3  20
BRANCH   1  27
HETATM   27  O2  UNL     1      26.939  -0.068  53.313  1.00  0.00    -0.349 OA
BRANCH  27  28
HETATM   28  C3  UNL     1      27.168   0.170  54.688  1.00  0.00     0.201 C 
BRANCH  28  29
HETATM   29  C2  UNL     1      28.668   0.307  54.839  1.00  0.00     0.193 C 
BRANCH  29  30
HETATM   30  O1  UNL     1      29.371   0.040  53.677  1.00  0.00    -0.394 OA
HETATM   31  C1  UNL     1      30.001  -1.201  53.693  1.00  0.00     0.201 C 
ENDBRANCH  29  30
ENDBRANCH  28  29
ENDBRANCH  27  28
ENDBRANCH   1  27
TORSDOF 8
ENDMDL
MODEL 7
REMARK VINA RESULT:      -6.9      4.840      9.353
REMARK  8 active torsions:
REMARK  status: ('A' for Active; 'I' for Inactive)
REMARK    1  A    between atoms: O1_2  and  C2_3 
REMARK    2  A    between atoms: C2_3  and  C3_4 
REMARK    3  A    between atoms: C3_4  and  O2_5 
REMARK    4  A    between atoms: O2_5  and  C4_6 
REMARK    5  A    between atoms: C6_8  and  O3_9 
REMARK    6  A    between atoms: O3_9  and  C7_10 
REMARK    7  A    between atoms: C13_17  and  N1_18 
REMARK    8  A    between atoms: N1_18  and  C14_19 
ROOT
HETATM    1  C4  UNL     1      27.367   5.050  48.747  1.00  0.00     0.073 A 
HETATM    2  C5  UNL     1      28.575   5.440  48.214  1.00  0.00     0.074 A 
HETATM    3  C6  UNL     1      28.779   6.700  47.715  1.00  0.00     0.088 A 
HETATM    4  C12 UNL     1      27.675   7.557  47.785  1.00  0.00     0.072 A 
HETATM    5  C13 UNL     1      27.716   8.856  47.325  1.00  0.00     0.144 A 
HETATM    6  N2  UNL     1      26.657   9.685  47.388  1.00  0.00    -0.223 NA
HETATM    7  C20 UNL     1      25.496   9.257  47.919  1.00  0.00     0.236 A 
HETATM    8  N3  UNL     1      25.402   7.997  48.384  1.00  0.00    -0.241 NA
HETATM    9  C21 UNL     1      26.465   7.168  48.318  1.00  0.00     0.077 A 
HETATM   10  C22 UNL     1      26.281   5.897  48.816  1.00  0.00     0.069 A 
ENDROOT
BRANCH   5  11
HETATM   11  N1  UNL     1      28.904   9.388  46.753  1.00  0.00    -0.340 N 
HETATM   12  H18 UNL     1      29.438   9.077  45.927  1.00  0.00     0.167 HD
BRANCH  11  13
HETATM   13  C14 UNL     1      29.389  10.518  47.463  1.00  0.00     0.035 A 
HETATM   14  C15 UNL     1      30.125  10.441  48.625  1.00  0.00     0.029 A 
HETATM   15  C16 UNL     1      30.583  11.559  49.297  1.00  0.00     0.004 A 
HETATM   16  C17 UNL     1      30.314  12.823  48.821  1.00  0.00     0.024 A 
HETATM   17  C18 UNL     1      29.584  12.963  47.667  1.00  0.00     0.036 A 
HETATM   18 CL1  UNL     1      29.216  14.547  47.023  1.00  0.00    -0.084 Cl
HETATM   19  C19 UNL     1      29.154  11.812  47.040  1.00  0.00     0.053 A 
ENDBRANCH  11  13
ENDBRANCH   5  11
BRANCH   3  20
HETATM   20  O3  UNL     1      29.896   7.275  47.149  1.00  0.00    -0.345 OA
BRANCH  20  21
HETATM   21  C7  UNL     1      31.221   7.130  47.607  1.00  0.00     0.133 C 
HETATM   22  C8  UNL     1      31.851   5.949  46.933  1.00  0.00     0.058 C 
HETATM   23  C9  UNL     1      32.270   4.838  47.830  1.00  0.00     0.170 C 
HETATM   24  O4  UNL     1      33.000   5.411  48.893  1.00  0.00    -0.391 OA
HETATM   25  C10 UNL     1      32.025   5.972  49.713  1.00  0.00     0.170 C 
HETATM   26  C11 UNL     1      31.313   7.117  49.105  1.00  0.00     0.058 C 
ENDBRANCH  20  21
ENDBRANCH   3  20
BRANCH   1  27
HETATM   27  O2  UNL     1      27.218   3.763  49.237  1.00  0.00    -0.349 OA
BRANCH  27  28
HETATM   28  C3  UNL     1      25.976   3.205  49.619  1.00  0.00     0.201 C 
BRANCH  28  29
HETATM   29  C2  UNL     1      26.049   3.026  51.120  1.00  0.00     0.193 C 
BRANCH  29  30
HETATM   30  O1  UNL     1      27.253   2.505  51.561  1.00  0.00    -0.394 OA
HETATM   31  C1  UNL     1      27.108   1.309  52.259  1.00  0.00     0.201 C 
ENDBRANCH  29  30
ENDBRANCH  28  29
ENDBRANCH  27  28
ENDBRANCH   1  27
TORSDOF 8
ENDMDL
MODEL 8
REMARK VINA RESULT:      -6.8      3.153      6.291
REMARK  8 active torsions:
REMARK  status: ('A' for Active; 'I' for Inactive)
REMARK    1  A    between atoms: O1_2  and  C2_3 
REMARK    2  A    between atoms: C2_3  and  C3_4 
REMARK    3  A    between atoms: C3_4  and  O2_5 
REMARK    4  A    between atoms: O2_5  and  C4_6 
REMARK    5  A    between atoms: C6_8  and  O3_9 
REMARK    6  A    between atoms: O3_9  and  C7_10 
REMARK    7  A    between atoms: C13_17  and  N1_18 
REMARK    8  A    between atoms: N1_18  and  C14_19 
ROOT
HETATM    1  C4  UNL     1      25.906   1.071  51.981  1.00  0.00     0.073 A 
HETATM    2  C5  UNL     1      24.558   1.299  52.146  1.00  0.00     0.074 A 
HETATM    3  C6  UNL     1      23.920   2.357  51.553  1.00  0.00     0.088 A 
HETATM    4  C12 UNL     1      24.734   3.184  50.771  1.00  0.00     0.072 A 
HETATM    5  C13 UNL     1      24.247   4.291  50.108  1.00  0.00     0.144 A 
HETATM    6  N2  UNL     1      25.025   5.091  49.356  1.00  0.00    -0.223 NA
HETATM    7  C20 UNL     1      26.339   4.825  49.225  1.00  0.00     0.236 A 
HETATM    8  N3  UNL     1      26.866   3.756  49.850  1.00  0.00    -0.241 NA
HETATM    9  C21 UNL     1      26.084   2.956  50.605  1.00  0.00     0.077 A 
HETATM   10  C22 UNL     1      26.706   1.887  51.210  1.00  0.00     0.069 A 
ENDROOT
BRANCH   5  11
HETATM   11  N1  UNL     1      22.871   4.640  50.191  1.00  0.00    -0.340 N 
HETATM   12  H18 UNL     1      22.339   5.051  50.974  1.00  0.00     0.167 HD
BRANCH  11  13
HETATM   13  C14 UNL     1      22.168   4.362  48.990  1.00  0.00     0.035 A 
HETATM   14  C15 UNL     1      22.597   3.469  48.034  1.00  0.00     0.029 A 
HETATM   15  C16 UNL     1      21.893   3.219  46.871  1.00  0.00     0.004 A 
HETATM   16  C17 UNL     1      20.705   3.869  46.616  1.00  0.00     0.024 A 
HETATM   17  C18 UNL     1      20.227   4.772  47.533  1.00  0.00     0.036 A 
HETATM   18 CL1  UNL     1      18.724   5.623  47.256  1.00  0.00    -0.084 Cl
HETATM   19  C19 UNL     1      20.973   4.980  48.675  1.00  0.00     0.053 A 
ENDBRANCH  11  13
ENDBRANCH   5  11
BRANCH   3  20
HETATM   20  O3  UNL     1      22.602   2.752  51.594  1.00  0.00    -0.345 OA
BRANCH  20  21
HETATM   21  C7  UNL     1      21.489   1.900  51.749  1.00  0.00     0.133 C 
HETATM   22  C8  UNL     1      21.324   1.071  50.512  1.00  0.00     0.058 C 
HETATM   23  C9  UNL     1      20.053   1.271  49.763  1.00  0.00     0.170 C 
HETATM   24  O4  UNL     1      19.000   1.207  50.701  1.00  0.00    -0.391 OA
HETATM   25  C10 UNL     1      19.045   2.439  51.348  1.00  0.00     0.170 C 
HETATM   26  C11 UNL     1      20.254   2.640  52.175  1.00  0.00     0.058 C 
ENDBRANCH  20  21
ENDBRANCH   3  20
BRANCH   1  27
HETATM   27  O2  UNL     1      26.498  -0.015  52.606  1.00  0.00    -0.349 OA
BRANCH  27  28
HETATM   28  C3  UNL     1      25.850  -0.814  53.577  1.00  0.00     0.201 C 
BRANCH  28  29
HETATM   29  C2  UNL     1      26.268  -0.253  54.919  1.00  0.00     0.193 C 
BRANCH  29  30
HETATM   30  O1  UNL     1      25.603  -0.821  55.992  1.00  0.00    -0.394 OA
HETATM   31  C1  UNL     1      24.333  -1.287  55.663  1.00  0.00     0.201 C 
ENDBRANCH  29  30
ENDBRANCH  28  29
ENDBRANCH  27  28
ENDBRANCH   1  27
TORSDOF 8
ENDMDL
MODEL 9
REMARK VINA RESULT:      -6.7      2.341      4.739
REMARK  8 active torsions:
REMARK  status: ('A' for Active; 'I' for Inactive)
REMARK    1  A    between atoms: O1_2  and  C2_3 
REMARK    2  A    between atoms: C2_3  and  C3_4 
REMARK    3  A    between atoms: C3_4  and  O2_5 
REMARK    4  A    between atoms: O2_5  and  C4_6 
REMARK    5  A    between atoms: C6_8  and  O3_9 
REMARK    6  A    between atoms: O3_9  and  C7_10 
REMARK    7  A    between atoms: C13_17  and  N1_18 
REMARK    8  A    between atoms: N1_18  and  C14_19 
ROOT
HETATM    1  C4  UNL     1      26.151   5.423  49.157  1.00  0.00     0.073 A 
HETATM    2  C5  UNL     1      24.929   5.723  49.717  1.00  0.00     0.074 A 
HETATM    3  C6  UNL     1      24.324   4.899  50.629  1.00  0.00     0.088 A 
HETATM    4  C12 UNL     1      25.033   3.736  50.948  1.00  0.00     0.072 A 
HETATM    5  C13 UNL     1      24.560   2.803  51.846  1.00  0.00     0.144 A 
HETATM    6  N2  UNL     1      25.236   1.681  52.156  1.00  0.00    -0.223 NA
HETATM    7  C20 UNL     1      26.428   1.432  51.581  1.00  0.00     0.236 A 
HETATM    8  N3  UNL     1      26.937   2.311  50.698  1.00  0.00    -0.241 NA
HETATM    9  C21 UNL     1      26.256   3.434  50.388  1.00  0.00     0.077 A 
HETATM   10  C22 UNL     1      26.848   4.276  49.474  1.00  0.00     0.069 A 
ENDROOT
BRANCH   5  11
HETATM   11  N1  UNL     1      23.310   2.991  52.500  1.00  0.00    -0.340 N 
HETATM   12  H18 UNL     1      22.995   3.755  53.117  1.00  0.00     0.167 HD
BRANCH  11  13
HETATM   13  C14 UNL     1      22.394   1.940  52.230  1.00  0.00     0.035 A 
HETATM   14  C15 UNL     1      21.759   1.762  51.021  1.00  0.00     0.029 A 
HETATM   15  C16 UNL     1      20.869   0.730  50.787  1.00  0.00     0.004 A 
HETATM   16  C17 UNL     1      20.575  -0.181  51.777  1.00  0.00     0.024 A 
HETATM   17  C18 UNL     1      21.178  -0.054  53.004  1.00  0.00     0.036 A 
HETATM   18 CL1  UNL     1      20.837  -1.187  54.292  1.00  0.00    -0.084 Cl
HETATM   19  C19 UNL     1      22.057   0.994  53.178  1.00  0.00     0.053 A 
ENDBRANCH  11  13
ENDBRANCH   5  11
BRANCH   3  20
HETATM   20  O3  UNL     1      23.123   5.019  51.293  1.00  0.00    -0.345 OA
BRANCH  20  21
HETATM   21  C7  UNL     1      21.959   5.634  50.789  1.00  0.00     0.133 C 
HETATM   22  C8  UNL     1      21.634   5.055  49.447  1.00  0.00     0.058 C 
HETATM   23  C9  UNL     1      21.663   6.008  48.305  1.00  0.00     0.170 C 
HETATM   24  O4  UNL     1      20.920   7.145  48.689  1.00  0.00    -0.391 OA
HETATM   25  C10 UNL     1      21.772   7.835  49.547  1.00  0.00     0.170 C 
HETATM   26  C11 UNL     1      22.043   7.134  50.820  1.00  0.00     0.058 C 
ENDBRANCH  20  21
ENDBRANCH   3  20
BRANCH   1  27
HETATM   27  O2  UNL     1      26.717   6.293  48.239  1.00  0.00    -0.349 OA
BRANCH  27  28
HETATM   28  C3  UNL     1      28.088   6.639  48.225  1.00  0.00     0.201 C 
BRANCH  28  29
HETATM   29  C2  UNL     1      28.132   8.152  48.247  1.00  0.00     0.193 C 
BRANCH  29  30
HETATM   30  O1  UNL     1      27.059   8.731  48.901  1.00  0.00    -0.394 OA
HETATM   31  C1  UNL     1      27.399   9.265  50.141  1.00  0.00     0.201 C 
ENDBRANCH  29  30
ENDBRANCH  28  29
ENDBRANCH  27  28
ENDBRANCH   1  27
TORSDOF 8
ENDMDL
