MODEL 1
REMARK VINA RESULT:      -7.3      0.000      0.000
REMARK  0 active torsions:
REMARK  status: ('A' for Active; 'I' for Inactive)
ROOT
HETATM    1  F1  UNL     1      21.131   1.245  50.979  1.00  0.00    -0.379 F 
HETATM    2  C1  UNL     1      22.426   0.949  51.158  1.00  0.00     0.170 A 
HETATM    3  C2  UNL     1      21.935   1.141  49.939  1.00  0.00     0.175 A 
HETATM    4  C3  UNL     1      20.846   1.459  48.950  1.00  0.00     0.042 C 
HETATM    5  C4  UNL     1      19.776   2.330  49.592  1.00  0.00     0.049 C 
HETATM    6  C5  UNL     1      20.423   3.626  50.029  1.00  0.00     0.083 C 
HETATM    7  N1  UNL     1      20.876   4.112  51.116  1.00  0.00    -0.305 NA
HETATM    8  C6  UNL     1      21.452   5.390  51.259  1.00  0.00     0.156 C 
HETATM    9  C7  UNL     1      22.961   5.277  51.393  1.00  0.00     0.058 C 
HETATM   10  C8  UNL     1      23.338   4.765  52.732  1.00  0.00     0.281 C 
HETATM   11  N2  UNL     1      23.445   3.359  52.904  1.00  0.00     0.126 N 
HETATM   12  C9  UNL     1      24.797   2.934  52.778  1.00  0.00     0.533 C 
HETATM   13  C10 UNL     1      25.214   3.113  51.351  1.00  0.00     0.224 C 
HETATM   14  N3  UNL     1      26.112   2.330  50.855  1.00  0.00    -0.153 NA
HETATM   15  N4  UNL     1      26.729   1.311  51.581  1.00  0.00    -0.284 N 
HETATM   16  C11 UNL     1      26.563   1.469  53.029  1.00  0.00     0.417 C 
HETATM   17  N5  UNL     1      25.139   1.655  53.292  1.00  0.00     0.152 N 
HETATM   18  C12 UNL     1      24.347   0.616  52.698  1.00  0.00     0.307 C 
HETATM   19  C13 UNL     1      22.940   0.702  53.229  1.00  0.00     0.026 C 
HETATM   20  C14 UNL     1      21.811   0.885  52.516  1.00  0.00     0.052 C 
HETATM   21 CL1  UNL     1      20.497   0.905  53.724  1.00  0.00    -0.086 Cl
HETATM   22  O1  UNL     1      24.801   4.015  50.387  1.00  0.00    -0.333 OA
HETATM   23  C15 UNL     1      23.521   4.569  50.214  1.00  0.00     0.185 C 
HETATM   24  H12 UNL     1      23.107   3.088  53.859  1.00  0.00     0.319 HD
HETATM   25  H14 UNL     1      27.260   0.501  51.199  1.00  0.00     0.184 HD
ENDROOT
TORSDOF 0
ENDMDL
MODEL 2
REMARK VINA RESULT:      -7.3      2.797      4.527
REMARK  0 active torsions:
REMARK  status: ('A' for Active; 'I' for Inactive)
ROOT
HETATM    1  F1  UNL     1      24.480   3.330  52.174  1.00  0.00    -0.379 F 
HETATM    2  C1  UNL     1      23.891   2.474  53.020  1.00  0.00     0.170 A 
HETATM    3  C2  UNL     1      23.602   3.770  53.053  1.00  0.00     0.175 A 
HETATM    4  C3  UNL     1      23.716   5.197  52.591  1.00  0.00     0.042 C 
HETATM    5  C4  UNL     1      24.121   5.256  51.124  1.00  0.00     0.049 C 
HETATM    6  C5  UNL     1      23.044   4.571  50.311  1.00  0.00     0.083 C 
HETATM    7  N1  UNL     1      22.872   3.424  49.785  1.00  0.00    -0.305 NA
HETATM    8  C6  UNL     1      21.735   3.025  49.054  1.00  0.00     0.156 C 
HETATM    9  C7  UNL     1      20.870   2.095  49.889  1.00  0.00     0.058 C 
HETATM   10  C8  UNL     1      21.487   0.752  50.000  1.00  0.00     0.281 C 
HETATM   11  N2  UNL     1      22.384   0.515  51.075  1.00  0.00     0.126 N 
HETATM   12  C9  UNL     1      21.717  -0.118  52.161  1.00  0.00     0.533 C 
HETATM   13  C10 UNL     1      20.756   0.863  52.757  1.00  0.00     0.224 C 
HETATM   14  N3  UNL     1      20.468   0.777  54.012  1.00  0.00    -0.153 NA
HETATM   15  N4  UNL     1      21.004  -0.192  54.861  1.00  0.00    -0.284 N 
HETATM   16  C11 UNL     1      21.594  -1.317  54.129  1.00  0.00     0.417 C 
HETATM   17  N5  UNL     1      22.516  -0.767  53.140  1.00  0.00     0.152 N 
HETATM   18  C12 UNL     1      23.461   0.134  53.735  1.00  0.00     0.307 C 
HETATM   19  C13 UNL     1      24.542   0.447  52.735  1.00  0.00     0.026 C 
HETATM   20  C14 UNL     1      24.881   1.661  52.256  1.00  0.00     0.052 C 
HETATM   21 CL1  UNL     1      26.216   1.352  51.111  1.00  0.00    -0.086 Cl
HETATM   22  O1  UNL     1      20.064   1.920  52.194  1.00  0.00    -0.333 OA
HETATM   23  C15 UNL     1      20.482   2.769  51.155  1.00  0.00     0.185 C 
HETATM   24  H12 UNL     1      23.162  -0.114  50.761  1.00  0.00     0.319 HD
HETATM   25  H14 UNL     1      21.020  -0.176  55.902  1.00  0.00     0.184 HD
ENDROOT
TORSDOF 0
ENDMDL
MODEL 3
REMARK VINA RESULT:      -7.1      3.176      4.749
REMARK  0 active torsions:
REMARK  status: ('A' for Active; 'I' for Inactive)
ROOT
HETATM    1  F1  UNL     1      23.822   3.077  48.715  1.00  0.00    -0.379 F 
HETATM    2  C1  UNL     1      24.040   4.397  48.646  1.00  0.00     0.170 A 
HETATM    3  C2  UNL     1      22.945   3.861  48.119  1.00  0.00     0.175 A 
HETATM    4  C3  UNL     1      22.018   2.724  47.783  1.00  0.00     0.042 C 
HETATM    5  C4  UNL     1      22.168   1.594  48.792  1.00  0.00     0.049 C 
HETATM    6  C5  UNL     1      21.798   2.129  50.158  1.00  0.00     0.083 C 
HETATM    7  N1  UNL     1      22.422   2.563  51.180  1.00  0.00    -0.305 NA
HETATM    8  C6  UNL     1      21.819   3.022  52.368  1.00  0.00     0.156 C 
HETATM    9  C7  UNL     1      21.887   4.538  52.443  1.00  0.00     0.058 C 
HETATM   10  C8  UNL     1      23.262   4.993  52.758  1.00  0.00     0.281 C 
HETATM   11  N2  UNL     1      24.150   5.233  51.676  1.00  0.00     0.126 N 
HETATM   12  C9  UNL     1      24.176   6.615  51.338  1.00  0.00     0.533 C 
HETATM   13  C10 UNL     1      22.850   6.978  50.747  1.00  0.00     0.224 C 
HETATM   14  N3  UNL     1      22.788   7.932  49.880  1.00  0.00    -0.153 NA
HETATM   15  N4  UNL     1      23.900   8.658  49.454  1.00  0.00    -0.284 N 
HETATM   16  C11 UNL     1      25.047   8.513  50.356  1.00  0.00     0.417 C 
HETATM   17  N5  UNL     1      25.270   7.085  50.562  1.00  0.00     0.152 N 
HETATM   18  C12 UNL     1      25.380   6.378  49.318  1.00  0.00     0.307 C 
HETATM   19  C13 UNL     1      25.880   4.983  49.586  1.00  0.00     0.026 C 
HETATM   20  C14 UNL     1      25.261   3.824  49.283  1.00  0.00     0.052 C 
HETATM   21 CL1  UNL     1      26.359   2.544  49.867  1.00  0.00    -0.086 Cl
HETATM   22  O1  UNL     1      21.584   6.461  50.959  1.00  0.00    -0.333 OA
HETATM   23  C15 UNL     1      21.233   5.131  51.249  1.00  0.00     0.185 C 
HETATM   24  H12 UNL     1      25.123   4.945  51.941  1.00  0.00     0.319 HD
HETATM   25  H14 UNL     1      23.974   9.252  48.602  1.00  0.00     0.184 HD
ENDROOT
TORSDOF 0
ENDMDL
MODEL 4
REMARK VINA RESULT:      -7.0      8.629      9.952
REMARK  0 active torsions:
REMARK  status: ('A' for Active; 'I' for Inactive)
ROOT
HETATM    1  F1  UNL     1      28.169   7.907  46.527  1.00  0.00    -0.379 F 
HETATM    2  C1  UNL     1      29.332   7.254  46.660  1.00  0.00     0.170 A 
HETATM    3  C2  UNL     1      29.124   8.071  45.634  1.00  0.00     0.175 A 
HETATM    4  C3  UNL     1      28.319   9.044  44.816  1.00  0.00     0.042 C 
HETATM    5  C4  UNL     1      27.320   9.784  45.694  1.00  0.00     0.049 C 
HETATM    6  C5  UNL     1      28.093  10.557  46.739  1.00  0.00     0.083 C 
HETATM    7  N1  UNL     1      28.410  10.394  47.962  1.00  0.00    -0.305 NA
HETATM    8  C6  UNL     1      29.167  11.297  48.735  1.00  0.00     0.156 C 
HETATM    9  C7  UNL     1      30.578  10.769  48.932  1.00  0.00     0.058 C 
HETATM   10  C8  UNL     1      30.595   9.651  49.905  1.00  0.00     0.281 C 
HETATM   11  N2  UNL     1      30.414   8.332  49.409  1.00  0.00     0.126 N 
HETATM   12  C9  UNL     1      31.667   7.685  49.218  1.00  0.00     0.533 C 
HETATM   13  C10 UNL     1      32.373   8.358  48.083  1.00  0.00     0.224 C 
HETATM   14  N3  UNL     1      33.194   7.673  47.359  1.00  0.00    -0.153 NA
HETATM   15  N4  UNL     1      33.469   6.323  47.576  1.00  0.00    -0.284 N 
HETATM   16  C11 UNL     1      33.061   5.871  48.910  1.00  0.00     0.417 C 
HETATM   17  N5  UNL     1      31.670   6.269  49.105  1.00  0.00     0.152 N 
HETATM   18  C12 UNL     1      30.832   5.822  48.028  1.00  0.00     0.307 C 
HETATM   19  C13 UNL     1      29.389   6.013  48.413  1.00  0.00     0.026 C 
HETATM   20  C14 UNL     1      28.467   6.760  47.771  1.00  0.00     0.052 C 
HETATM   21 CL1  UNL     1      26.973   6.577  48.730  1.00  0.00    -0.086 Cl
HETATM   22  O1  UNL     1      32.321   9.660  47.618  1.00  0.00    -0.333 OA
HETATM   23  C15 UNL     1      31.217  10.530  47.612  1.00  0.00     0.185 C 
HETATM   24  H12 UNL     1      29.858   7.766  50.094  1.00  0.00     0.319 HD
HETATM   25  H14 UNL     1      33.910   5.656  46.909  1.00  0.00     0.184 HD
ENDROOT
TORSDOF 0
ENDMDL
MODEL 5
REMARK VINA RESULT:      -6.7      2.617      3.714
REMARK  0 active torsions:
REMARK  status: ('A' for Active; 'I' for Inactive)
ROOT
HETATM    1  F1  UNL     1      20.765   2.106  48.400  1.00  0.00    -0.379 F 
HETATM    2  C1  UNL     1      20.827   1.203  49.389  1.00  0.00     0.170 A 
HETATM    3  C2  UNL     1      21.853   1.380  48.564  1.00  0.00     0.175 A 
HETATM    4  C3  UNL     1      22.569   2.027  47.410  1.00  0.00     0.042 C 
HETATM    5  C4  UNL     1      22.061   3.445  47.190  1.00  0.00     0.049 C 
HETATM    6  C5  UNL     1      22.343   4.246  48.442  1.00  0.00     0.083 C 
HETATM    7  N1  UNL     1      21.687   4.618  49.468  1.00  0.00    -0.305 NA
HETATM    8  C6  UNL     1      22.204   5.384  50.532  1.00  0.00     0.156 C 
HETATM    9  C7  UNL     1      22.432   4.506  51.752  1.00  0.00     0.058 C 
HETATM   10  C8  UNL     1      21.147   4.152  52.400  1.00  0.00     0.281 C 
HETATM   11  N2  UNL     1      20.479   2.978  51.961  1.00  0.00     0.126 N 
HETATM   12  C9  UNL     1      20.776   1.878  52.813  1.00  0.00     0.533 C 
HETATM   13  C10 UNL     1      22.216   1.515  52.624  1.00  0.00     0.224 C 
HETATM   14  N3  UNL     1      22.585   0.291  52.804  1.00  0.00    -0.153 NA
HETATM   15  N4  UNL     1      21.708  -0.730  53.172  1.00  0.00    -0.284 N 
HETATM   16  C11 UNL     1      20.445  -0.221  53.714  1.00  0.00     0.417 C 
HETATM   17  N5  UNL     1      19.914   0.750  52.761  1.00  0.00     0.152 N 
HETATM   18  C12 UNL     1      19.833   0.206  51.435  1.00  0.00     0.307 C 
HETATM   19  C13 UNL     1      19.032   1.139  50.567  1.00  0.00     0.026 C 
HETATM   20  C14 UNL     1      19.442   1.754  49.438  1.00  0.00     0.052 C 
HETATM   21 CL1  UNL     1      18.040   2.719  48.901  1.00  0.00    -0.086 Cl
HETATM   22  O1  UNL     1      23.312   2.281  52.270  1.00  0.00    -0.333 OA
HETATM   23  C15 UNL     1      23.347   3.389  51.405  1.00  0.00     0.185 C 
HETATM   24  H12 UNL     1      19.441   3.130  51.977  1.00  0.00     0.319 HD
HETATM   25  H14 UNL     1      21.871  -1.756  53.094  1.00  0.00     0.184 HD
ENDROOT
TORSDOF 0
ENDMDL
MODEL 6
REMARK VINA RESULT:      -6.7      2.489      3.832
REMARK  0 active torsions:
REMARK  status: ('A' for Active; 'I' for Inactive)
ROOT
HETATM    1  F1  UNL     1      19.984   4.762  51.228  1.00  0.00    -0.379 F 
HETATM    2  C1  UNL     1      20.934   4.126  51.928  1.00  0.00     0.170 A 
HETATM    3  C2  UNL     1      19.694   3.654  51.882  1.00  0.00     0.175 A 
HETATM    4  C3  UNL     1      18.254   3.664  51.445  1.00  0.00     0.042 C 
HETATM    5  C4  UNL     1      18.105   4.375  50.107  1.00  0.00     0.049 C 
HETATM    6  C5  UNL     1      18.916   3.618  49.078  1.00  0.00     0.083 C 
HETATM    7  N1  UNL     1      20.063   3.735  48.538  1.00  0.00    -0.305 NA
HETATM    8  C6  UNL     1      20.602   2.861  47.573  1.00  0.00     0.156 C 
HETATM    9  C7  UNL     1      21.664   1.972  48.200  1.00  0.00     0.058 C 
HETATM   10  C8  UNL     1      22.909   2.735  48.459  1.00  0.00     0.281 C 
HETATM   11  N2  UNL     1      23.041   3.392  49.711  1.00  0.00     0.126 N 
HETATM   12  C9  UNL     1      23.788   2.595  50.625  1.00  0.00     0.533 C 
HETATM   13  C10 UNL     1      22.967   1.395  50.979  1.00  0.00     0.224 C 
HETATM   14  N3  UNL     1      23.122   0.847  52.138  1.00  0.00    -0.153 NA
HETATM   15  N4  UNL     1      24.025   1.313  53.094  1.00  0.00    -0.284 N 
HETATM   16  C11 UNL     1      25.038   2.207  52.525  1.00  0.00     0.417 C 
HETATM   17  N5  UNL     1      24.340   3.239  51.764  1.00  0.00     0.152 N 
HETATM   18  C12 UNL     1      23.328   3.887  52.549  1.00  0.00     0.307 C 
HETATM   19  C13 UNL     1      22.842   5.109  51.816  1.00  0.00     0.026 C 
HETATM   20  C14 UNL     1      21.581   5.369  51.414  1.00  0.00     0.052 C 
HETATM   21 CL1  UNL     1      21.671   6.956  50.603  1.00  0.00    -0.086 Cl
HETATM   22  O1  UNL     1      22.006   0.702  50.264  1.00  0.00    -0.333 OA
HETATM   23  C15 UNL     1      21.082   1.217  49.338  1.00  0.00     0.185 C 
HETATM   24  H12 UNL     1      23.546   4.302  49.587  1.00  0.00     0.319 HD
HETATM   25  H14 UNL     1      24.032   1.091  54.111  1.00  0.00     0.184 HD
ENDROOT
TORSDOF 0
ENDMDL
MODEL 7
REMARK VINA RESULT:      -6.6      2.546      5.020
REMARK  0 active torsions:
REMARK  status: ('A' for Active; 'I' for Inactive)
ROOT
HETATM    1  F1  UNL     1      24.581   2.431  52.415  1.00  0.00    -0.379 F 
HETATM    2  C1  UNL     1      24.279   2.858  51.181  1.00  0.00     0.170 A 
HETATM    3  C2  UNL     1      24.896   1.697  51.367  1.00  0.00     0.175 A 
HETATM    4  C3  UNL     1      25.507   0.604  52.201  1.00  0.00     0.042 C 
HETATM    5  C4  UNL     1      24.868   0.561  53.582  1.00  0.00     0.049 C 
HETATM    6  C5  UNL     1      23.394   0.269  53.410  1.00  0.00     0.083 C 
HETATM    7  N1  UNL     1      22.314   0.944  53.390  1.00  0.00    -0.305 NA
HETATM    8  C6  UNL     1      21.023   0.411  53.203  1.00  0.00     0.156 C 
HETATM    9  C7  UNL     1      20.523   0.719  51.802  1.00  0.00     0.058 C 
HETATM   10  C8  UNL     1      20.142   2.146  51.676  1.00  0.00     0.281 C 
HETATM   11  N2  UNL     1      21.143   3.072  51.278  1.00  0.00     0.126 N 
HETATM   12  C9  UNL     1      21.074   3.322  49.878  1.00  0.00     0.533 C 
HETATM   13  C10 UNL     1      21.488   2.076  49.159  1.00  0.00     0.224 C 
HETATM   14  N3  UNL     1      22.045   2.176  47.999  1.00  0.00    -0.153 NA
HETATM   15  N4  UNL     1      22.287   3.394  47.364  1.00  0.00    -0.284 N 
HETATM   16  C11 UNL     1      21.507   4.494  47.938  1.00  0.00     0.417 C 
HETATM   17  N5  UNL     1      21.723   4.484  49.382  1.00  0.00     0.152 N 
HETATM   18  C12 UNL     1      23.120   4.492  49.711  1.00  0.00     0.307 C 
HETATM   19  C13 UNL     1      23.279   4.759  51.184  1.00  0.00     0.026 C 
HETATM   20  C14 UNL     1      23.876   3.966  52.096  1.00  0.00     0.052 C 
HETATM   21 CL1  UNL     1      23.722   4.840  53.645  1.00  0.00    -0.086 Cl
HETATM   22  O1  UNL     1      21.386   0.742  49.511  1.00  0.00    -0.333 OA
HETATM   23  C15 UNL     1      21.474   0.180  50.797  1.00  0.00     0.185 C 
HETATM   24  H12 UNL     1      21.006   3.984  51.777  1.00  0.00     0.319 HD
HETATM   25  H14 UNL     1      22.937   3.570  46.570  1.00  0.00     0.184 HD
ENDROOT
TORSDOF 0
ENDMDL
MODEL 8
REMARK VINA RESULT:      -6.6      2.812      3.802
REMARK  0 active torsions:
REMARK  status: ('A' for Active; 'I' for Inactive)
ROOT
HETATM    1  F1  UNL     1      22.866   2.078  49.713  1.00  0.00    -0.379 F 
HETATM    2  C1  UNL     1      23.765   3.005  49.355  1.00  0.00     0.170 A 
HETATM    3  C2  UNL     1      22.966   2.450  48.452  1.00  0.00     0.175 A 
HETATM    4  C3  UNL     1      21.867   1.528  47.997  1.00  0.00     0.042 C 
HETATM    5  C4  UNL     1      20.880   1.271  49.128  1.00  0.00     0.049 C 
HETATM    6  C5  UNL     1      20.264   2.595  49.525  1.00  0.00     0.083 C 
HETATM    7  N1  UNL     1      20.446   3.460  50.442  1.00  0.00    -0.305 NA
HETATM    8  C6  UNL     1      19.712   4.653  50.594  1.00  0.00     0.156 C 
HETATM    9  C7  UNL     1      20.544   5.845  50.150  1.00  0.00     0.058 C 
HETATM   10  C8  UNL     1      21.595   6.159  51.147  1.00  0.00     0.281 C 
HETATM   11  N2  UNL     1      22.855   5.517  51.015  1.00  0.00     0.126 N 
HETATM   12  C9  UNL     1      23.782   6.356  50.334  1.00  0.00     0.533 C 
HETATM   13  C10 UNL     1      23.338   6.486  48.910  1.00  0.00     0.224 C 
HETATM   14  N3  UNL     1      24.224   6.682  47.992  1.00  0.00    -0.153 NA
HETATM   15  N4  UNL     1      25.591   6.783  48.250  1.00  0.00    -0.284 N 
HETATM   16  C11 UNL     1      25.880   7.045  49.663  1.00  0.00     0.417 C 
HETATM   17  N5  UNL     1      25.163   6.047  50.453  1.00  0.00     0.152 N 
HETATM   18  C12 UNL     1      25.448   4.712  50.010  1.00  0.00     0.307 C 
HETATM   19  C13 UNL     1      24.912   3.732  51.020  1.00  0.00     0.026 C 
HETATM   20  C14 UNL     1      23.999   2.762  50.809  1.00  0.00     0.052 C 
HETATM   21 CL1  UNL     1      23.792   1.967  52.393  1.00  0.00    -0.086 Cl
HETATM   22  O1  UNL     1      22.080   6.435  48.338  1.00  0.00    -0.333 OA
HETATM   23  C15 UNL     1      20.979   5.661  48.742  1.00  0.00     0.185 C 
HETATM   24  H12 UNL     1      23.248   5.301  51.962  1.00  0.00     0.319 HD
HETATM   25  H14 UNL     1      26.368   6.691  47.563  1.00  0.00     0.184 HD
ENDROOT
TORSDOF 0
ENDMDL
MODEL 9
REMARK VINA RESULT:      -6.6      3.348      4.788
REMARK  0 active torsions:
REMARK  status: ('A' for Active; 'I' for Inactive)
ROOT
HETATM    1  F1  UNL     1      23.933   3.513  48.595  1.00  0.00    -0.379 F 
HETATM    2  C1  UNL     1      23.312   2.556  49.298  1.00  0.00     0.170 A 
HETATM    3  C2  UNL     1      24.399   3.152  49.774  1.00  0.00     0.175 A 
HETATM    4  C3  UNL     1      25.537   4.135  49.728  1.00  0.00     0.042 C 
HETATM    5  C4  UNL     1      25.175   5.336  48.867  1.00  0.00     0.049 C 
HETATM    6  C5  UNL     1      23.975   6.017  49.490  1.00  0.00     0.083 C 
HETATM    7  N1  UNL     1      22.716   6.028  49.299  1.00  0.00    -0.305 NA
HETATM    8  C6  UNL     1      21.785   6.774  50.048  1.00  0.00     0.156 C 
HETATM    9  C7  UNL     1      21.017   5.864  50.992  1.00  0.00     0.058 C 
HETATM   10  C8  UNL     1      20.029   5.043  50.253  1.00  0.00     0.281 C 
HETATM   11  N2  UNL     1      20.451   3.785  49.746  1.00  0.00     0.126 N 
HETATM   12  C9  UNL     1      20.092   2.734  50.636  1.00  0.00     0.533 C 
HETATM   13  C10 UNL     1      20.916   2.870  51.878  1.00  0.00     0.224 C 
HETATM   14  N3  UNL     1      21.211   1.812  52.556  1.00  0.00    -0.153 NA
HETATM   15  N4  UNL     1      20.799   0.528  52.196  1.00  0.00    -0.284 N 
HETATM   16  C11 UNL     1      19.695   0.540  51.231  1.00  0.00     0.417 C 
HETATM   17  N5  UNL     1      20.085   1.409  50.125  1.00  0.00     0.152 N 
HETATM   18  C12 UNL     1      21.363   1.042  49.584  1.00  0.00     0.307 C 
HETATM   19  C13 UNL     1      21.581   1.780  48.289  1.00  0.00     0.026 C 
HETATM   20  C14 UNL     1      22.585   2.632  47.997  1.00  0.00     0.052 C 
HETATM   21 CL1  UNL     1      22.266   3.168  46.325  1.00  0.00    -0.086 Cl
HETATM   22  O1  UNL     1      21.466   3.981  52.492  1.00  0.00    -0.333 OA
HETATM   23  C15 UNL     1      21.965   5.145  51.882  1.00  0.00     0.185 C 
HETATM   24  H12 UNL     1      19.992   3.599  48.822  1.00  0.00     0.319 HD
HETATM   25  H14 UNL     1      21.191  -0.375  52.535  1.00  0.00     0.184 HD
ENDROOT
TORSDOF 0
ENDMDL
