MODEL 1
REMARK VINA RESULT:      -8.6      0.000      0.000
REMARK  3 active torsions:
REMARK  status: ('A' for Active; 'I' for Inactive)
REMARK    1  A    between atoms: C2_2  and  C3_3 
REMARK    2  A    between atoms: N2_13  and  C12_14 
REMARK    3  A    between atoms: C13_16  and  O1_17 
ROOT
HETATM    1  C3  UNL     1      21.378   1.961  49.568  1.00  0.00     0.004 C 
HETATM    2  C4  UNL     1      20.003   1.515  49.507  1.00  0.00     0.016 C 
HETATM    3  C5  UNL     1      19.282   0.758  50.365  1.00  0.00    -0.019 C 
HETATM    4  C6  UNL     1      19.911   0.232  51.647  1.00  0.00     0.062 C 
HETATM    5  C7  UNL     1      19.301  -0.550  52.615  1.00  0.00    -0.028 C 
HETATM    6  C8  UNL     1      17.999  -1.276  53.063  1.00  0.00     0.015 C 
HETATM    7  C9  UNL     1      20.333  -0.710  53.666  1.00  0.00    -0.019 C 
HETATM    8  C10 UNL     1      21.451  -0.657  54.393  1.00  0.00     0.025 C 
HETATM    9  C11 UNL     1      22.755   0.009  54.134  1.00  0.00     0.056 C 
HETATM   10  N1  UNL     1      23.980  -0.239  54.336  1.00  0.00    -0.175 NA
HETATM   11  N2  UNL     1      24.824  -0.050  53.242  1.00  0.00    -0.240 N 
HETATM   12  C15 UNL     1      23.975   0.792  52.399  1.00  0.00     0.122 C 
HETATM   13  C16 UNL     1      24.735   1.771  51.608  1.00  0.00     0.055 C 
HETATM   14  C17 UNL     1      23.918   2.274  50.495  1.00  0.00    -0.023 C 
HETATM   15  C18 UNL     1      22.671   1.935  50.296  1.00  0.00     0.015 C 
HETATM   16  C19 UNL     1      23.054   1.335  53.465  1.00  0.00     0.088 C 
ENDROOT
BRANCH  11  17
HETATM   17  C12 UNL     1      26.146  -0.637  53.189  1.00  0.00     0.192 A 
HETATM   18  N3  UNL     1      26.409  -1.738  53.005  1.00  0.00    -0.198 NA
HETATM   19  C13 UNL     1      27.563  -2.363  52.942  1.00  0.00     0.171 A 
HETATM   20  C14 UNL     1      28.671  -1.469  53.148  1.00  0.00     0.111 A 
HETATM   21  S1  UNL     1      27.819   0.236  53.414  1.00  0.00    -0.058 SA
BRANCH  19  22
HETATM   22  O1  UNL     1      28.410  -3.444  52.786  1.00  0.00    -0.344 OA
HETATM   23  H11 UNL     1      28.736  -3.767  51.897  1.00  0.00     0.219 HD
ENDBRANCH  19  22
ENDBRANCH  11  17
BRANCH   1  24
HETATM   24  C2  UNL     1      21.909   2.759  48.651  1.00  0.00    -0.143 C 
HETATM   25  C1  UNL     1      22.232   3.359  47.517  1.00  0.00     0.097 C 
ENDBRANCH   1  24
TORSDOF 3
ENDMDL
MODEL 2
REMARK VINA RESULT:      -8.6      1.422      2.117
REMARK  3 active torsions:
REMARK  status: ('A' for Active; 'I' for Inactive)
REMARK    1  A    between atoms: C2_2  and  C3_3 
REMARK    2  A    between atoms: N2_13  and  C12_14 
REMARK    3  A    between atoms: C13_16  and  O1_17 
ROOT
HETATM    1  C3  UNL     1      23.618   3.783  49.313  1.00  0.00     0.004 C 
HETATM    2  C4  UNL     1      22.313   3.626  48.710  1.00  0.00     0.016 C 
HETATM    3  C5  UNL     1      21.296   2.789  49.014  1.00  0.00    -0.019 C 
HETATM    4  C6  UNL     1      21.424   1.804  50.168  1.00  0.00     0.062 C 
HETATM    5  C7  UNL     1      20.473   0.891  50.594  1.00  0.00    -0.028 C 
HETATM    6  C8  UNL     1      19.046   0.307  50.373  1.00  0.00     0.015 C 
HETATM    7  C9  UNL     1      21.084   0.247  51.781  1.00  0.00    -0.019 C 
HETATM    8  C10 UNL     1      21.897  -0.116  52.773  1.00  0.00     0.025 C 
HETATM    9  C11 UNL     1      23.258   0.356  53.144  1.00  0.00     0.056 C 
HETATM   10  N1  UNL     1      24.326  -0.153  53.597  1.00  0.00    -0.175 NA
HETATM   11  N2  UNL     1      25.496   0.199  52.925  1.00  0.00    -0.240 N 
HETATM   12  C15 UNL     1      25.037   1.389  52.207  1.00  0.00     0.122 C 
HETATM   13  C16 UNL     1      26.086   2.408  52.049  1.00  0.00     0.055 C 
HETATM   14  C17 UNL     1      25.723   3.355  50.985  1.00  0.00    -0.023 C 
HETATM   15  C18 UNL     1      24.592   3.315  50.331  1.00  0.00     0.015 C 
HETATM   16  C19 UNL     1      23.858   1.745  53.079  1.00  0.00     0.088 C 
ENDROOT
BRANCH  11  17
HETATM   17  C12 UNL     1      26.714  -0.570  53.063  1.00  0.00     0.192 A 
HETATM   18  N3  UNL     1      26.841  -1.700  52.914  1.00  0.00    -0.198 NA
HETATM   19  C13 UNL     1      27.891  -2.483  53.018  1.00  0.00     0.171 A 
HETATM   20  C14 UNL     1      29.074  -1.752  53.386  1.00  0.00     0.111 A 
HETATM   21  S1  UNL     1      28.445   0.061  53.533  1.00  0.00    -0.058 SA
BRANCH  19  22
HETATM   22  O1  UNL     1      28.589  -3.676  52.982  1.00  0.00    -0.344 OA
HETATM   23  H11 UNL     1      28.305  -4.497  53.478  1.00  0.00     0.219 HD
ENDBRANCH  19  22
ENDBRANCH  11  17
BRANCH   1  24
HETATM   24  C2  UNL     1      24.480   4.710  48.915  1.00  0.00    -0.143 C 
HETATM   25  C1  UNL     1      25.065   5.854  48.599  1.00  0.00     0.097 C 
ENDBRANCH   1  24
TORSDOF 3
ENDMDL
MODEL 3
REMARK VINA RESULT:      -8.3      5.138      7.073
REMARK  3 active torsions:
REMARK  status: ('A' for Active; 'I' for Inactive)
REMARK    1  A    between atoms: C2_2  and  C3_3 
REMARK    2  A    between atoms: N2_13  and  C12_14 
REMARK    3  A    between atoms: C13_16  and  O1_17 
ROOT
HETATM    1  C3  UNL     1      24.715   1.076  52.193  1.00  0.00     0.004 C 
HETATM    2  C4  UNL     1      23.464   0.699  52.815  1.00  0.00     0.016 C 
HETATM    3  C5  UNL     1      22.227   1.232  52.700  1.00  0.00    -0.019 C 
HETATM    4  C6  UNL     1      21.982   2.428  51.791  1.00  0.00     0.062 C 
HETATM    5  C7  UNL     1      20.776   3.076  51.574  1.00  0.00    -0.028 C 
HETATM    6  C8  UNL     1      19.259   3.140  51.916  1.00  0.00     0.015 C 
HETATM    7  C9  UNL     1      21.090   4.109  50.557  1.00  0.00    -0.019 C 
HETATM    8  C10 UNL     1      21.692   4.901  49.670  1.00  0.00     0.025 C 
HETATM    9  C11 UNL     1      23.105   4.954  49.206  1.00  0.00     0.056 C 
HETATM   10  N1  UNL     1      23.941   5.845  48.877  1.00  0.00    -0.175 NA
HETATM   11  N2  UNL     1      25.205   5.733  49.457  1.00  0.00    -0.240 N 
HETATM   12  C15 UNL     1      25.167   4.338  49.896  1.00  0.00     0.122 C 
HETATM   13  C16 UNL     1      26.479   3.676  49.828  1.00  0.00     0.055 C 
HETATM   14  C17 UNL     1      26.484   2.463  50.658  1.00  0.00    -0.023 C 
HETATM   15  C18 UNL     1      25.437   2.020  51.304  1.00  0.00     0.015 C 
HETATM   16  C19 UNL     1      24.092   3.831  48.966  1.00  0.00     0.088 C 
ENDROOT
BRANCH  11  17
HETATM   17  C12 UNL     1      26.128   6.847  49.492  1.00  0.00     0.192 A 
HETATM   18  N3  UNL     1      26.140   7.714  50.243  1.00  0.00    -0.198 NA
HETATM   19  C13 UNL     1      26.925   8.761  50.356  1.00  0.00     0.171 A 
HETATM   20  C14 UNL     1      27.939   8.788  49.336  1.00  0.00     0.111 A 
HETATM   21  S1  UNL     1      27.575   7.199  48.312  1.00  0.00    -0.058 SA
BRANCH  19  22
HETATM   22  O1  UNL     1      27.393   9.939  50.910  1.00  0.00    -0.344 OA
HETATM   23  H11 UNL     1      27.726  10.711  50.368  1.00  0.00     0.219 HD
ENDBRANCH  19  22
ENDBRANCH  11  17
BRANCH   1  24
HETATM   24  C2  UNL     1      25.837   0.393  52.380  1.00  0.00    -0.143 C 
HETATM   25  C1  UNL     1      26.724  -0.555  52.633  1.00  0.00     0.097 C 
ENDBRANCH   1  24
TORSDOF 3
ENDMDL
MODEL 4
REMARK VINA RESULT:      -8.3      4.172      6.397
REMARK  3 active torsions:
REMARK  status: ('A' for Active; 'I' for Inactive)
REMARK    1  A    between atoms: C2_2  and  C3_3 
REMARK    2  A    between atoms: N2_13  and  C12_14 
REMARK    3  A    between atoms: C13_16  and  O1_17 
ROOT
HETATM    1  C3  UNL     1      23.322  -0.491  53.879  1.00  0.00     0.004 C 
HETATM    2  C4  UNL     1      22.347  -1.324  54.550  1.00  0.00     0.016 C 
HETATM    3  C5  UNL     1      21.015  -1.451  54.357  1.00  0.00    -0.019 C 
HETATM    4  C6  UNL     1      20.308  -0.639  53.280  1.00  0.00     0.062 C 
HETATM    5  C7  UNL     1      18.958  -0.663  52.969  1.00  0.00    -0.028 C 
HETATM    6  C8  UNL     1      17.563  -1.272  53.297  1.00  0.00     0.015 C 
HETATM    7  C9  UNL     1      18.829   0.252  51.811  1.00  0.00    -0.019 C 
HETATM    8  C10 UNL     1      19.058   1.110  50.815  1.00  0.00     0.025 C 
HETATM    9  C11 UNL     1      20.315   1.755  50.349  1.00  0.00     0.056 C 
HETATM   10  N1  UNL     1      20.665   2.883  49.892  1.00  0.00    -0.175 NA
HETATM   11  N2  UNL     1      21.794   3.451  50.483  1.00  0.00    -0.240 N 
HETATM   12  C15 UNL     1      22.375   2.271  51.123  1.00  0.00     0.122 C 
HETATM   13  C16 UNL     1      23.845   2.296  51.155  1.00  0.00     0.055 C 
HETATM   14  C17 UNL     1      24.352   1.347  52.156  1.00  0.00    -0.023 C 
HETATM   15  C18 UNL     1      23.586   0.555  52.860  1.00  0.00     0.015 C 
HETATM   16  C19 UNL     1      21.723   1.203  50.279  1.00  0.00     0.088 C 
ENDROOT
BRANCH  11  17
HETATM   17  C12 UNL     1      22.094   4.861  50.352  1.00  0.00     0.192 A 
HETATM   18  N3  UNL     1      22.828   5.474  50.983  1.00  0.00    -0.198 NA
HETATM   19  C13 UNL     1      23.164   6.744  50.946  1.00  0.00     0.171 A 
HETATM   20  C14 UNL     1      22.462   7.457  49.913  1.00  0.00     0.111 A 
HETATM   21  S1  UNL     1      21.360   6.098  49.110  1.00  0.00    -0.058 SA
BRANCH  19  22
HETATM   22  O1  UNL     1      23.839   7.887  51.334  1.00  0.00    -0.344 OA
HETATM   23  H11 UNL     1      24.468   7.920  52.111  1.00  0.00     0.219 HD
ENDBRANCH  19  22
ENDBRANCH  11  17
BRANCH   1  24
HETATM   24  C2  UNL     1      24.616  -0.540  54.166  1.00  0.00    -0.143 C 
HETATM   25  C1  UNL     1      25.791  -0.467  54.770  1.00  0.00     0.097 C 
ENDBRANCH   1  24
TORSDOF 3
ENDMDL
MODEL 5
REMARK VINA RESULT:      -7.9      4.689      7.090
REMARK  3 active torsions:
REMARK  status: ('A' for Active; 'I' for Inactive)
REMARK    1  A    between atoms: C2_2  and  C3_3 
REMARK    2  A    between atoms: N2_13  and  C12_14 
REMARK    3  A    between atoms: C13_16  and  O1_17 
ROOT
HETATM    1  C3  UNL     1      25.594   3.050  50.518  1.00  0.00     0.004 C 
HETATM    2  C4  UNL     1      26.521   2.517  51.492  1.00  0.00     0.016 C 
HETATM    3  C5  UNL     1      26.345   1.593  52.463  1.00  0.00    -0.019 C 
HETATM    4  C6  UNL     1      24.991   0.924  52.657  1.00  0.00     0.062 C 
HETATM    5  C7  UNL     1      24.663  -0.034  53.603  1.00  0.00    -0.028 C 
HETATM    6  C8  UNL     1      25.163  -0.905  54.793  1.00  0.00     0.015 C 
HETATM    7  C9  UNL     1      23.255  -0.384  53.302  1.00  0.00    -0.019 C 
HETATM    8  C10 UNL     1      22.030  -0.460  52.779  1.00  0.00     0.025 C 
HETATM    9  C11 UNL     1      21.407   0.263  51.638  1.00  0.00     0.056 C 
HETATM   10  N1  UNL     1      20.271   0.745  51.353  1.00  0.00    -0.175 NA
HETATM   11  N2  UNL     1      20.274   2.048  50.854  1.00  0.00    -0.240 N 
HETATM   12  C15 UNL     1      21.677   2.170  50.455  1.00  0.00     0.122 C 
HETATM   13  C16 UNL     1      21.866   3.013  49.265  1.00  0.00     0.055 C 
HETATM   14  C17 UNL     1      23.266   3.450  49.165  1.00  0.00    -0.023 C 
HETATM   15  C18 UNL     1      24.206   3.076  49.993  1.00  0.00     0.015 C 
HETATM   16  C19 UNL     1      22.010   0.705  50.320  1.00  0.00     0.088 C 
ENDROOT
BRANCH  11  17
HETATM   17  C12 UNL     1      19.078   2.862  50.844  1.00  0.00     0.192 A 
HETATM   18  N3  UNL     1      18.439   3.166  51.746  1.00  0.00    -0.198 NA
HETATM   19  C13 UNL     1      17.347   3.891  51.839  1.00  0.00     0.171 A 
HETATM   20  C14 UNL     1      16.907   4.370  50.556  1.00  0.00     0.111 A 
HETATM   21  S1  UNL     1      18.221   3.655  49.345  1.00  0.00    -0.058 SA
BRANCH  19  22
HETATM   22  O1  UNL     1      16.292   4.513  52.480  1.00  0.00    -0.344 OA
HETATM   23  H11 UNL     1      16.058   5.477  52.353  1.00  0.00     0.219 HD
ENDBRANCH  19  22
ENDBRANCH  11  17
BRANCH   1  24
HETATM   24  C2  UNL     1      25.961   3.924  49.589  1.00  0.00    -0.143 C 
HETATM   25  C1  UNL     1      26.568   4.887  48.916  1.00  0.00     0.097 C 
ENDBRANCH   1  24
TORSDOF 3
ENDMDL
MODEL 6
REMARK VINA RESULT:      -7.8      3.879      6.980
REMARK  3 active torsions:
REMARK  status: ('A' for Active; 'I' for Inactive)
REMARK    1  A    between atoms: C2_2  and  C3_3 
REMARK    2  A    between atoms: N2_13  and  C12_14 
REMARK    3  A    between atoms: C13_16  and  O1_17 
ROOT
HETATM    1  C3  UNL     1      26.028   0.926  51.926  1.00  0.00     0.004 C 
HETATM    2  C4  UNL     1      26.735   1.757  50.975  1.00  0.00     0.016 C 
HETATM    3  C5  UNL     1      26.322   2.830  50.264  1.00  0.00    -0.019 C 
HETATM    4  C6  UNL     1      24.897   3.349  50.405  1.00  0.00     0.062 C 
HETATM    5  C7  UNL     1      24.335   4.430  49.745  1.00  0.00    -0.028 C 
HETATM    6  C8  UNL     1      24.556   5.579  48.718  1.00  0.00     0.015 C 
HETATM    7  C9  UNL     1      22.966   4.532  50.303  1.00  0.00    -0.019 C 
HETATM    8  C10 UNL     1      21.838   4.346  50.990  1.00  0.00     0.025 C 
HETATM    9  C11 UNL     1      21.474   3.335  52.018  1.00  0.00     0.056 C 
HETATM   10  N1  UNL     1      20.448   2.667  52.341  1.00  0.00    -0.175 NA
HETATM   11  N2  UNL     1      20.652   1.301  52.537  1.00  0.00    -0.240 N 
HETATM   12  C15 UNL     1      22.105   1.276  52.707  1.00  0.00     0.122 C 
HETATM   13  C16 UNL     1      22.560   0.241  53.648  1.00  0.00     0.055 C 
HETATM   14  C17 UNL     1      23.992  -0.028  53.459  1.00  0.00    -0.023 C 
HETATM   15  C18 UNL     1      24.749   0.621  52.614  1.00  0.00     0.015 C 
HETATM   16  C19 UNL     1      22.316   2.715  53.113  1.00  0.00     0.088 C 
ENDROOT
BRANCH  11  17
HETATM   17  C12 UNL     1      19.555   0.358  52.531  1.00  0.00     0.192 A 
HETATM   18  N3  UNL     1      19.299  -0.414  53.339  1.00  0.00    -0.198 NA
HETATM   19  C13 UNL     1      18.338  -1.305  53.424  1.00  0.00     0.171 A 
HETATM   20  C14 UNL     1      17.472  -1.276  52.276  1.00  0.00     0.111 A 
HETATM   21  S1  UNL     1      18.230   0.120  51.189  1.00  0.00    -0.058 SA
BRANCH  19  22
HETATM   22  O1  UNL     1      17.608  -2.329  54.000  1.00  0.00    -0.344 OA
HETATM   23  H11 UNL     1      16.748  -2.675  53.624  1.00  0.00     0.219 HD
ENDBRANCH  19  22
ENDBRANCH  11  17
BRANCH   1  24
HETATM   24  C2  UNL     1      26.619  -0.065  52.582  1.00  0.00    -0.143 C 
HETATM   25  C1  UNL     1      27.503  -0.906  53.093  1.00  0.00     0.097 C 
ENDBRANCH   1  24
TORSDOF 3
ENDMDL
MODEL 7
REMARK VINA RESULT:      -7.7      4.159      7.006
REMARK  3 active torsions:
REMARK  status: ('A' for Active; 'I' for Inactive)
REMARK    1  A    between atoms: C2_2  and  C3_3 
REMARK    2  A    between atoms: N2_13  and  C12_14 
REMARK    3  A    between atoms: C13_16  and  O1_17 
ROOT
HETATM    1  C3  UNL     1      20.039  -0.605  53.242  1.00  0.00     0.004 C 
HETATM    2  C4  UNL     1      20.985  -1.413  53.980  1.00  0.00     0.016 C 
HETATM    3  C5  UNL     1      22.313  -1.256  54.179  1.00  0.00    -0.019 C 
HETATM    4  C6  UNL     1      23.048  -0.065  53.581  1.00  0.00     0.062 C 
HETATM    5  C7  UNL     1      24.398   0.227  53.698  1.00  0.00    -0.028 C 
HETATM    6  C8  UNL     1      25.771  -0.210  54.286  1.00  0.00     0.015 C 
HETATM    7  C9  UNL     1      24.560   1.520  52.993  1.00  0.00    -0.019 C 
HETATM    8  C10 UNL     1      24.362   2.647  52.307  1.00  0.00     0.025 C 
HETATM    9  C11 UNL     1      23.127   3.225  51.711  1.00  0.00     0.056 C 
HETATM   10  N1  UNL     1      22.815   3.867  50.665  1.00  0.00    -0.175 NA
HETATM   11  N2  UNL     1      21.703   3.389  49.971  1.00  0.00    -0.240 N 
HETATM   12  C15 UNL     1      21.082   2.565  51.009  1.00  0.00     0.122 C 
HETATM   13  C16 UNL     1      19.614   2.551  50.934  1.00  0.00     0.055 C 
HETATM   14  C17 UNL     1      19.074   1.409  51.687  1.00  0.00    -0.023 C 
HETATM   15  C18 UNL     1      19.811   0.577  52.373  1.00  0.00     0.015 C 
HETATM   16  C19 UNL     1      21.702   3.214  52.223  1.00  0.00     0.088 C 
ENDROOT
BRANCH  11  17
HETATM   17  C12 UNL     1      21.449   3.755  48.595  1.00  0.00     0.192 A 
HETATM   18  N3  UNL     1      21.985   3.359  47.662  1.00  0.00    -0.198 NA
HETATM   19  C13 UNL     1      21.831   3.628  46.385  1.00  0.00     0.171 A 
HETATM   20  C14 UNL     1      20.794   4.599  46.159  1.00  0.00     0.111 A 
HETATM   21  S1  UNL     1      20.166   4.994  47.935  1.00  0.00    -0.058 SA
BRANCH  19  22
HETATM   22  O1  UNL     1      22.091   3.528  45.030  1.00  0.00    -0.344 OA
HETATM   23  H11 UNL     1      22.296   4.315  44.448  1.00  0.00     0.219 HD
ENDBRANCH  19  22
ENDBRANCH  11  17
BRANCH   1  24
HETATM   24  C2  UNL     1      18.742  -0.884  53.202  1.00  0.00    -0.143 C 
HETATM   25  C1  UNL     1      17.546  -1.409  53.407  1.00  0.00     0.097 C 
ENDBRANCH   1  24
TORSDOF 3
ENDMDL
MODEL 8
REMARK VINA RESULT:      -7.5      4.604      7.845
REMARK  3 active torsions:
REMARK  status: ('A' for Active; 'I' for Inactive)
REMARK    1  A    between atoms: C2_2  and  C3_3 
REMARK    2  A    between atoms: N2_13  and  C12_14 
REMARK    3  A    between atoms: C13_16  and  O1_17 
ROOT
HETATM    1  C3  UNL     1      25.040   0.674  52.859  1.00  0.00     0.004 C 
HETATM    2  C4  UNL     1      26.352   0.922  52.302  1.00  0.00     0.016 C 
HETATM    3  C5  UNL     1      26.763   1.826  51.385  1.00  0.00    -0.019 C 
HETATM    4  C6  UNL     1      25.774   2.803  50.765  1.00  0.00     0.062 C 
HETATM    5  C7  UNL     1      26.048   3.778  49.819  1.00  0.00    -0.028 C 
HETATM    6  C8  UNL     1      27.133   4.453  48.929  1.00  0.00     0.015 C 
HETATM    7  C9  UNL     1      24.756   4.479  49.626  1.00  0.00    -0.019 C 
HETATM    8  C10 UNL     1      23.485   4.878  49.690  1.00  0.00     0.025 C 
HETATM    9  C11 UNL     1      22.342   4.375  50.498  1.00  0.00     0.056 C 
HETATM   10  N1  UNL     1      21.098   4.203  50.340  1.00  0.00    -0.175 NA
HETATM   11  N2  UNL     1      20.603   2.959  50.735  1.00  0.00    -0.240 N 
HETATM   12  C15 UNL     1      21.698   2.505  51.593  1.00  0.00     0.122 C 
HETATM   13  C16 UNL     1      21.242   1.686  52.726  1.00  0.00     0.055 C 
HETATM   14  C17 UNL     1      22.363   0.917  53.286  1.00  0.00    -0.023 C 
HETATM   15  C18 UNL     1      23.595   1.014  52.861  1.00  0.00     0.015 C 
HETATM   16  C19 UNL     1      22.312   3.845  51.917  1.00  0.00     0.088 C 
ENDROOT
BRANCH  11  17
HETATM   17  C12 UNL     1      19.320   2.470  50.281  1.00  0.00     0.192 A 
HETATM   18  N3  UNL     1      19.022   1.380  50.089  1.00  0.00    -0.198 NA
HETATM   19  C13 UNL     1      17.896   0.840  49.678  1.00  0.00     0.171 A 
HETATM   20  C14 UNL     1      16.881   1.830  49.437  1.00  0.00     0.111 A 
HETATM   21  S1  UNL     1      17.766   3.484  49.868  1.00  0.00    -0.058 SA
BRANCH  19  22
HETATM   22  O1  UNL     1      17.044  -0.185  49.312  1.00  0.00    -0.344 OA
HETATM   23  H11 UNL     1      16.453  -0.151  48.506  1.00  0.00     0.219 HD
ENDBRANCH  19  22
ENDBRANCH  11  17
BRANCH   1  24
HETATM   24  C2  UNL     1      24.829  -0.230  53.808  1.00  0.00    -0.143 C 
HETATM   25  C1  UNL     1      24.930  -1.001  54.878  1.00  0.00     0.097 C 
ENDBRANCH   1  24
TORSDOF 3
ENDMDL
MODEL 9
REMARK VINA RESULT:      -7.5      4.498      7.129
REMARK  3 active torsions:
REMARK  status: ('A' for Active; 'I' for Inactive)
REMARK    1  A    between atoms: C2_2  and  C3_3 
REMARK    2  A    between atoms: N2_13  and  C12_14 
REMARK    3  A    between atoms: C13_16  and  O1_17 
ROOT
HETATM    1  C3  UNL     1      23.263   7.471  50.109  1.00  0.00     0.004 C 
HETATM    2  C4  UNL     1      23.917   8.601  49.483  1.00  0.00     0.016 C 
HETATM    3  C5  UNL     1      25.130   8.701  48.895  1.00  0.00    -0.019 C 
HETATM    4  C6  UNL     1      26.050   7.492  48.808  1.00  0.00     0.062 C 
HETATM    5  C7  UNL     1      27.313   7.445  48.238  1.00  0.00    -0.028 C 
HETATM    6  C8  UNL     1      28.432   8.236  47.501  1.00  0.00     0.015 C 
HETATM    7  C9  UNL     1      27.722   6.026  48.364  1.00  0.00    -0.019 C 
HETATM    8  C10 UNL     1      27.777   4.720  48.629  1.00  0.00     0.025 C 
HETATM    9  C11 UNL     1      26.797   3.813  49.286  1.00  0.00     0.056 C 
HETATM   10  N1  UNL     1      26.833   2.824  50.076  1.00  0.00    -0.175 NA
HETATM   11  N2  UNL     1      25.963   2.888  51.165  1.00  0.00    -0.240 N 
HETATM   12  C15 UNL     1      25.033   3.916  50.696  1.00  0.00     0.122 C 
HETATM   13  C16 UNL     1      23.655   3.702  51.161  1.00  0.00     0.055 C 
HETATM   14  C17 UNL     1      22.876   4.943  51.039  1.00  0.00    -0.023 C 
HETATM   15  C18 UNL     1      23.346   6.049  50.525  1.00  0.00     0.015 C 
HETATM   16  C19 UNL     1      25.285   3.798  49.212  1.00  0.00     0.088 C 
ENDROOT
BRANCH  11  17
HETATM   17  C12 UNL     1      26.144   2.055  52.334  1.00  0.00     0.192 A 
HETATM   18  N3  UNL     1      27.098   1.937  52.960  1.00  0.00    -0.198 NA
HETATM   19  C13 UNL     1      27.361   1.212  54.024  1.00  0.00     0.171 A 
HETATM   20  C14 UNL     1      26.222   0.444  54.449  1.00  0.00     0.111 A 
HETATM   21  S1  UNL     1      24.868   0.919  53.166  1.00  0.00    -0.058 SA
BRANCH  19  22
HETATM   22  O1  UNL     1      28.136   0.711  55.054  1.00  0.00    -0.344 OA
HETATM   23  H11 UNL     1      28.533   1.280  55.774  1.00  0.00     0.219 HD
ENDBRANCH  19  22
ENDBRANCH  11  17
BRANCH   1  24
HETATM   24  C2  UNL     1      22.029   7.541  50.590  1.00  0.00    -0.143 C 
HETATM   25  C1  UNL     1      20.714   7.608  50.720  1.00  0.00     0.097 C 
ENDBRANCH   1  24
TORSDOF 3
ENDMDL
