MODEL 1
REMARK VINA RESULT:      -8.1      0.000      0.000
REMARK  7 active torsions:
REMARK  status: ('A' for Active; 'I' for Inactive)
REMARK    1  A    between atoms: C1_2  and  C2_3 
REMARK    2  A    between atoms: C2_3  and  C3_4 
REMARK    3  A    between atoms: C4_5  and  C5_6 
REMARK    4  A    between atoms: C5_6  and  N1_7 
REMARK    5  A    between atoms: N1_7  and  C6_8 
REMARK    6  A    between atoms: C11_15  and  N4_16 
REMARK    7  A    between atoms: N4_16  and  C12_17 
ROOT
HETATM    1  C6  UNL     1      24.377  -0.312  53.401  1.00  0.00     0.029 A 
HETATM    2  C7  UNL     1      24.857  -0.532  54.675  1.00  0.00     0.031 A 
HETATM    3  C8  UNL     1      26.049   0.068  55.017  1.00  0.00     0.035 A 
HETATM    4  C9  UNL     1      26.718   0.854  54.104  1.00  0.00     0.072 A 
HETATM    5  N2  UNL     1      27.883   1.408  54.519  1.00  0.00    -0.241 NA
HETATM    6  C10 UNL     1      28.603   2.189  53.695  1.00  0.00     0.236 A 
HETATM    7  N3  UNL     1      28.111   2.381  52.470  1.00  0.00    -0.224 NA
HETATM    8  C11 UNL     1      26.990   1.888  51.972  1.00  0.00     0.142 A 
HETATM    9  C18 UNL     1      26.283   1.104  52.823  1.00  0.00     0.041 A 
HETATM   10  C19 UNL     1      25.096   0.485  52.535  1.00  0.00     0.046 A 
ENDROOT
BRANCH   8  11
HETATM   11  N4  UNL     1      26.495   2.109  50.669  1.00  0.00    -0.340 N 
HETATM   12  H13 UNL     1      26.388   1.341  49.986  1.00  0.00     0.167 HD
BRANCH  11  13
HETATM   13  C12 UNL     1      26.070   3.317  50.059  1.00  0.00     0.035 A 
HETATM   14  C13 UNL     1      24.745   3.751  49.962  1.00  0.00     0.029 A 
HETATM   15  C14 UNL     1      24.364   4.919  49.368  1.00  0.00     0.004 A 
HETATM   16  C15 UNL     1      25.297   5.762  48.812  1.00  0.00     0.019 A 
HETATM   17  C16 UNL     1      26.623   5.368  48.888  1.00  0.00     0.013 A 
HETATM   18 BR1  UNL     1      27.870   6.576  48.101  1.00  0.00    -0.051 Br
HETATM   19  C17 UNL     1      26.955   4.182  49.497  1.00  0.00     0.048 A 
ENDBRANCH  11  13
ENDBRANCH   8  11
BRANCH   1  20
HETATM   20  N1  UNL     1      23.146  -0.927  53.034  1.00  0.00    -0.386 N 
HETATM   21  H9  UNL     1      23.127  -1.951  52.823  1.00  0.00     0.160 HD
BRANCH  20  22
HETATM   22  C5  UNL     1      21.962  -0.104  52.966  1.00  0.00     0.147 C 
BRANCH  22  23
HETATM   23  C4  UNL     1      21.564   0.213  51.580  1.00  0.00    -0.011 C 
HETATM   24  C3  UNL     1      21.892   0.939  50.508  1.00  0.00    -0.027 C 
BRANCH  24  25
HETATM   25  C2  UNL     1      21.183   0.995  49.177  1.00  0.00     0.058 C 
BRANCH  25  26
HETATM   26  C1  UNL     1      21.827   2.124  48.400  1.00  0.00     0.225 C 
HETATM   27  F1  UNL     1      22.666   1.591  47.431  1.00  0.00    -0.255 F 
ENDBRANCH  25  26
ENDBRANCH  24  25
ENDBRANCH  22  23
ENDBRANCH  20  22
ENDBRANCH   1  20
TORSDOF 7
ENDMDL
MODEL 2
REMARK VINA RESULT:      -7.9      1.385      1.646
REMARK  7 active torsions:
REMARK  status: ('A' for Active; 'I' for Inactive)
REMARK    1  A    between atoms: C1_2  and  C2_3 
REMARK    2  A    between atoms: C2_3  and  C3_4 
REMARK    3  A    between atoms: C4_5  and  C5_6 
REMARK    4  A    between atoms: C5_6  and  N1_7 
REMARK    5  A    between atoms: N1_7  and  C6_8 
REMARK    6  A    between atoms: C11_15  and  N4_16 
REMARK    7  A    between atoms: N4_16  and  C12_17 
ROOT
HETATM    1  C6  UNL     1      24.497  -0.340  53.474  1.00  0.00     0.029 A 
HETATM    2  C7  UNL     1      24.995  -0.632  54.727  1.00  0.00     0.031 A 
HETATM    3  C8  UNL     1      26.202  -0.068  55.078  1.00  0.00     0.035 A 
HETATM    4  C9  UNL     1      26.867   0.755  54.195  1.00  0.00     0.072 A 
HETATM    5  N2  UNL     1      28.047   1.270  54.617  1.00  0.00    -0.241 NA
HETATM    6  C10 UNL     1      28.766   2.082  53.822  1.00  0.00     0.236 A 
HETATM    7  N3  UNL     1      28.256   2.344  52.618  1.00  0.00    -0.224 NA
HETATM    8  C11 UNL     1      27.120   1.893  52.114  1.00  0.00     0.142 A 
HETATM    9  C18 UNL     1      26.415   1.076  52.937  1.00  0.00     0.041 A 
HETATM   10  C19 UNL     1      25.214   0.490  52.637  1.00  0.00     0.046 A 
ENDROOT
BRANCH   8  11
HETATM   11  N4  UNL     1      26.606   2.189  50.834  1.00  0.00    -0.340 N 
HETATM   12  H13 UNL     1      26.645   1.508  50.057  1.00  0.00     0.167 HD
BRANCH  11  13
HETATM   13  C12 UNL     1      25.979   3.371  50.364  1.00  0.00     0.035 A 
HETATM   14  C13 UNL     1      26.533   4.270  49.449  1.00  0.00     0.029 A 
HETATM   15  C14 UNL     1      25.907   5.403  49.014  1.00  0.00     0.004 A 
HETATM   16  C15 UNL     1      24.653   5.732  49.471  1.00  0.00     0.019 A 
HETATM   17  C16 UNL     1      24.069   4.866  50.380  1.00  0.00     0.013 A 
HETATM   18 BR1  UNL     1      22.332   5.374  50.977  1.00  0.00    -0.051 Br
HETATM   19  C17 UNL     1      24.741   3.738  50.786  1.00  0.00     0.048 A 
ENDBRANCH  11  13
ENDBRANCH   8  11
BRANCH   1  20
HETATM   20  N1  UNL     1      23.252  -0.918  53.097  1.00  0.00    -0.386 N 
HETATM   21  H9  UNL     1      23.235  -1.880  52.687  1.00  0.00     0.160 HD
BRANCH  20  22
HETATM   22  C5  UNL     1      22.049  -0.144  53.296  1.00  0.00     0.147 C 
BRANCH  22  23
HETATM   23  C4  UNL     1      21.661   0.628  52.099  1.00  0.00    -0.011 C 
HETATM   24  C3  UNL     1      22.031   0.937  50.853  1.00  0.00    -0.027 C 
BRANCH  24  25
HETATM   25  C2  UNL     1      21.313   1.827  49.869  1.00  0.00     0.058 C 
BRANCH  25  26
HETATM   26  C1  UNL     1      21.916   1.531  48.512  1.00  0.00     0.225 C 
HETATM   27  F1  UNL     1      23.019   2.351  48.313  1.00  0.00    -0.255 F 
ENDBRANCH  25  26
ENDBRANCH  24  25
ENDBRANCH  22  23
ENDBRANCH  20  22
ENDBRANCH   1  20
TORSDOF 7
ENDMDL
MODEL 3
REMARK VINA RESULT:      -7.6      2.779      5.209
REMARK  7 active torsions:
REMARK  status: ('A' for Active; 'I' for Inactive)
REMARK    1  A    between atoms: C1_2  and  C2_3 
REMARK    2  A    between atoms: C2_3  and  C3_4 
REMARK    3  A    between atoms: C4_5  and  C5_6 
REMARK    4  A    between atoms: C5_6  and  N1_7 
REMARK    5  A    between atoms: N1_7  and  C6_8 
REMARK    6  A    between atoms: C11_15  and  N4_16 
REMARK    7  A    between atoms: N4_16  and  C12_17 
ROOT
HETATM    1  C6  UNL     1      23.883  -0.043  53.489  1.00  0.00     0.029 A 
HETATM    2  C7  UNL     1      22.666  -0.690  53.542  1.00  0.00     0.031 A 
HETATM    3  C8  UNL     1      21.551   0.020  53.152  1.00  0.00     0.035 A 
HETATM    4  C9  UNL     1      21.673   1.326  52.728  1.00  0.00     0.072 A 
HETATM    5  N2  UNL     1      20.529   1.953  52.362  1.00  0.00    -0.241 NA
HETATM    6  C10 UNL     1      20.552   3.228  51.935  1.00  0.00     0.236 A 
HETATM    7  N3  UNL     1      21.744   3.824  51.896  1.00  0.00    -0.224 NA
HETATM    8  C11 UNL     1      22.912   3.302  52.231  1.00  0.00     0.142 A 
HETATM    9  C18 UNL     1      22.860   2.015  52.657  1.00  0.00     0.041 A 
HETATM   10  C19 UNL     1      23.935   1.266  53.056  1.00  0.00     0.046 A 
ENDROOT
BRANCH   8  11
HETATM   11  N4  UNL     1      24.159   3.959  52.179  1.00  0.00    -0.340 N 
HETATM   12  H13 UNL     1      24.599   4.368  53.020  1.00  0.00     0.167 HD
BRANCH  11  13
HETATM   13  C12 UNL     1      25.012   4.188  51.069  1.00  0.00     0.035 A 
HETATM   14  C13 UNL     1      25.947   3.277  50.568  1.00  0.00     0.029 A 
HETATM   15  C14 UNL     1      26.757   3.523  49.498  1.00  0.00     0.004 A 
HETATM   16  C15 UNL     1      26.696   4.724  48.832  1.00  0.00     0.019 A 
HETATM   17  C16 UNL     1      25.782   5.655  49.297  1.00  0.00     0.013 A 
HETATM   18 BR1  UNL     1      25.742   7.299  48.335  1.00  0.00    -0.051 Br
HETATM   19  C17 UNL     1      24.988   5.358  50.379  1.00  0.00     0.048 A 
ENDBRANCH  11  13
ENDBRANCH   8  11
BRANCH   1  20
HETATM   20  N1  UNL     1      25.042  -0.764  53.890  1.00  0.00    -0.386 N 
HETATM   21  H9  UNL     1      25.136  -1.074  54.885  1.00  0.00     0.160 HD
BRANCH  20  22
HETATM   22  C5  UNL     1      26.055  -1.040  52.899  1.00  0.00     0.147 C 
BRANCH  22  23
HETATM   23  C4  UNL     1      27.374  -0.480  53.256  1.00  0.00    -0.011 C 
HETATM   24  C3  UNL     1      28.685  -0.735  53.253  1.00  0.00    -0.027 C 
BRANCH  24  25
HETATM   25  C2  UNL     1      29.802   0.157  53.738  1.00  0.00     0.058 C 
BRANCH  25  26
HETATM   26  C1  UNL     1      29.139   1.375  54.346  1.00  0.00     0.225 C 
HETATM   27  F1  UNL     1      29.033   2.367  53.381  1.00  0.00    -0.255 F 
ENDBRANCH  25  26
ENDBRANCH  24  25
ENDBRANCH  22  23
ENDBRANCH  20  22
ENDBRANCH   1  20
TORSDOF 7
ENDMDL
MODEL 4
REMARK VINA RESULT:      -7.5      3.069      5.808
REMARK  7 active torsions:
REMARK  status: ('A' for Active; 'I' for Inactive)
REMARK    1  A    between atoms: C1_2  and  C2_3 
REMARK    2  A    between atoms: C2_3  and  C3_4 
REMARK    3  A    between atoms: C4_5  and  C5_6 
REMARK    4  A    between atoms: C5_6  and  N1_7 
REMARK    5  A    between atoms: N1_7  and  C6_8 
REMARK    6  A    between atoms: C11_15  and  N4_16 
REMARK    7  A    between atoms: N4_16  and  C12_17 
ROOT
HETATM    1  C6  UNL     1      23.564  -0.649  53.976  1.00  0.00     0.029 A 
HETATM    2  C7  UNL     1      22.687  -1.254  54.852  1.00  0.00     0.031 A 
HETATM    3  C8  UNL     1      21.342  -1.170  54.563  1.00  0.00     0.035 A 
HETATM    4  C9  UNL     1      20.914  -0.504  53.435  1.00  0.00     0.072 A 
HETATM    5  N2  UNL     1      19.577  -0.469  53.222  1.00  0.00    -0.241 NA
HETATM    6  C10 UNL     1      19.069   0.159  52.147  1.00  0.00     0.236 A 
HETATM    7  N3  UNL     1      19.944   0.733  51.321  1.00  0.00    -0.224 NA
HETATM    8  C11 UNL     1      21.261   0.755  51.439  1.00  0.00     0.142 A 
HETATM    9  C18 UNL     1      21.747   0.114  52.532  1.00  0.00     0.041 A 
HETATM   10  C19 UNL     1      23.070   0.003  52.866  1.00  0.00     0.046 A 
ENDROOT
BRANCH   8  11
HETATM   11  N4  UNL     1      22.163   1.371  50.546  1.00  0.00    -0.340 N 
HETATM   12  H13 UNL     1      22.433   0.933  49.650  1.00  0.00     0.167 HD
BRANCH  11  13
HETATM   13  C12 UNL     1      22.839   2.613  50.661  1.00  0.00     0.035 A 
HETATM   14  C13 UNL     1      22.356   3.736  51.340  1.00  0.00     0.029 A 
HETATM   15  C14 UNL     1      23.028   4.920  51.434  1.00  0.00     0.004 A 
HETATM   16  C15 UNL     1      24.260   5.078  50.846  1.00  0.00     0.019 A 
HETATM   17  C16 UNL     1      24.774   3.988  50.163  1.00  0.00     0.013 A 
HETATM   18 BR1  UNL     1      26.484   4.266  49.369  1.00  0.00    -0.051 Br
HETATM   19  C17 UNL     1      24.058   2.817  50.097  1.00  0.00     0.048 A 
ENDBRANCH  11  13
ENDBRANCH   8  11
BRANCH   1  20
HETATM   20  N1  UNL     1      24.956  -0.726  54.264  1.00  0.00    -0.386 N 
HETATM   21  H9  UNL     1      25.282  -0.637  55.254  1.00  0.00     0.160 HD
BRANCH  20  22
HETATM   22  C5  UNL     1      25.873  -0.925  53.167  1.00  0.00     0.147 C 
BRANCH  22  23
HETATM   23  C4  UNL     1      27.206  -0.344  53.421  1.00  0.00    -0.011 C 
HETATM   24  C3  UNL     1      28.508  -0.634  53.493  1.00  0.00    -0.027 C 
BRANCH  24  25
HETATM   25  C2  UNL     1      29.649   0.305  53.801  1.00  0.00     0.058 C 
BRANCH  25  26
HETATM   26  C1  UNL     1      29.023   1.648  54.107  1.00  0.00     0.225 C 
HETATM   27  F1  UNL     1      29.927   2.421  54.823  1.00  0.00    -0.255 F 
ENDBRANCH  25  26
ENDBRANCH  24  25
ENDBRANCH  22  23
ENDBRANCH  20  22
ENDBRANCH   1  20
TORSDOF 7
ENDMDL
MODEL 5
REMARK VINA RESULT:      -7.5      2.709      5.195
REMARK  7 active torsions:
REMARK  status: ('A' for Active; 'I' for Inactive)
REMARK    1  A    between atoms: C1_2  and  C2_3 
REMARK    2  A    between atoms: C2_3  and  C3_4 
REMARK    3  A    between atoms: C4_5  and  C5_6 
REMARK    4  A    between atoms: C5_6  and  N1_7 
REMARK    5  A    between atoms: N1_7  and  C6_8 
REMARK    6  A    between atoms: C11_15  and  N4_16 
REMARK    7  A    between atoms: N4_16  and  C12_17 
ROOT
HETATM    1  C6  UNL     1      25.458   1.637  53.532  1.00  0.00     0.029 A 
HETATM    2  C7  UNL     1      24.737   0.461  53.538  1.00  0.00     0.031 A 
HETATM    3  C8  UNL     1      23.709   0.342  52.628  1.00  0.00     0.035 A 
HETATM    4  C9  UNL     1      23.430   1.372  51.756  1.00  0.00     0.072 A 
HETATM    5  N2  UNL     1      22.404   1.175  50.893  1.00  0.00    -0.241 NA
HETATM    6  C10 UNL     1      22.061   2.126  50.007  1.00  0.00     0.236 A 
HETATM    7  N3  UNL     1      22.778   3.250  50.028  1.00  0.00    -0.224 NA
HETATM    8  C11 UNL     1      23.792   3.538  50.826  1.00  0.00     0.142 A 
HETATM    9  C18 UNL     1      24.117   2.562  51.710  1.00  0.00     0.041 A 
HETATM   10  C19 UNL     1      25.127   2.630  52.633  1.00  0.00     0.046 A 
ENDROOT
BRANCH   8  11
HETATM   11  N4  UNL     1      24.532   4.739  50.824  1.00  0.00    -0.340 N 
HETATM   12  H13 UNL     1      24.337   5.504  51.492  1.00  0.00     0.167 HD
BRANCH  11  13
HETATM   13  C12 UNL     1      25.609   5.134  49.990  1.00  0.00     0.035 A 
HETATM   14  C13 UNL     1      26.594   4.280  49.485  1.00  0.00     0.029 A 
HETATM   15  C14 UNL     1      27.621   4.688  48.684  1.00  0.00     0.004 A 
HETATM   16  C15 UNL     1      27.747   6.007  48.319  1.00  0.00     0.019 A 
HETATM   17  C16 UNL     1      26.791   6.886  48.799  1.00  0.00     0.013 A 
HETATM   18 BR1  UNL     1      27.017   8.700  48.260  1.00  0.00    -0.051 Br
HETATM   19  C17 UNL     1      25.775   6.425  49.603  1.00  0.00     0.048 A 
ENDBRANCH  11  13
ENDBRANCH   8  11
BRANCH   1  20
HETATM   20  N1  UNL     1      26.522   1.774  54.468  1.00  0.00    -0.386 N 
HETATM   21  H9  UNL     1      26.309   1.776  55.491  1.00  0.00     0.160 HD
BRANCH  20  22
HETATM   22  C5  UNL     1      27.867   1.910  53.961  1.00  0.00     0.147 C 
BRANCH  22  23
HETATM   23  C4  UNL     1      28.572   0.617  53.852  1.00  0.00    -0.011 C 
HETATM   24  C3  UNL     1      28.649  -0.506  53.133  1.00  0.00    -0.027 C 
BRANCH  24  25
HETATM   25  C2  UNL     1      29.566  -1.685  53.353  1.00  0.00     0.058 C 
BRANCH  25  26
HETATM   26  C1  UNL     1      28.712  -2.924  53.189  1.00  0.00     0.225 C 
HETATM   27  F1  UNL     1      27.489  -2.566  52.639  1.00  0.00    -0.255 F 
ENDBRANCH  25  26
ENDBRANCH  24  25
ENDBRANCH  22  23
ENDBRANCH  20  22
ENDBRANCH   1  20
TORSDOF 7
ENDMDL
MODEL 6
REMARK VINA RESULT:      -7.5      2.655      3.124
REMARK  7 active torsions:
REMARK  status: ('A' for Active; 'I' for Inactive)
REMARK    1  A    between atoms: C1_2  and  C2_3 
REMARK    2  A    between atoms: C2_3  and  C3_4 
REMARK    3  A    between atoms: C4_5  and  C5_6 
REMARK    4  A    between atoms: C5_6  and  N1_7 
REMARK    5  A    between atoms: N1_7  and  C6_8 
REMARK    6  A    between atoms: C11_15  and  N4_16 
REMARK    7  A    between atoms: N4_16  and  C12_17 
ROOT
HETATM    1  C6  UNL     1      24.060  -0.186  53.598  1.00  0.00     0.029 A 
HETATM    2  C7  UNL     1      24.772  -0.697  54.663  1.00  0.00     0.031 A 
HETATM    3  C8  UNL     1      26.063  -0.247  54.839  1.00  0.00     0.035 A 
HETATM    4  C9  UNL     1      26.599   0.681  53.972  1.00  0.00     0.072 A 
HETATM    5  N2  UNL     1      27.873   1.072  54.215  1.00  0.00    -0.241 NA
HETATM    6  C10 UNL     1      28.477   1.973  53.420  1.00  0.00     0.236 A 
HETATM    7  N3  UNL     1      27.761   2.448  52.401  1.00  0.00    -0.224 NA
HETATM    8  C11 UNL     1      26.518   2.131  52.080  1.00  0.00     0.142 A 
HETATM    9  C18 UNL     1      25.932   1.221  52.897  1.00  0.00     0.041 A 
HETATM   10  C19 UNL     1      24.656   0.740  52.766  1.00  0.00     0.046 A 
ENDROOT
BRANCH   8  11
HETATM   11  N4  UNL     1      25.785   2.651  50.992  1.00  0.00    -0.340 N 
HETATM   12  H13 UNL     1      24.946   2.176  50.619  1.00  0.00     0.167 HD
BRANCH  11  13
HETATM   13  C12 UNL     1      26.008   3.830  50.236  1.00  0.00     0.035 A 
HETATM   14  C13 UNL     1      27.039   4.013  49.310  1.00  0.00     0.029 A 
HETATM   15  C14 UNL     1      27.231   5.160  48.596  1.00  0.00     0.004 A 
HETATM   16  C15 UNL     1      26.390   6.236  48.754  1.00  0.00     0.019 A 
HETATM   17  C16 UNL     1      25.354   6.095  49.663  1.00  0.00     0.013 A 
HETATM   18 BR1  UNL     1      24.222   7.618  49.840  1.00  0.00    -0.051 Br
HETATM   19  C17 UNL     1      25.204   4.918  50.358  1.00  0.00     0.048 A 
ENDBRANCH  11  13
ENDBRANCH   8  11
BRANCH   1  20
HETATM   20  N1  UNL     1      22.726  -0.644  53.404  1.00  0.00    -0.386 N 
HETATM   21  H9  UNL     1      22.563  -1.579  52.964  1.00  0.00     0.160 HD
BRANCH  20  22
HETATM   22  C5  UNL     1      21.640   0.210  53.822  1.00  0.00     0.147 C 
BRANCH  22  23
HETATM   23  C4  UNL     1      20.313  -0.376  53.550  1.00  0.00    -0.011 C 
HETATM   24  C3  UNL     1      19.233  -0.274  52.769  1.00  0.00    -0.027 C 
BRANCH  24  25
HETATM   25  C2  UNL     1      17.985  -1.122  52.801  1.00  0.00     0.058 C 
BRANCH  25  26
HETATM   26  C1  UNL     1      18.299  -2.305  53.692  1.00  0.00     0.225 C 
HETATM   27  F1  UNL     1      17.202  -3.156  53.724  1.00  0.00    -0.255 F 
ENDBRANCH  25  26
ENDBRANCH  24  25
ENDBRANCH  22  23
ENDBRANCH  20  22
ENDBRANCH   1  20
TORSDOF 7
ENDMDL
MODEL 7
REMARK VINA RESULT:      -7.4      2.768      5.978
REMARK  7 active torsions:
REMARK  status: ('A' for Active; 'I' for Inactive)
REMARK    1  A    between atoms: C1_2  and  C2_3 
REMARK    2  A    between atoms: C2_3  and  C3_4 
REMARK    3  A    between atoms: C4_5  and  C5_6 
REMARK    4  A    between atoms: C5_6  and  N1_7 
REMARK    5  A    between atoms: N1_7  and  C6_8 
REMARK    6  A    between atoms: C11_15  and  N4_16 
REMARK    7  A    between atoms: N4_16  and  C12_17 
ROOT
HETATM    1  C6  UNL     1      22.711   2.175  49.902  1.00  0.00     0.029 A 
HETATM    2  C7  UNL     1      21.584   1.386  49.800  1.00  0.00     0.031 A 
HETATM    3  C8  UNL     1      21.380   0.441  50.783  1.00  0.00     0.035 A 
HETATM    4  C9  UNL     1      22.280   0.310  51.818  1.00  0.00     0.072 A 
HETATM    5  N2  UNL     1      22.006  -0.642  52.742  1.00  0.00    -0.241 NA
HETATM    6  C10 UNL     1      22.829  -0.842  53.786  1.00  0.00     0.236 A 
HETATM    7  N3  UNL     1      23.909  -0.062  53.855  1.00  0.00    -0.224 NA
HETATM    8  C11 UNL     1      24.264   0.889  53.007  1.00  0.00     0.142 A 
HETATM    9  C18 UNL     1      23.417   1.070  51.964  1.00  0.00     0.041 A 
HETATM   10  C19 UNL     1      23.573   1.991  50.963  1.00  0.00     0.046 A 
ENDROOT
BRANCH   8  11
HETATM   11  N4  UNL     1      25.416   1.699  53.106  1.00  0.00    -0.340 N 
HETATM   12  H13 UNL     1      25.371   2.728  53.024  1.00  0.00     0.167 HD
BRANCH  11  13
HETATM   13  C12 UNL     1      26.766   1.324  53.322  1.00  0.00     0.035 A 
HETATM   14  C13 UNL     1      27.799   2.195  53.681  1.00  0.00     0.029 A 
HETATM   15  C14 UNL     1      29.092   1.806  53.882  1.00  0.00     0.004 A 
HETATM   16  C15 UNL     1      29.461   0.490  53.736  1.00  0.00     0.019 A 
HETATM   17  C16 UNL     1      28.466  -0.406  53.380  1.00  0.00     0.013 A 
HETATM   18 BR1  UNL     1      29.037  -2.214  53.193  1.00  0.00    -0.051 Br
HETATM   19  C17 UNL     1      27.179   0.036  53.190  1.00  0.00     0.048 A 
ENDBRANCH  11  13
ENDBRANCH   8  11
BRANCH   1  20
HETATM   20  N1  UNL     1      22.935   3.154  48.893  1.00  0.00    -0.386 N 
HETATM   21  H9  UNL     1      22.962   2.861  47.890  1.00  0.00     0.160 HD
BRANCH  20  22
HETATM   22  C5  UNL     1      23.120   4.527  49.299  1.00  0.00     0.147 C 
BRANCH  22  23
HETATM   23  C4  UNL     1      24.449   5.058  48.937  1.00  0.00    -0.011 C 
HETATM   24  C3  UNL     1      25.606   5.494  49.444  1.00  0.00    -0.027 C 
BRANCH  24  25
HETATM   25  C2  UNL     1      26.817   5.990  48.691  1.00  0.00     0.058 C 
BRANCH  25  26
HETATM   26  C1  UNL     1      27.766   4.815  48.592  1.00  0.00     0.225 C 
HETATM   27  F1  UNL     1      27.156   3.689  49.128  1.00  0.00    -0.255 F 
ENDBRANCH  25  26
ENDBRANCH  24  25
ENDBRANCH  22  23
ENDBRANCH  20  22
ENDBRANCH   1  20
TORSDOF 7
ENDMDL
MODEL 8
REMARK VINA RESULT:      -7.3      3.223      5.664
REMARK  7 active torsions:
REMARK  status: ('A' for Active; 'I' for Inactive)
REMARK    1  A    between atoms: C1_2  and  C2_3 
REMARK    2  A    between atoms: C2_3  and  C3_4 
REMARK    3  A    between atoms: C4_5  and  C5_6 
REMARK    4  A    between atoms: C5_6  and  N1_7 
REMARK    5  A    between atoms: N1_7  and  C6_8 
REMARK    6  A    between atoms: C11_15  and  N4_16 
REMARK    7  A    between atoms: N4_16  and  C12_17 
ROOT
HETATM    1  C6  UNL     1      22.368   3.866  51.515  1.00  0.00     0.029 A 
HETATM    2  C7  UNL     1      22.091   4.557  50.354  1.00  0.00     0.031 A 
HETATM    3  C8  UNL     1      23.143   4.821  49.504  1.00  0.00     0.035 A 
HETATM    4  C9  UNL     1      24.416   4.398  49.823  1.00  0.00     0.072 A 
HETATM    5  N2  UNL     1      25.394   4.696  48.935  1.00  0.00    -0.241 NA
HETATM    6  C10 UNL     1      26.666   4.324  49.164  1.00  0.00     0.236 A 
HETATM    7  N3  UNL     1      26.900   3.658  50.295  1.00  0.00    -0.224 NA
HETATM    8  C11 UNL     1      26.019   3.320  51.222  1.00  0.00     0.142 A 
HETATM    9  C18 UNL     1      24.744   3.707  50.966  1.00  0.00     0.041 A 
HETATM   10  C19 UNL     1      23.664   3.473  51.775  1.00  0.00     0.046 A 
ENDROOT
BRANCH   8  11
HETATM   11  N4  UNL     1      26.297   2.614  52.411  1.00  0.00    -0.340 N 
HETATM   12  H13 UNL     1      26.299   3.076  53.336  1.00  0.00     0.167 HD
BRANCH  11  13
HETATM   13  C12 UNL     1      26.607   1.242  52.593  1.00  0.00     0.035 A 
HETATM   14  C13 UNL     1      25.713   0.181  52.419  1.00  0.00     0.029 A 
HETATM   15  C14 UNL     1      26.039  -1.131  52.603  1.00  0.00     0.004 A 
HETATM   16  C15 UNL     1      27.309  -1.494  52.982  1.00  0.00     0.019 A 
HETATM   17  C16 UNL     1      28.226  -0.472  53.165  1.00  0.00     0.013 A 
HETATM   18 BR1  UNL     1      29.969  -1.036  53.691  1.00  0.00    -0.051 Br
HETATM   19  C17 UNL     1      27.848   0.834  52.967  1.00  0.00     0.048 A 
ENDBRANCH  11  13
ENDBRANCH   8  11
BRANCH   1  20
HETATM   20  N1  UNL     1      21.290   3.589  52.402  1.00  0.00    -0.386 N 
HETATM   21  H9  UNL     1      21.159   4.184  53.252  1.00  0.00     0.160 HD
BRANCH  20  22
HETATM   22  C5  UNL     1      20.413   2.485  52.092  1.00  0.00     0.147 C 
BRANCH  22  23
HETATM   23  C4  UNL     1      21.010   1.173  52.409  1.00  0.00    -0.011 C 
HETATM   24  C3  UNL     1      21.900   0.559  53.194  1.00  0.00    -0.027 C 
BRANCH  24  25
HETATM   25  C2  UNL     1      22.252  -0.908  53.221  1.00  0.00     0.058 C 
BRANCH  25  26
HETATM   26  C1  UNL     1      21.924  -1.398  54.615  1.00  0.00     0.225 C 
HETATM   27  F1  UNL     1      20.671  -1.996  54.606  1.00  0.00    -0.255 F 
ENDBRANCH  25  26
ENDBRANCH  24  25
ENDBRANCH  22  23
ENDBRANCH  20  22
ENDBRANCH   1  20
TORSDOF 7
ENDMDL
MODEL 9
REMARK VINA RESULT:      -7.2      3.125      6.973
REMARK  7 active torsions:
REMARK  status: ('A' for Active; 'I' for Inactive)
REMARK    1  A    between atoms: C1_2  and  C2_3 
REMARK    2  A    between atoms: C2_3  and  C3_4 
REMARK    3  A    between atoms: C4_5  and  C5_6 
REMARK    4  A    between atoms: C5_6  and  N1_7 
REMARK    5  A    between atoms: N1_7  and  C6_8 
REMARK    6  A    between atoms: C11_15  and  N4_16 
REMARK    7  A    between atoms: N4_16  and  C12_17 
ROOT
HETATM    1  C6  UNL     1      24.974   3.487  50.282  1.00  0.00     0.029 A 
HETATM    2  C7  UNL     1      24.084   3.643  49.240  1.00  0.00     0.031 A 
HETATM    3  C8  UNL     1      22.952   2.858  49.248  1.00  0.00     0.035 A 
HETATM    4  C9  UNL     1      22.738   1.957  50.269  1.00  0.00     0.072 A 
HETATM    5  N2  UNL     1      21.601   1.224  50.203  1.00  0.00    -0.241 NA
HETATM    6  C10 UNL     1      21.311   0.321  51.155  1.00  0.00     0.236 A 
HETATM    7  N3  UNL     1      22.192   0.194  52.148  1.00  0.00    -0.224 NA
HETATM    8  C11 UNL     1      23.325   0.859  52.303  1.00  0.00     0.142 A 
HETATM    9  C18 UNL     1      23.593   1.763  51.329  1.00  0.00     0.041 A 
HETATM   10  C19 UNL     1      24.701   2.566  51.272  1.00  0.00     0.046 A 
ENDROOT
BRANCH   8  11
HETATM   11  N4  UNL     1      24.239   0.702  53.367  1.00  0.00    -0.340 N 
HETATM   12  H13 UNL     1      23.986   0.925  54.344  1.00  0.00     0.167 HD
BRANCH  11  13
HETATM   13  C12 UNL     1      25.581   0.246  53.342  1.00  0.00     0.035 A 
HETATM   14  C13 UNL     1      26.002  -1.002  52.873  1.00  0.00     0.029 A 
HETATM   15  C14 UNL     1      27.303  -1.416  52.862  1.00  0.00     0.004 A 
HETATM   16  C15 UNL     1      28.304  -0.599  53.328  1.00  0.00     0.019 A 
HETATM   17  C16 UNL     1      27.929   0.647  53.802  1.00  0.00     0.013 A 
HETATM   18 BR1  UNL     1      29.359   1.736  54.436  1.00  0.00    -0.051 Br
HETATM   19  C17 UNL     1      26.605   1.017  53.792  1.00  0.00     0.048 A 
ENDBRANCH  11  13
ENDBRANCH   8  11
BRANCH   1  20
HETATM   20  N1  UNL     1      26.149   4.291  50.285  1.00  0.00    -0.386 N 
HETATM   21  H9  UNL     1      26.319   4.948  51.081  1.00  0.00     0.160 HD
BRANCH  20  22
HETATM   22  C5  UNL     1      27.067   4.169  49.178  1.00  0.00     0.147 C 
BRANCH  22  23
HETATM   23  C4  UNL     1      27.472   5.475  48.622  1.00  0.00    -0.011 C 
HETATM   24  C3  UNL     1      28.488   6.133  48.057  1.00  0.00    -0.027 C 
BRANCH  24  25
HETATM   25  C2  UNL     1      28.516   7.569  47.592  1.00  0.00     0.058 C 
BRANCH  25  26
HETATM   26  C1  UNL     1      29.156   8.365  48.710  1.00  0.00     0.225 C 
HETATM   27  F1  UNL     1      28.190   8.686  49.654  1.00  0.00    -0.255 F 
ENDBRANCH  25  26
ENDBRANCH  24  25
ENDBRANCH  22  23
ENDBRANCH  20  22
ENDBRANCH   1  20
TORSDOF 7
ENDMDL
