MODEL 1
REMARK VINA RESULT:      -7.1      0.000      0.000
REMARK  5 active torsions:
REMARK  status: ('A' for Active; 'I' for Inactive)
REMARK       I    between atoms: C1_2  and  N1_3 
REMARK       I    between atoms: C1_2  and  N2_10 
REMARK    1  A    between atoms: N1_3  and  C2_4 
REMARK    2  A    between atoms: N2_10  and  P1_11 
REMARK    3  A    between atoms: N2_10  and  C8_12 
REMARK    4  A    between atoms: C8_12  and  C9_13 
REMARK    5  A    between atoms: C14_20  and  O2_21 
ROOT
HETATM    1  O1  UNL     1      26.817   2.270  50.631  1.00  0.00    -0.247 OA
HETATM    2  C1  UNL     1      25.933   2.815  51.377  1.00  0.00     0.326 C 
HETATM    3  N1  UNL     1      26.099   2.451  52.738  1.00  0.00    -0.309 N 
HETATM    4  N2  UNL     1      24.909   3.687  50.869  1.00  0.00    -0.309 N 
HETATM    5  H1  UNL     1      25.406   2.861  53.430  1.00  0.00     0.170 HD
ENDROOT
BRANCH   4   6
HETATM    6  P1  UNL     1      23.649   4.479  51.867  1.00  0.00    -0.034 P 
HETATM    7  H7  UNL     1      23.408   3.698  53.061  1.00  0.00     0.077 HD
HETATM    8  H8  UNL     1      22.420   4.677  51.157  1.00  0.00     0.077 HD
ENDBRANCH   4   6
BRANCH   4   9
HETATM    9  C8  UNL     1      24.923   3.924  49.449  1.00  0.00     0.173 C 
BRANCH   9  10
HETATM   10  C9  UNL     1      25.534   5.214  49.073  1.00  0.00    -0.003 A 
HETATM   11  C10 UNL     1      24.715   6.340  49.041  1.00  0.00     0.035 A 
HETATM   12  C11 UNL     1      25.283   7.546  48.690  1.00  0.00     0.036 A 
HETATM   13 CL1  UNL     1      24.210   8.946  48.661  1.00  0.00    -0.084 Cl
HETATM   14  C12 UNL     1      26.616   7.720  48.364  1.00  0.00     0.050 A 
HETATM   15  C13 UNL     1      27.435   6.586  48.398  1.00  0.00     0.069 A 
HETATM   16 CL2  UNL     1      29.135   6.725  47.999  1.00  0.00    -0.081 Cl
HETATM   17  C14 UNL     1      26.863   5.385  48.749  1.00  0.00     0.095 A 
BRANCH  17  18
HETATM   18  O2  UNL     1      27.647   4.225  48.796  1.00  0.00    -0.358 OA
HETATM   19  H13 UNL     1      28.229   3.994  47.981  1.00  0.00     0.217 HD
ENDBRANCH  17  18
ENDBRANCH   9  10
ENDBRANCH   4   9
BRANCH   3  20
HETATM   20  C2  UNL     1      27.155   1.580  53.108  1.00  0.00     0.036 A 
HETATM   21  C3  UNL     1      27.174   0.208  52.989  1.00  0.00     0.029 A 
HETATM   22  C4  UNL     1      28.269  -0.534  53.388  1.00  0.00     0.002 A 
HETATM   23  C5  UNL     1      29.354   0.136  53.914  1.00  0.00     0.000 A 
HETATM   24  C6  UNL     1      29.383   1.528  54.057  1.00  0.00     0.002 A 
HETATM   25  C7  UNL     1      28.251   2.236  53.639  1.00  0.00     0.029 A 
ENDBRANCH   3  20
TORSDOF 5
ENDMDL
MODEL 2
REMARK VINA RESULT:      -7.0      3.141      4.075
REMARK  5 active torsions:
REMARK  status: ('A' for Active; 'I' for Inactive)
REMARK       I    between atoms: C1_2  and  N1_3 
REMARK       I    between atoms: C1_2  and  N2_10 
REMARK    1  A    between atoms: N1_3  and  C2_4 
REMARK    2  A    between atoms: N2_10  and  P1_11 
REMARK    3  A    between atoms: N2_10  and  C8_12 
REMARK    4  A    between atoms: C8_12  and  C9_13 
REMARK    5  A    between atoms: C14_20  and  O2_21 
ROOT
HETATM    1  O1  UNL     1      25.325   1.785  53.292  1.00  0.00    -0.247 OA
HETATM    2  C1  UNL     1      24.517   0.795  53.244  1.00  0.00     0.326 C 
HETATM    3  N1  UNL     1      25.176  -0.433  53.503  1.00  0.00    -0.309 N 
HETATM    4  N2  UNL     1      23.115   0.942  52.960  1.00  0.00    -0.309 N 
HETATM    5  H1  UNL     1      24.578  -1.310  53.484  1.00  0.00     0.170 HD
ENDROOT
BRANCH   4   6
HETATM    6  P1  UNL     1      21.938  -0.406  52.882  1.00  0.00    -0.034 P 
HETATM    7  H7  UNL     1      22.003  -1.183  54.100  1.00  0.00     0.077 HD
HETATM    8  H8  UNL     1      22.143  -1.258  51.747  1.00  0.00     0.077 HD
ENDBRANCH   4   6
BRANCH   4   9
HETATM    9  C8  UNL     1      22.651   2.285  52.725  1.00  0.00     0.173 C 
BRANCH   9  10
HETATM   10  C9  UNL     1      23.086   2.841  51.429  1.00  0.00    -0.003 A 
HETATM   11  C10 UNL     1      22.648   2.209  50.268  1.00  0.00     0.035 A 
HETATM   12  C11 UNL     1      23.052   2.726  49.056  1.00  0.00     0.036 A 
HETATM   13 CL1  UNL     1      22.475   1.896  47.610  1.00  0.00    -0.084 Cl
HETATM   14  C12 UNL     1      23.868   3.834  48.908  1.00  0.00     0.050 A 
HETATM   15  C13 UNL     1      24.305   4.465  50.078  1.00  0.00     0.069 A 
HETATM   16 CL2  UNL     1      25.339   5.875  49.974  1.00  0.00    -0.081 Cl
HETATM   17  C14 UNL     1      23.898   3.945  51.285  1.00  0.00     0.095 A 
BRANCH  17  18
HETATM   18  O2  UNL     1      24.313   4.546  52.480  1.00  0.00    -0.358 OA
HETATM   19  H13 UNL     1      24.428   5.568  52.500  1.00  0.00     0.217 HD
ENDBRANCH  17  18
ENDBRANCH   9  10
ENDBRANCH   4   9
BRANCH   3  20
HETATM   20  C2  UNL     1      26.569  -0.440  53.772  1.00  0.00     0.036 A 
HETATM   21  C3  UNL     1      27.222   0.249  54.770  1.00  0.00     0.029 A 
HETATM   22  C4  UNL     1      28.591   0.159  54.930  1.00  0.00     0.002 A 
HETATM   23  C5  UNL     1      29.298  -0.643  54.059  1.00  0.00     0.000 A 
HETATM   24  C6  UNL     1      28.682  -1.362  53.028  1.00  0.00     0.002 A 
HETATM   25  C7  UNL     1      27.293  -1.240  52.906  1.00  0.00     0.029 A 
ENDBRANCH   3  20
TORSDOF 5
ENDMDL
MODEL 3
REMARK VINA RESULT:      -7.0      1.633      2.157
REMARK  5 active torsions:
REMARK  status: ('A' for Active; 'I' for Inactive)
REMARK       I    between atoms: C1_2  and  N1_3 
REMARK       I    between atoms: C1_2  and  N2_10 
REMARK    1  A    between atoms: N1_3  and  C2_4 
REMARK    2  A    between atoms: N2_10  and  P1_11 
REMARK    3  A    between atoms: N2_10  and  C8_12 
REMARK    4  A    between atoms: C8_12  and  C9_13 
REMARK    5  A    between atoms: C14_20  and  O2_21 
ROOT
HETATM    1  O1  UNL     1      26.969   2.933  50.878  1.00  0.00    -0.247 OA
HETATM    2  C1  UNL     1      25.807   2.498  51.187  1.00  0.00     0.326 C 
HETATM    3  N1  UNL     1      25.857   1.603  52.285  1.00  0.00    -0.309 N 
HETATM    4  N2  UNL     1      24.613   2.887  50.485  1.00  0.00    -0.309 N 
HETATM    5  H1  UNL     1      24.932   1.192  52.610  1.00  0.00     0.170 HD
ENDROOT
BRANCH   4   6
HETATM    6  P1  UNL     1      22.962   2.311  50.874  1.00  0.00    -0.034 P 
HETATM    7  H7  UNL     1      22.963   1.659  52.165  1.00  0.00     0.077 HD
HETATM    8  H8  UNL     1      22.434   1.425  49.879  1.00  0.00     0.077 HD
ENDBRANCH   4   6
BRANCH   4   9
HETATM    9  C8  UNL     1      24.789   3.811  49.395  1.00  0.00     0.173 C 
BRANCH   9  10
HETATM   10  C9  UNL     1      24.618   5.224  49.786  1.00  0.00    -0.003 A 
HETATM   11  C10 UNL     1      23.331   5.667  50.080  1.00  0.00     0.035 A 
HETATM   12  C11 UNL     1      23.166   6.986  50.445  1.00  0.00     0.036 A 
HETATM   13 CL1  UNL     1      21.521   7.507  50.808  1.00  0.00    -0.084 Cl
HETATM   14  C12 UNL     1      24.195   7.908  50.540  1.00  0.00     0.050 A 
HETATM   15  C13 UNL     1      25.485   7.457  50.244  1.00  0.00     0.069 A 
HETATM   16 CL2  UNL     1      26.840   8.563  50.343  1.00  0.00    -0.081 Cl
HETATM   17  C14 UNL     1      25.643   6.140  49.880  1.00  0.00     0.095 A 
BRANCH  17  18
HETATM   18  O2  UNL     1      26.918   5.647  49.576  1.00  0.00    -0.358 OA
HETATM   19  H13 UNL     1      26.991   4.784  49.022  1.00  0.00     0.217 HD
ENDBRANCH  17  18
ENDBRANCH   9  10
ENDBRANCH   4   9
BRANCH   3  20
HETATM   20  C2  UNL     1      27.103   1.302  52.890  1.00  0.00     0.036 A 
HETATM   21  C3  UNL     1      27.934   2.179  53.552  1.00  0.00     0.029 A 
HETATM   22  C4  UNL     1      29.130   1.762  54.103  1.00  0.00     0.002 A 
HETATM   23  C5  UNL     1      29.480   0.433  53.973  1.00  0.00     0.000 A 
HETATM   24  C6  UNL     1      28.672  -0.497  53.309  1.00  0.00     0.002 A 
HETATM   25  C7  UNL     1      27.469  -0.027  52.769  1.00  0.00     0.029 A 
ENDBRANCH   3  20
TORSDOF 5
ENDMDL
MODEL 4
REMARK VINA RESULT:      -6.9      1.114      2.235
REMARK  5 active torsions:
REMARK  status: ('A' for Active; 'I' for Inactive)
REMARK       I    between atoms: C1_2  and  N1_3 
REMARK       I    between atoms: C1_2  and  N2_10 
REMARK    1  A    between atoms: N1_3  and  C2_4 
REMARK    2  A    between atoms: N2_10  and  P1_11 
REMARK    3  A    between atoms: N2_10  and  C8_12 
REMARK    4  A    between atoms: C8_12  and  C9_13 
REMARK    5  A    between atoms: C14_20  and  O2_21 
ROOT
HETATM    1  O1  UNL     1      26.651   2.035  50.751  1.00  0.00    -0.247 OA
HETATM    2  C1  UNL     1      25.847   2.673  51.514  1.00  0.00     0.326 C 
HETATM    3  N1  UNL     1      26.090   2.395  52.883  1.00  0.00    -0.309 N 
HETATM    4  N2  UNL     1      24.831   3.559  51.013  1.00  0.00    -0.309 N 
HETATM    5  H1  UNL     1      25.467   2.886  53.589  1.00  0.00     0.170 HD
ENDROOT
BRANCH   4   6
HETATM    6  P1  UNL     1      23.680   4.479  52.034  1.00  0.00    -0.034 P 
HETATM    7  H7  UNL     1      23.439   5.780  51.449  1.00  0.00     0.077 HD
HETATM    8  H8  UNL     1      24.131   4.627  53.386  1.00  0.00     0.077 HD
ENDBRANCH   4   6
BRANCH   4   9
HETATM    9  C8  UNL     1      24.757   3.698  49.583  1.00  0.00     0.173 C 
BRANCH   9  10
HETATM   10  C9  UNL     1      25.507   4.858  49.063  1.00  0.00    -0.003 A 
HETATM   11  C10 UNL     1      26.889   4.737  48.934  1.00  0.00     0.035 A 
HETATM   12  C11 UNL     1      27.593   5.818  48.449  1.00  0.00     0.036 A 
HETATM   13 CL1  UNL     1      29.340   5.622  48.303  1.00  0.00    -0.084 Cl
HETATM   14  C12 UNL     1      27.023   7.024  48.080  1.00  0.00     0.050 A 
HETATM   15  C13 UNL     1      25.635   7.140  48.210  1.00  0.00     0.069 A 
HETATM   16 CL2  UNL     1      24.839   8.634  47.762  1.00  0.00    -0.081 Cl
HETATM   17  C14 UNL     1      24.937   6.058  48.695  1.00  0.00     0.095 A 
BRANCH  17  18
HETATM   18  O2  UNL     1      23.546   6.132  48.842  1.00  0.00    -0.358 OA
HETATM   19  H13 UNL     1      23.004   5.260  48.817  1.00  0.00     0.217 HD
ENDBRANCH  17  18
ENDBRANCH   9  10
ENDBRANCH   4   9
BRANCH   3  20
HETATM   20  C2  UNL     1      27.129   1.499  53.244  1.00  0.00     0.036 A 
HETATM   21  C3  UNL     1      27.102   0.124  53.156  1.00  0.00     0.029 A 
HETATM   22  C4  UNL     1      28.184  -0.643  53.541  1.00  0.00     0.002 A 
HETATM   23  C5  UNL     1      29.304   0.004  54.021  1.00  0.00     0.000 A 
HETATM   24  C6  UNL     1      29.380   1.397  54.131  1.00  0.00     0.002 A 
HETATM   25  C7  UNL     1      28.260   2.131  53.728  1.00  0.00     0.029 A 
ENDBRANCH   3  20
TORSDOF 5
ENDMDL
MODEL 5
REMARK VINA RESULT:      -6.8      4.810      5.641
REMARK  5 active torsions:
REMARK  status: ('A' for Active; 'I' for Inactive)
REMARK       I    between atoms: C1_2  and  N1_3 
REMARK       I    between atoms: C1_2  and  N2_10 
REMARK    1  A    between atoms: N1_3  and  C2_4 
REMARK    2  A    between atoms: N2_10  and  P1_11 
REMARK    3  A    between atoms: N2_10  and  C8_12 
REMARK    4  A    between atoms: C8_12  and  C9_13 
REMARK    5  A    between atoms: C14_20  and  O2_21 
ROOT
HETATM    1  O1  UNL     1      25.308   1.433  53.110  1.00  0.00    -0.247 OA
HETATM    2  C1  UNL     1      24.596   0.415  53.416  1.00  0.00     0.326 C 
HETATM    3  N1  UNL     1      25.396  -0.676  53.838  1.00  0.00    -0.309 N 
HETATM    4  N2  UNL     1      23.160   0.411  53.332  1.00  0.00    -0.309 N 
HETATM    5  H1  UNL     1      24.885  -1.565  54.113  1.00  0.00     0.170 HD
ENDROOT
BRANCH   4   6
HETATM    6  P1  UNL     1      22.115  -0.983  53.749  1.00  0.00    -0.034 P 
HETATM    7  H7  UNL     1      22.280  -1.318  55.146  1.00  0.00     0.077 HD
HETATM    8  H8  UNL     1      22.372  -2.134  52.936  1.00  0.00     0.077 HD
ENDBRANCH   4   6
BRANCH   4   9
HETATM    9  C8  UNL     1      22.546   1.630  52.878  1.00  0.00     0.173 C 
BRANCH   9  10
HETATM   10  C9  UNL     1      21.893   1.506  51.559  1.00  0.00    -0.003 A 
HETATM   11  C10 UNL     1      20.559   1.106  51.527  1.00  0.00     0.035 A 
HETATM   12  C11 UNL     1      19.946   0.989  50.298  1.00  0.00     0.036 A 
HETATM   13 CL1  UNL     1      18.257   0.480  50.303  1.00  0.00    -0.084 Cl
HETATM   14  C12 UNL     1      20.565   1.241  49.086  1.00  0.00     0.050 A 
HETATM   15  C13 UNL     1      21.904   1.642  49.124  1.00  0.00     0.069 A 
HETATM   16 CL2  UNL     1      22.756   1.980  47.632  1.00  0.00    -0.081 Cl
HETATM   17  C14 UNL     1      22.511   1.757  50.353  1.00  0.00     0.095 A 
BRANCH  17  18
HETATM   18  O2  UNL     1      23.851   2.156  50.437  1.00  0.00    -0.358 OA
HETATM   19  H13 UNL     1      24.569   1.552  50.018  1.00  0.00     0.217 HD
ENDBRANCH  17  18
ENDBRANCH   9  10
ENDBRANCH   4   9
BRANCH   3  20
HETATM   20  C2  UNL     1      26.807  -0.540  53.876  1.00  0.00     0.036 A 
HETATM   21  C3  UNL     1      27.532   0.354  54.634  1.00  0.00     0.029 A 
HETATM   22  C4  UNL     1      28.911   0.389  54.583  1.00  0.00     0.002 A 
HETATM   23  C5  UNL     1      29.556  -0.500  53.748  1.00  0.00     0.000 A 
HETATM   24  C6  UNL     1      28.866  -1.425  52.956  1.00  0.00     0.002 A 
HETATM   25  C7  UNL     1      27.470  -1.424  53.042  1.00  0.00     0.029 A 
ENDBRANCH   3  20
TORSDOF 5
ENDMDL
MODEL 6
REMARK VINA RESULT:      -6.8      4.053      7.055
REMARK  5 active torsions:
REMARK  status: ('A' for Active; 'I' for Inactive)
REMARK       I    between atoms: C1_2  and  N1_3 
REMARK       I    between atoms: C1_2  and  N2_10 
REMARK    1  A    between atoms: N1_3  and  C2_4 
REMARK    2  A    between atoms: N2_10  and  P1_11 
REMARK    3  A    between atoms: N2_10  and  C8_12 
REMARK    4  A    between atoms: C8_12  and  C9_13 
REMARK    5  A    between atoms: C14_20  and  O2_21 
ROOT
HETATM    1  O1  UNL     1      25.039   4.748  51.272  1.00  0.00    -0.247 OA
HETATM    2  C1  UNL     1      24.358   4.045  50.449  1.00  0.00     0.326 C 
HETATM    3  N1  UNL     1      24.761   4.269  49.108  1.00  0.00    -0.309 N 
HETATM    4  N2  UNL     1      23.316   3.144  50.864  1.00  0.00    -0.309 N 
HETATM    5  H1  UNL     1      24.247   3.723  48.356  1.00  0.00     0.170 HD
ENDROOT
BRANCH   4   6
HETATM    6  P1  UNL     1      22.333   2.135  49.757  1.00  0.00    -0.034 P 
HETATM    7  H7  UNL     1      21.321   2.950  49.120  1.00  0.00     0.077 HD
HETATM    8  H8  UNL     1      21.720   1.021  50.416  1.00  0.00     0.077 HD
ENDBRANCH   4   6
BRANCH   4   9
HETATM    9  C8  UNL     1      23.068   3.068  52.279  1.00  0.00     0.173 C 
BRANCH   9  10
HETATM   10  C9  UNL     1      23.560   1.821  52.898  1.00  0.00    -0.003 A 
HETATM   11  C10 UNL     1      22.647   0.789  53.101  1.00  0.00     0.035 A 
HETATM   12  C11 UNL     1      23.103  -0.377  53.678  1.00  0.00     0.036 A 
HETATM   13 CL1  UNL     1      21.914  -1.657  53.918  1.00  0.00    -0.084 Cl
HETATM   14  C12 UNL     1      24.411  -0.597  54.074  1.00  0.00     0.050 A 
HETATM   15  C13 UNL     1      25.324   0.442  53.867  1.00  0.00     0.069 A 
HETATM   16 CL2  UNL     1      26.998   0.240  54.340  1.00  0.00    -0.081 Cl
HETATM   17  C14 UNL     1      24.863   1.603  53.291  1.00  0.00     0.095 A 
BRANCH  17  18
HETATM   18  O2  UNL     1      25.744   2.669  53.066  1.00  0.00    -0.358 OA
HETATM   19  H13 UNL     1      26.056   3.225  53.872  1.00  0.00     0.217 HD
ENDBRANCH  17  18
ENDBRANCH   9  10
ENDBRANCH   4   9
BRANCH   3  20
HETATM   20  C2  UNL     1      25.807   5.187  48.833  1.00  0.00     0.036 A 
HETATM   21  C3  UNL     1      25.681   6.540  48.609  1.00  0.00     0.029 A 
HETATM   22  C4  UNL     1      26.782   7.333  48.352  1.00  0.00     0.002 A 
HETATM   23  C5  UNL     1      28.025   6.733  48.322  1.00  0.00     0.000 A 
HETATM   24  C6  UNL     1      28.205   5.363  48.541  1.00  0.00     0.002 A 
HETATM   25  C7  UNL     1      27.060   4.602  48.800  1.00  0.00     0.029 A 
ENDBRANCH   3  20
TORSDOF 5
ENDMDL
MODEL 7
REMARK VINA RESULT:      -6.7      4.509      7.538
REMARK  5 active torsions:
REMARK  status: ('A' for Active; 'I' for Inactive)
REMARK       I    between atoms: C1_2  and  N1_3 
REMARK       I    between atoms: C1_2  and  N2_10 
REMARK    1  A    between atoms: N1_3  and  C2_4 
REMARK    2  A    between atoms: N2_10  and  P1_11 
REMARK    3  A    between atoms: N2_10  and  C8_12 
REMARK    4  A    between atoms: C8_12  and  C9_13 
REMARK    5  A    between atoms: C14_20  and  O2_21 
ROOT
HETATM    1  O1  UNL     1      24.904   4.386  51.340  1.00  0.00    -0.247 OA
HETATM    2  C1  UNL     1      24.157   3.776  50.500  1.00  0.00     0.326 C 
HETATM    3  N1  UNL     1      24.594   3.979  49.166  1.00  0.00    -0.309 N 
HETATM    4  N2  UNL     1      23.019   2.988  50.891  1.00  0.00    -0.309 N 
HETATM    5  H1  UNL     1      24.029   3.507  48.401  1.00  0.00     0.170 HD
ENDROOT
BRANCH   4   6
HETATM    6  P1  UNL     1      21.941   2.114  49.759  1.00  0.00    -0.034 P 
HETATM    7  H7  UNL     1      22.241   2.502  48.398  1.00  0.00     0.077 HD
HETATM    8  H8  UNL     1      20.551   2.331  50.034  1.00  0.00     0.077 HD
ENDBRANCH   4   6
BRANCH   4   9
HETATM    9  C8  UNL     1      22.752   2.914  52.303  1.00  0.00     0.173 C 
BRANCH   9  10
HETATM   10  C9  UNL     1      23.027   1.586  52.887  1.00  0.00    -0.003 A 
HETATM   11  C10 UNL     1      24.353   1.167  52.958  1.00  0.00     0.035 A 
HETATM   12  C11 UNL     1      24.614  -0.072  53.502  1.00  0.00     0.036 A 
HETATM   13 CL1  UNL     1      26.306  -0.565  53.573  1.00  0.00    -0.084 Cl
HETATM   14  C12 UNL     1      23.646  -0.936  53.985  1.00  0.00     0.050 A 
HETATM   15  C13 UNL     1      22.316  -0.510  53.911  1.00  0.00     0.069 A 
HETATM   16 CL2  UNL     1      21.034  -1.546  54.503  1.00  0.00    -0.081 Cl
HETATM   17  C14 UNL     1      22.062   0.728  53.367  1.00  0.00     0.095 A 
BRANCH  17  18
HETATM   18  O2  UNL     1      20.744   1.193  53.274  1.00  0.00    -0.358 OA
HETATM   19  H13 UNL     1      20.092   0.697  52.654  1.00  0.00     0.217 HD
ENDBRANCH  17  18
ENDBRANCH   9  10
ENDBRANCH   4   9
BRANCH   3  20
HETATM   20  C2  UNL     1      25.736   4.782  48.916  1.00  0.00     0.036 A 
HETATM   21  C3  UNL     1      27.051   4.370  48.915  1.00  0.00     0.029 A 
HETATM   22  C4  UNL     1      28.081   5.253  48.654  1.00  0.00     0.002 A 
HETATM   23  C5  UNL     1      27.762   6.569  48.393  1.00  0.00     0.000 A 
HETATM   24  C6  UNL     1      26.443   7.037  48.384  1.00  0.00     0.002 A 
HETATM   25  C7  UNL     1      25.434   6.106  48.653  1.00  0.00     0.029 A 
ENDBRANCH   3  20
TORSDOF 5
ENDMDL
MODEL 8
REMARK VINA RESULT:      -6.6      5.338      7.562
REMARK  5 active torsions:
REMARK  status: ('A' for Active; 'I' for Inactive)
REMARK       I    between atoms: C1_2  and  N1_3 
REMARK       I    between atoms: C1_2  and  N2_10 
REMARK    1  A    between atoms: N1_3  and  C2_4 
REMARK    2  A    between atoms: N2_10  and  P1_11 
REMARK    3  A    between atoms: N2_10  and  C8_12 
REMARK    4  A    between atoms: C8_12  and  C9_13 
REMARK    5  A    between atoms: C14_20  and  O2_21 
ROOT
HETATM    1  O1  UNL     1      22.101   0.693  50.794  1.00  0.00    -0.247 OA
HETATM    2  C1  UNL     1      22.083   1.874  51.284  1.00  0.00     0.326 C 
HETATM    3  N1  UNL     1      20.769   2.278  51.630  1.00  0.00    -0.309 N 
HETATM    4  N2  UNL     1      23.269   2.670  51.453  1.00  0.00    -0.309 N 
HETATM    5  H1  UNL     1      20.662   3.249  52.047  1.00  0.00     0.170 HD
ENDROOT
BRANCH   4   6
HETATM    6  P1  UNL     1      23.303   4.326  52.135  1.00  0.00    -0.034 P 
HETATM    7  H7  UNL     1      21.957   4.758  52.438  1.00  0.00     0.077 HD
HETATM    8  H8  UNL     1      23.937   5.273  51.265  1.00  0.00     0.077 HD
ENDBRANCH   4   6
BRANCH   4   9
HETATM    9  C8  UNL     1      24.506   2.064  51.034  1.00  0.00     0.173 C 
BRANCH   9  10
HETATM   10  C9  UNL     1      25.364   1.639  52.158  1.00  0.00    -0.003 A 
HETATM   11  C10 UNL     1      24.878   0.655  53.014  1.00  0.00     0.035 A 
HETATM   12  C11 UNL     1      25.677   0.255  54.065  1.00  0.00     0.036 A 
HETATM   13 CL1  UNL     1      25.022  -0.992  55.126  1.00  0.00    -0.084 Cl
HETATM   14  C12 UNL     1      26.935   0.766  54.331  1.00  0.00     0.050 A 
HETATM   15  C13 UNL     1      27.419   1.754  53.467  1.00  0.00     0.069 A 
HETATM   16 CL2  UNL     1      29.004   2.449  53.738  1.00  0.00    -0.081 Cl
HETATM   17  C14 UNL     1      26.617   2.149  52.421  1.00  0.00     0.095 A 
BRANCH  17  18
HETATM   18  O2  UNL     1      27.064   3.135  51.533  1.00  0.00    -0.358 OA
HETATM   19  H13 UNL     1      27.257   2.867  50.560  1.00  0.00     0.217 HD
ENDBRANCH  17  18
ENDBRANCH   9  10
ENDBRANCH   4   9
BRANCH   3  20
HETATM   20  C2  UNL     1      19.682   1.394  51.413  1.00  0.00     0.036 A 
HETATM   21  C3  UNL     1      18.883   1.325  50.292  1.00  0.00     0.029 A 
HETATM   22  C4  UNL     1      17.850   0.414  50.199  1.00  0.00     0.002 A 
HETATM   23  C5  UNL     1      17.630  -0.434  51.265  1.00  0.00     0.000 A 
HETATM   24  C6  UNL     1      18.411  -0.403  52.426  1.00  0.00     0.002 A 
HETATM   25  C7  UNL     1      19.448   0.536  52.473  1.00  0.00     0.029 A 
ENDBRANCH   3  20
TORSDOF 5
ENDMDL
MODEL 9
REMARK VINA RESULT:      -6.6      4.613      5.607
REMARK  5 active torsions:
REMARK  status: ('A' for Active; 'I' for Inactive)
REMARK       I    between atoms: C1_2  and  N1_3 
REMARK       I    between atoms: C1_2  and  N2_10 
REMARK    1  A    between atoms: N1_3  and  C2_4 
REMARK    2  A    between atoms: N2_10  and  P1_11 
REMARK    3  A    between atoms: N2_10  and  C8_12 
REMARK    4  A    between atoms: C8_12  and  C9_13 
REMARK    5  A    between atoms: C14_20  and  O2_21 
ROOT
HETATM    1  O1  UNL     1      25.429   1.894  53.057  1.00  0.00    -0.247 OA
HETATM    2  C1  UNL     1      24.534   0.995  53.223  1.00  0.00     0.326 C 
HETATM    3  N1  UNL     1      25.098  -0.236  53.642  1.00  0.00    -0.309 N 
HETATM    4  N2  UNL     1      23.133   1.237  53.004  1.00  0.00    -0.309 N 
HETATM    5  H1  UNL     1      24.423  -1.040  53.805  1.00  0.00     0.170 HD
ENDROOT
BRANCH   4   6
HETATM    6  P1  UNL     1      21.837   0.018  53.223  1.00  0.00    -0.034 P 
HETATM    7  H7  UNL     1      22.337  -1.092  54.004  1.00  0.00     0.077 HD
HETATM    8  H8  UNL     1      21.306  -0.457  51.980  1.00  0.00     0.077 HD
ENDBRANCH   4   6
BRANCH   4   9
HETATM    9  C8  UNL     1      22.775   2.564  52.580  1.00  0.00     0.173 C 
BRANCH   9  10
HETATM   10  C9  UNL     1      21.940   2.589  51.362  1.00  0.00    -0.003 A 
HETATM   11  C10 UNL     1      22.539   2.244  50.153  1.00  0.00     0.035 A 
HETATM   12  C11 UNL     1      21.762   2.266  49.014  1.00  0.00     0.036 A 
HETATM   13 CL1  UNL     1      22.560   1.825  47.505  1.00  0.00    -0.084 Cl
HETATM   14  C12 UNL     1      20.422   2.609  48.986  1.00  0.00     0.050 A 
HETATM   15  C13 UNL     1      19.825   2.953  50.203  1.00  0.00     0.069 A 
HETATM   16 CL2  UNL     1      18.131   3.398  50.249  1.00  0.00    -0.081 Cl
HETATM   17  C14 UNL     1      20.605   2.930  51.336  1.00  0.00     0.095 A 
BRANCH  17  18
HETATM   18  O2  UNL     1      20.047   3.268  52.576  1.00  0.00    -0.358 OA
HETATM   19  H13 UNL     1      19.691   4.223  52.709  1.00  0.00     0.217 HD
ENDBRANCH  17  18
ENDBRANCH   9  10
ENDBRANCH   4   9
BRANCH   3  20
HETATM   20  C2  UNL     1      26.501  -0.341  53.822  1.00  0.00     0.036 A 
HETATM   21  C3  UNL     1      27.261   0.293  54.781  1.00  0.00     0.029 A 
HETATM   22  C4  UNL     1      28.627   0.108  54.854  1.00  0.00     0.002 A 
HETATM   23  C5  UNL     1      29.222  -0.733  53.936  1.00  0.00     0.000 A 
HETATM   24  C6  UNL     1      28.495  -1.399  52.943  1.00  0.00     0.002 A 
HETATM   25  C7  UNL     1      27.113  -1.181  52.909  1.00  0.00     0.029 A 
ENDBRANCH   3  20
TORSDOF 5
ENDMDL
