MODEL 1
REMARK VINA RESULT:      -8.9      0.000      0.000
REMARK  3 active torsions:
REMARK  status: ('A' for Active; 'I' for Inactive)
REMARK    1  A    between atoms: N1_8  and  C7_9 
REMARK    2  A    between atoms: C11_15  and  O1_16 
REMARK    3  A    between atoms: O1_16  and  C12_17 
ROOT
HETATM    1  C7  UNL     1      22.423   2.492  51.733  1.00  0.00     0.265 A 
HETATM    2  N2  UNL     1      22.675   3.461  50.804  1.00  0.00    -0.215 NA
HETATM    3  C8  UNL     1      23.931   3.540  50.277  1.00  0.00     0.236 A 
HETATM    4  N3  UNL     1      24.852   2.669  50.693  1.00  0.00    -0.241 NA
HETATM    5  C9  UNL     1      24.667   1.697  51.597  1.00  0.00     0.077 A 
HETATM    6  C10 UNL     1      25.680   0.832  51.977  1.00  0.00     0.072 A 
HETATM    7  C11 UNL     1      25.460  -0.174  52.929  1.00  0.00     0.107 A 
HETATM    8  C16 UNL     1      24.185  -0.227  53.442  1.00  0.00     0.136 A 
HETATM    9  C17 UNL     1      23.183   0.635  53.061  1.00  0.00     0.121 A 
HETATM   10  C18 UNL     1      23.406   1.604  52.138  1.00  0.00     0.085 A 
HETATM   11  O3  UNL     1      21.954   0.487  53.639  1.00  0.00    -0.345 OA
HETATM   12  C19 UNL     1      21.640  -0.666  54.397  1.00  0.00     0.202 C 
HETATM   13  C20 UNL     1      22.837  -1.149  55.196  1.00  0.00     0.202 C 
HETATM   14  O4  UNL     1      23.989  -1.224  54.377  1.00  0.00    -0.344 OA
ENDROOT
BRANCH   1  15
HETATM   15  N1  UNL     1      21.174   2.471  52.308  1.00  0.00     0.072 N 
HETATM   16  C2  UNL     1      20.580   1.551  50.768  1.00  0.00     0.229 A 
HETATM   17  C1  UNL     1      21.512   1.116  49.483  1.00  0.00     0.066 C 
HETATM   18  C3  UNL     1      19.138   0.884  50.131  1.00  0.00     0.120 A 
HETATM   19  C6  UNL     1      20.277   2.166  52.129  1.00  0.00     0.220 A 
HETATM   20  S1  UNL     1      19.305   1.826  51.911  1.00  0.00    -0.013 SA
HETATM   21  C4  UNL     1      17.863   1.299  51.543  1.00  0.00     0.069 A 
HETATM   22  C5  UNL     1      17.482  -0.191  51.499  1.00  0.00     0.022 C 
ENDBRANCH   1  15
BRANCH   7  23
HETATM   23  O1  UNL     1      26.594  -0.902  53.145  1.00  0.00    -0.341 OA
BRANCH  23  24
HETATM   24  C12 UNL     1      27.632  -0.728  54.039  1.00  0.00     0.154 C 
HETATM   25  C13 UNL     1      28.942  -0.351  53.356  1.00  0.00     0.061 C 
HETATM   26  C14 UNL     1      29.408   0.893  54.035  1.00  0.00     0.170 C 
HETATM   27  O2  UNL     1      28.646   1.026  55.171  1.00  0.00    -0.389 OA
HETATM   28  C15 UNL     1      27.382   0.520  54.872  1.00  0.00     0.200 C 
ENDBRANCH  23  24
ENDBRANCH   7  23
TORSDOF 3
ENDMDL
MODEL 2
REMARK VINA RESULT:      -8.3      1.782      2.074
REMARK  3 active torsions:
REMARK  status: ('A' for Active; 'I' for Inactive)
REMARK    1  A    between atoms: N1_8  and  C7_9 
REMARK    2  A    between atoms: C11_15  and  O1_16 
REMARK    3  A    between atoms: O1_16  and  C12_17 
ROOT
HETATM    1  C7  UNL     1      23.621   4.105  51.170  1.00  0.00     0.265 A 
HETATM    2  N2  UNL     1      24.191   5.132  50.473  1.00  0.00    -0.215 NA
HETATM    3  C8  UNL     1      25.485   4.995  50.064  1.00  0.00     0.236 A 
HETATM    4  N3  UNL     1      26.132   3.867  50.364  1.00  0.00    -0.241 NA
HETATM    5  C9  UNL     1      25.629   2.826  51.042  1.00  0.00     0.077 A 
HETATM    6  C10 UNL     1      26.371   1.688  51.314  1.00  0.00     0.072 A 
HETATM    7  C11 UNL     1      25.820   0.615  52.030  1.00  0.00     0.107 A 
HETATM    8  C16 UNL     1      24.515   0.783  52.428  1.00  0.00     0.136 A 
HETATM    9  C17 UNL     1      23.784   1.915  52.155  1.00  0.00     0.121 A 
HETATM   10  C18 UNL     1      24.325   2.948  51.460  1.00  0.00     0.085 A 
HETATM   11  O3  UNL     1      22.493   1.971  52.601  1.00  0.00    -0.345 OA
HETATM   12  C19 UNL     1      21.843   0.813  53.090  1.00  0.00     0.202 C 
HETATM   13  C20 UNL     1      22.799  -0.078  53.862  1.00  0.00     0.202 C 
HETATM   14  O4  UNL     1      23.992  -0.285  53.131  1.00  0.00    -0.344 OA
ENDROOT
BRANCH   1  15
HETATM   15  N1  UNL     1      22.340   4.287  51.637  1.00  0.00     0.072 N 
HETATM   16  C2  UNL     1      21.744   3.903  49.887  1.00  0.00     0.229 A 
HETATM   17  C1  UNL     1      22.700   3.525  48.601  1.00  0.00     0.066 C 
HETATM   18  C3  UNL     1      20.276   3.785  49.013  1.00  0.00     0.120 A 
HETATM   19  C6  UNL     1      21.426   4.271  51.331  1.00  0.00     0.220 A 
HETATM   20  S1  UNL     1      20.437   4.249  50.972  1.00  0.00    -0.013 SA
HETATM   21  C4  UNL     1      18.969   4.206  50.393  1.00  0.00     0.069 A 
HETATM   22  C5  UNL     1      18.254   2.910  49.970  1.00  0.00     0.022 C 
ENDBRANCH   1  15
BRANCH   7  23
HETATM   23  O1  UNL     1      26.729  -0.393  52.178  1.00  0.00    -0.341 OA
BRANCH  23  24
HETATM   24  C12 UNL     1      27.317  -0.931  53.306  1.00  0.00     0.154 C 
HETATM   25  C13 UNL     1      28.794  -1.250  53.106  1.00  0.00     0.061 C 
HETATM   26  C14 UNL     1      29.511  -0.563  54.218  1.00  0.00     0.170 C 
HETATM   27  O2  UNL     1      28.550  -0.178  55.123  1.00  0.00    -0.389 OA
HETATM   28  C15 UNL     1      27.406   0.133  54.389  1.00  0.00     0.200 C 
ENDBRANCH  23  24
ENDBRANCH   7  23
TORSDOF 3
ENDMDL
MODEL 3
REMARK VINA RESULT:      -8.1      1.901      3.317
REMARK  3 active torsions:
REMARK  status: ('A' for Active; 'I' for Inactive)
REMARK    1  A    between atoms: N1_8  and  C7_9 
REMARK    2  A    between atoms: C11_15  and  O1_16 
REMARK    3  A    between atoms: O1_16  and  C12_17 
ROOT
HETATM    1  C7  UNL     1      21.997   1.845  52.565  1.00  0.00     0.265 A 
HETATM    2  N2  UNL     1      20.957   1.240  53.210  1.00  0.00    -0.215 NA
HETATM    3  C8  UNL     1      21.195   0.063  53.858  1.00  0.00     0.236 A 
HETATM    4  N3  UNL     1      22.431  -0.440  53.831  1.00  0.00    -0.241 NA
HETATM    5  C9  UNL     1      23.491   0.104  53.218  1.00  0.00     0.077 A 
HETATM    6  C10 UNL     1      24.744  -0.485  53.236  1.00  0.00     0.072 A 
HETATM    7  C11 UNL     1      25.835   0.105  52.582  1.00  0.00     0.107 A 
HETATM    8  C16 UNL     1      25.563   1.289  51.939  1.00  0.00     0.136 A 
HETATM    9  C17 UNL     1      24.317   1.870  51.924  1.00  0.00     0.121 A 
HETATM   10  C18 UNL     1      23.267   1.291  52.561  1.00  0.00     0.085 A 
HETATM   11  O3  UNL     1      24.164   3.049  51.251  1.00  0.00    -0.345 OA
HETATM   12  C19 UNL     1      25.290   3.786  50.811  1.00  0.00     0.202 C 
HETATM   13  C20 UNL     1      26.408   2.870  50.348  1.00  0.00     0.202 C 
HETATM   14  O4  UNL     1      26.651   1.854  51.302  1.00  0.00    -0.344 OA
ENDROOT
BRANCH   1  15
HETATM   15  N1  UNL     1      21.726   2.992  51.857  1.00  0.00     0.072 N 
HETATM   16  C2  UNL     1      21.075   1.878  50.477  1.00  0.00     0.229 A 
HETATM   17  C1  UNL     1      21.010   0.234  50.512  1.00  0.00     0.066 C 
HETATM   18  C3  UNL     1      20.398   2.014  48.910  1.00  0.00     0.120 A 
HETATM   19  C6  UNL     1      21.369   3.276  51.007  1.00  0.00     0.220 A 
HETATM   20  S1  UNL     1      20.977   3.561  50.073  1.00  0.00    -0.013 SA
HETATM   21  C4  UNL     1      20.382   3.945  48.662  1.00  0.00     0.069 A 
HETATM   22  C5  UNL     1      18.899   3.783  48.286  1.00  0.00     0.022 C 
ENDBRANCH   1  15
BRANCH   7  23
HETATM   23  O1  UNL     1      26.964  -0.649  52.733  1.00  0.00    -0.341 OA
BRANCH  23  24
HETATM   24  C12 UNL     1      28.002  -0.563  53.639  1.00  0.00     0.154 C 
HETATM   25  C13 UNL     1      29.170   0.269  53.122  1.00  0.00     0.061 C 
HETATM   26  C14 UNL     1      29.429   1.298  54.170  1.00  0.00     0.170 C 
HETATM   27  O2  UNL     1      28.727   0.905  55.285  1.00  0.00    -0.389 OA
HETATM   28  C15 UNL     1      27.568   0.276  54.832  1.00  0.00     0.200 C 
ENDBRANCH  23  24
ENDBRANCH   7  23
TORSDOF 3
ENDMDL
MODEL 4
REMARK VINA RESULT:      -8.1      3.222      5.125
REMARK  3 active torsions:
REMARK  status: ('A' for Active; 'I' for Inactive)
REMARK    1  A    between atoms: N1_8  and  C7_9 
REMARK    2  A    between atoms: C11_15  and  O1_16 
REMARK    3  A    between atoms: O1_16  and  C12_17 
ROOT
HETATM    1  C7  UNL     1      22.475   3.357  49.754  1.00  0.00     0.265 A 
HETATM    2  N2  UNL     1      21.355   2.680  50.144  1.00  0.00    -0.215 NA
HETATM    3  C8  UNL     1      21.497   1.649  51.025  1.00  0.00     0.236 A 
HETATM    4  N3  UNL     1      22.722   1.351  51.464  1.00  0.00    -0.241 NA
HETATM    5  C9  UNL     1      23.856   1.976  51.121  1.00  0.00     0.077 A 
HETATM    6  C10 UNL     1      25.093   1.602  51.622  1.00  0.00     0.072 A 
HETATM    7  C11 UNL     1      26.265   2.272  51.243  1.00  0.00     0.107 A 
HETATM    8  C16 UNL     1      26.088   3.305  50.354  1.00  0.00     0.136 A 
HETATM    9  C17 UNL     1      24.859   3.672  49.860  1.00  0.00     0.121 A 
HETATM   10  C18 UNL     1      23.729   3.018  50.234  1.00  0.00     0.085 A 
HETATM   11  O3  UNL     1      24.804   4.717  48.980  1.00  0.00    -0.345 OA
HETATM   12  C19 UNL     1      25.922   5.563  48.786  1.00  0.00     0.202 C 
HETATM   13  C20 UNL     1      27.225   4.786  48.851  1.00  0.00     0.202 C 
HETATM   14  O4  UNL     1      27.254   3.952  49.993  1.00  0.00    -0.344 OA
ENDROOT
BRANCH   1  15
HETATM   15  N1  UNL     1      22.324   4.347  48.811  1.00  0.00     0.072 N 
HETATM   16  C2  UNL     1      21.834   5.497  50.227  1.00  0.00     0.229 A 
HETATM   17  C1  UNL     1      21.763   5.091  51.820  1.00  0.00     0.066 C 
HETATM   18  C3  UNL     1      21.351   7.122  50.471  1.00  0.00     0.120 A 
HETATM   19  C6  UNL     1      22.074   5.275  48.738  1.00  0.00     0.220 A 
HETATM   20  S1  UNL     1      21.796   6.288  48.685  1.00  0.00    -0.013 SA
HETATM   21  C4  UNL     1      21.373   7.809  48.650  1.00  0.00     0.069 A 
HETATM   22  C5  UNL     1      22.244   8.952  49.199  1.00  0.00     0.022 C 
ENDBRANCH   1  15
BRANCH   7  23
HETATM   23  O1  UNL     1      27.358   1.734  51.859  1.00  0.00    -0.341 OA
BRANCH  23  24
HETATM   24  C12 UNL     1      27.601   1.432  53.184  1.00  0.00     0.154 C 
HETATM   25  C13 UNL     1      28.305   0.092  53.365  1.00  0.00     0.061 C 
HETATM   26  C14 UNL     1      29.511   0.378  54.195  1.00  0.00     0.170 C 
HETATM   27  O2  UNL     1      29.345   1.645  54.701  1.00  0.00    -0.389 OA
HETATM   28  C15 UNL     1      28.656   2.379  53.736  1.00  0.00     0.200 C 
ENDBRANCH  23  24
ENDBRANCH   7  23
TORSDOF 3
ENDMDL
MODEL 5
REMARK VINA RESULT:      -8.1      3.432      5.163
REMARK  3 active torsions:
REMARK  status: ('A' for Active; 'I' for Inactive)
REMARK    1  A    between atoms: N1_8  and  C7_9 
REMARK    2  A    between atoms: C11_15  and  O1_16 
REMARK    3  A    between atoms: O1_16  and  C12_17 
ROOT
HETATM    1  C7  UNL     1      22.552   4.034  49.739  1.00  0.00     0.265 A 
HETATM    2  N2  UNL     1      21.369   3.495  50.157  1.00  0.00    -0.215 NA
HETATM    3  C8  UNL     1      21.410   2.456  51.041  1.00  0.00     0.236 A 
HETATM    4  N3  UNL     1      22.601   2.017  51.453  1.00  0.00    -0.241 NA
HETATM    5  C9  UNL     1      23.793   2.503  51.082  1.00  0.00     0.077 A 
HETATM    6  C10 UNL     1      24.988   1.988  51.557  1.00  0.00     0.072 A 
HETATM    7  C11 UNL     1      26.221   2.514  51.148  1.00  0.00     0.107 A 
HETATM    8  C16 UNL     1      26.147   3.559  50.258  1.00  0.00     0.136 A 
HETATM    9  C17 UNL     1      24.958   4.067  49.789  1.00  0.00     0.121 A 
HETATM   10  C18 UNL     1      23.769   3.551  50.192  1.00  0.00     0.085 A 
HETATM   11  O3  UNL     1      25.007   5.109  48.906  1.00  0.00    -0.345 OA
HETATM   12  C19 UNL     1      26.212   5.817  48.683  1.00  0.00     0.202 C 
HETATM   13  C20 UNL     1      27.415   4.892  48.723  1.00  0.00     0.202 C 
HETATM   14  O4  UNL     1      27.373   4.063  49.868  1.00  0.00    -0.344 OA
ENDROOT
BRANCH   1  15
HETATM   15  N1  UNL     1      22.498   5.032  48.795  1.00  0.00     0.072 N 
HETATM   16  C2  UNL     1      22.197   3.678  47.512  1.00  0.00     0.229 A 
HETATM   17  C1  UNL     1      22.088   2.065  47.818  1.00  0.00     0.066 C 
HETATM   18  C3  UNL     1      21.948   3.521  45.825  1.00  0.00     0.120 A 
HETATM   19  C6  UNL     1      22.376   5.154  47.846  1.00  0.00     0.220 A 
HETATM   20  S1  UNL     1      22.243   5.262  46.808  1.00  0.00    -0.013 SA
HETATM   21  C4  UNL     1      22.039   5.378  45.246  1.00  0.00     0.069 A 
HETATM   22  C5  UNL     1      20.699   5.117  44.537  1.00  0.00     0.022 C 
ENDBRANCH   1  15
BRANCH   7  23
HETATM   23  O1  UNL     1      27.258   1.853  51.742  1.00  0.00    -0.341 OA
BRANCH  23  24
HETATM   24  C12 UNL     1      27.495   1.531  53.063  1.00  0.00     0.154 C 
HETATM   25  C13 UNL     1      28.165   0.171  53.228  1.00  0.00     0.061 C 
HETATM   26  C14 UNL     1      29.379   0.417  54.058  1.00  0.00     0.170 C 
HETATM   27  O2  UNL     1      29.247   1.683  54.579  1.00  0.00    -0.389 OA
HETATM   28  C15 UNL     1      28.575   2.444  53.623  1.00  0.00     0.200 C 
ENDBRANCH  23  24
ENDBRANCH   7  23
TORSDOF 3
ENDMDL
MODEL 6
REMARK VINA RESULT:      -7.9      2.667      4.481
REMARK  3 active torsions:
REMARK  status: ('A' for Active; 'I' for Inactive)
REMARK    1  A    between atoms: N1_8  and  C7_9 
REMARK    2  A    between atoms: C11_15  and  O1_16 
REMARK    3  A    between atoms: O1_16  and  C12_17 
ROOT
HETATM    1  C7  UNL     1      21.989   2.134  49.530  1.00  0.00     0.265 A 
HETATM    2  N2  UNL     1      20.717   1.668  49.357  1.00  0.00    -0.215 NA
HETATM    3  C8  UNL     1      20.207   0.818  50.295  1.00  0.00     0.236 A 
HETATM    4  N3  UNL     1      20.974   0.485  51.336  1.00  0.00    -0.241 NA
HETATM    5  C9  UNL     1      22.225   0.908  51.562  1.00  0.00     0.077 A 
HETATM    6  C10 UNL     1      22.956   0.511  52.670  1.00  0.00     0.072 A 
HETATM    7  C11 UNL     1      24.266   0.967  52.879  1.00  0.00     0.107 A 
HETATM    8  C16 UNL     1      24.751   1.820  51.916  1.00  0.00     0.136 A 
HETATM    9  C17 UNL     1      24.020   2.211  50.819  1.00  0.00     0.121 A 
HETATM   10  C18 UNL     1      22.753   1.765  50.625  1.00  0.00     0.085 A 
HETATM   11  O3  UNL     1      24.607   3.064  49.926  1.00  0.00    -0.345 OA
HETATM   12  C19 UNL     1      25.812   3.734  50.245  1.00  0.00     0.202 C 
HETATM   13  C20 UNL     1      26.738   2.852  51.063  1.00  0.00     0.202 C 
HETATM   14  O4  UNL     1      26.041   2.257  52.141  1.00  0.00    -0.344 OA
ENDROOT
BRANCH   1  15
HETATM   15  N1  UNL     1      22.515   2.931  48.540  1.00  0.00     0.072 N 
HETATM   16  C2  UNL     1      21.530   4.357  49.290  1.00  0.00     0.229 A 
HETATM   17  C1  UNL     1      20.563   4.270  50.620  1.00  0.00     0.066 C 
HETATM   18  C3  UNL     1      21.245   6.023  49.016  1.00  0.00     0.120 A 
HETATM   19  C6  UNL     1      22.486   3.840  48.222  1.00  0.00     0.220 A 
HETATM   20  S1  UNL     1      22.437   4.839  47.893  1.00  0.00    -0.013 SA
HETATM   21  C4  UNL     1      22.335   6.346  47.434  1.00  0.00     0.069 A 
HETATM   22  C5  UNL     1      22.944   7.522  48.218  1.00  0.00     0.022 C 
ENDBRANCH   1  15
BRANCH   7  23
HETATM   23  O1  UNL     1      24.788   0.448  54.029  1.00  0.00    -0.341 OA
BRANCH  23  24
HETATM   24  C12 UNL     1      25.746  -0.524  54.237  1.00  0.00     0.154 C 
HETATM   25  C13 UNL     1      26.305  -1.090  52.936  1.00  0.00     0.061 C 
HETATM   26  C14 UNL     1      27.786  -0.952  53.038  1.00  0.00     0.170 C 
HETATM   27  O2  UNL     1      28.061  -0.654  54.352  1.00  0.00    -0.389 OA
HETATM   28  C15 UNL     1      26.996   0.113  54.824  1.00  0.00     0.200 C 
ENDBRANCH  23  24
ENDBRANCH   7  23
TORSDOF 3
ENDMDL
MODEL 7
REMARK VINA RESULT:      -7.8      1.785      2.355
REMARK  3 active torsions:
REMARK  status: ('A' for Active; 'I' for Inactive)
REMARK    1  A    between atoms: N1_8  and  C7_9 
REMARK    2  A    between atoms: C11_15  and  O1_16 
REMARK    3  A    between atoms: O1_16  and  C12_17 
ROOT
HETATM    1  C7  UNL     1      20.639   1.427  50.051  1.00  0.00     0.265 A 
HETATM    2  N2  UNL     1      20.823   2.082  48.867  1.00  0.00    -0.215 NA
HETATM    3  C8  UNL     1      22.068   2.560  48.581  1.00  0.00     0.236 A 
HETATM    4  N3  UNL     1      23.045   2.366  49.470  1.00  0.00    -0.241 NA
HETATM    5  C9  UNL     1      22.928   1.733  50.645  1.00  0.00     0.077 A 
HETATM    6  C10 UNL     1      23.994   1.574  51.514  1.00  0.00     0.072 A 
HETATM    7  C11 UNL     1      23.842   0.911  52.740  1.00  0.00     0.107 A 
HETATM    8  C16 UNL     1      22.576   0.441  53.000  1.00  0.00     0.136 A 
HETATM    9  C17 UNL     1      21.521   0.601  52.133  1.00  0.00     0.121 A 
HETATM   10  C18 UNL     1      21.679   1.244  50.948  1.00  0.00     0.085 A 
HETATM   11  O3  UNL     1      20.306   0.092  52.497  1.00  0.00    -0.345 OA
HETATM   12  C19 UNL     1      20.189  -0.796  53.592  1.00  0.00     0.202 C 
HETATM   13  C20 UNL     1      21.142  -0.424  54.714  1.00  0.00     0.202 C 
HETATM   14  O4  UNL     1      22.447  -0.209  54.211  1.00  0.00    -0.344 OA
ENDROOT
BRANCH   1  15
HETATM   15  N1  UNL     1      19.363   1.015  50.358  1.00  0.00     0.072 N 
HETATM   16  C2  UNL     1      18.994   2.806  50.829  1.00  0.00     0.229 A 
HETATM   17  C1  UNL     1      20.049   4.066  50.739  1.00  0.00     0.066 C 
HETATM   18  C3  UNL     1      17.695   3.750  51.425  1.00  0.00     0.120 A 
HETATM   19  C6  UNL     1      18.527   1.362  50.690  1.00  0.00     0.220 A 
HETATM   20  S1  UNL     1      17.626   1.765  51.056  1.00  0.00    -0.013 SA
HETATM   21  C4  UNL     1      16.294   2.410  51.606  1.00  0.00     0.069 A 
HETATM   22  C5  UNL     1      15.410   3.371  50.793  1.00  0.00     0.022 C 
ENDBRANCH   1  15
BRANCH   7  23
HETATM   23  O1  UNL     1      25.021   0.875  53.428  1.00  0.00    -0.341 OA
BRANCH  23  24
HETATM   24  C12 UNL     1      25.832  -0.182  53.791  1.00  0.00     0.154 C 
HETATM   25  C13 UNL     1      26.811  -0.578  52.691  1.00  0.00     0.061 C 
HETATM   26  C14 UNL     1      28.161  -0.560  53.325  1.00  0.00     0.170 C 
HETATM   27  O2  UNL     1      27.954  -0.489  54.683  1.00  0.00    -0.389 OA
HETATM   28  C15 UNL     1      26.799   0.269  54.876  1.00  0.00     0.200 C 
ENDBRANCH  23  24
ENDBRANCH   7  23
TORSDOF 3
ENDMDL
MODEL 8
REMARK VINA RESULT:      -7.4      3.592      7.662
REMARK  3 active torsions:
REMARK  status: ('A' for Active; 'I' for Inactive)
REMARK    1  A    between atoms: N1_8  and  C7_9 
REMARK    2  A    between atoms: C11_15  and  O1_16 
REMARK    3  A    between atoms: O1_16  and  C12_17 
ROOT
HETATM    1  C7  UNL     1      23.969   1.240  52.974  1.00  0.00     0.265 A 
HETATM    2  N2  UNL     1      23.242   0.379  53.745  1.00  0.00    -0.215 NA
HETATM    3  C8  UNL     1      22.084  -0.127  53.230  1.00  0.00     0.236 A 
HETATM    4  N3  UNL     1      21.719   0.241  52.000  1.00  0.00    -0.241 NA
HETATM    5  C9  UNL     1      22.389   1.078  51.196  1.00  0.00     0.077 A 
HETATM    6  C10 UNL     1      21.939   1.411  49.929  1.00  0.00     0.072 A 
HETATM    7  C11 UNL     1      22.658   2.294  49.110  1.00  0.00     0.107 A 
HETATM    8  C16 UNL     1      23.819   2.788  49.657  1.00  0.00     0.136 A 
HETATM    9  C17 UNL     1      24.261   2.453  50.916  1.00  0.00     0.121 A 
HETATM   10  C18 UNL     1      23.558   1.597  51.700  1.00  0.00     0.085 A 
HETATM   11  O3  UNL     1      25.430   3.007  51.356  1.00  0.00    -0.345 OA
HETATM   12  C19 UNL     1      26.295   3.684  50.463  1.00  0.00     0.202 C 
HETATM   13  C20 UNL     1      25.515   4.463  49.418  1.00  0.00     0.202 C 
HETATM   14  O4  UNL     1      24.512   3.654  48.835  1.00  0.00    -0.344 OA
ENDROOT
BRANCH   1  15
HETATM   15  N1  UNL     1      25.095   1.798  53.533  1.00  0.00     0.072 N 
HETATM   16  C2  UNL     1      25.916   0.107  53.349  1.00  0.00     0.229 A 
HETATM   17  C1  UNL     1      25.223  -1.238  52.702  1.00  0.00     0.066 C 
HETATM   18  C3  UNL     1      27.416  -0.650  53.681  1.00  0.00     0.120 A 
HETATM   19  C6  UNL     1      25.993   1.563  53.794  1.00  0.00     0.220 A 
HETATM   20  S1  UNL     1      26.968   1.280  54.073  1.00  0.00    -0.013 SA
HETATM   21  C4  UNL     1      28.422   0.815  54.475  1.00  0.00     0.069 A 
HETATM   22  C5  UNL     1      29.524   0.477  53.456  1.00  0.00     0.022 C 
ENDBRANCH   1  15
BRANCH   7  23
HETATM   23  O1  UNL     1      22.029   2.474  47.912  1.00  0.00    -0.341 OA
BRANCH  23  24
HETATM   24  C12 UNL     1      21.401   3.578  47.370  1.00  0.00     0.154 C 
HETATM   25  C13 UNL     1      21.897   3.910  45.968  1.00  0.00     0.061 C 
HETATM   26  C14 UNL     1      20.677   3.979  45.113  1.00  0.00     0.170 C 
HETATM   27  O2  UNL     1      19.601   4.013  45.969  1.00  0.00    -0.389 OA
HETATM   28  C15 UNL     1      19.946   3.243  47.080  1.00  0.00     0.200 C 
ENDBRANCH  23  24
ENDBRANCH   7  23
TORSDOF 3
ENDMDL
MODEL 9
REMARK VINA RESULT:      -7.3      3.511      6.836
REMARK  3 active torsions:
REMARK  status: ('A' for Active; 'I' for Inactive)
REMARK    1  A    between atoms: N1_8  and  C7_9 
REMARK    2  A    between atoms: C11_15  and  O1_16 
REMARK    3  A    between atoms: O1_16  and  C12_17 
ROOT
HETATM    1  C7  UNL     1      23.641   3.331  52.493  1.00  0.00     0.265 A 
HETATM    2  N2  UNL     1      24.843   2.879  52.957  1.00  0.00    -0.215 NA
HETATM    3  C8  UNL     1      24.947   1.564  53.305  1.00  0.00     0.236 A 
HETATM    4  N3  UNL     1      23.872   0.783  53.175  1.00  0.00    -0.241 NA
HETATM    5  C9  UNL     1      22.669   1.166  52.725  1.00  0.00     0.077 A 
HETATM    6  C10 UNL     1      21.600   0.291  52.622  1.00  0.00     0.072 A 
HETATM    7  C11 UNL     1      20.350   0.721  52.152  1.00  0.00     0.107 A 
HETATM    8  C16 UNL     1      20.278   2.051  51.811  1.00  0.00     0.136 A 
HETATM    9  C17 UNL     1      21.342   2.915  51.915  1.00  0.00     0.121 A 
HETATM   10  C18 UNL     1      22.548   2.489  52.370  1.00  0.00     0.085 A 
HETATM   11  O3  UNL     1      21.152   4.217  51.546  1.00  0.00    -0.345 OA
HETATM   12  C19 UNL     1      19.994   4.609  50.833  1.00  0.00     0.202 C 
HETATM   13  C20 UNL     1      18.770   3.840  51.297  1.00  0.00     0.202 C 
HETATM   14  O4  UNL     1      19.039   2.453  51.350  1.00  0.00    -0.344 OA
ENDROOT
BRANCH   1  15
HETATM   15  N1  UNL     1      23.531   4.674  52.215  1.00  0.00     0.072 N 
HETATM   16  C2  UNL     1      24.502   4.333  50.631  1.00  0.00     0.229 A 
HETATM   17  C1  UNL     1      25.057   2.865  50.135  1.00  0.00     0.066 C 
HETATM   18  C3  UNL     1      25.116   5.183  49.277  1.00  0.00     0.120 A 
HETATM   19  C6  UNL     1      23.790   5.320  51.548  1.00  0.00     0.220 A 
HETATM   20  S1  UNL     1      24.086   6.007  50.807  1.00  0.00    -0.013 SA
HETATM   21  C4  UNL     1      24.549   7.003  49.673  1.00  0.00     0.069 A 
HETATM   22  C5  UNL     1      23.954   7.019  48.254  1.00  0.00     0.022 C 
ENDBRANCH   1  15
BRANCH   7  23
HETATM   23  O1  UNL     1      19.453  -0.308  52.136  1.00  0.00    -0.341 OA
BRANCH  23  24
HETATM   24  C12 UNL     1      18.487  -0.689  53.046  1.00  0.00     0.154 C 
HETATM   25  C13 UNL     1      17.150  -1.011  52.389  1.00  0.00     0.061 C 
HETATM   26  C14 UNL     1      16.784  -2.376  52.864  1.00  0.00     0.170 C 
HETATM   27  O2  UNL     1      17.627  -2.665  53.911  1.00  0.00    -0.389 OA
HETATM   28  C15 UNL     1      18.846  -2.047  53.629  1.00  0.00     0.200 C 
ENDBRANCH  23  24
ENDBRANCH   7  23
TORSDOF 3
ENDMDL
