MODEL 1
REMARK VINA RESULT:      -8.7      0.000      0.000
REMARK  5 active torsions:
REMARK  status: ('A' for Active; 'I' for Inactive)
REMARK    1  A    between atoms: C2_2  and  O1_3 
REMARK    2  A    between atoms: O1_3  and  C3_4 
REMARK    3  A    between atoms: C5_6  and  O2_7 
REMARK    4  A    between atoms: C6_8  and  C7_9 
REMARK    5  A    between atoms: C17_20  and  O4_21 
ROOT
HETATM    1  C3  UNL     1      26.502  -0.247  54.231  1.00  0.00     0.082 A 
HETATM    2  C4  UNL     1      25.995   0.330  53.050  1.00  0.00     0.073 A 
HETATM    3  C5  UNL     1      24.660   0.148  53.237  1.00  0.00     0.009 A 
HETATM    4  O2  UNL     1      24.082   0.720  52.105  1.00  0.00     0.000 OA
HETATM    5  C6  UNL     1      22.770   0.644  52.102  1.00  0.00     0.027 A 
HETATM    6  C13 UNL     1      23.298   0.039  53.254  1.00  0.00     0.040 A 
HETATM    7  C14 UNL     1      22.068  -0.254  53.693  1.00  0.00     0.153 A 
HETATM    8  O3  UNL     1      21.389  -0.800  54.703  1.00  0.00    -0.223 OA
HETATM    9  C15 UNL     1      23.354  -0.217  53.774  1.00  0.00     0.036 A 
HETATM   10  C16 UNL     1      24.607  -0.194  53.883  1.00  0.00     0.042 A 
HETATM   11  C17 UNL     1      25.418  -0.689  54.949  1.00  0.00     0.084 A 
ENDROOT
BRANCH   5  12
HETATM   12  C7  UNL     1      22.586   1.357  50.808  1.00  0.00    -0.046 A 
HETATM   13  C8  UNL     1      23.255   2.437  50.340  1.00  0.00     0.008 A 
HETATM   14  C9  UNL     1      22.912   2.965  49.115  1.00  0.00     0.001 A 
HETATM   15  C10 UNL     1      21.888   2.271  48.534  1.00  0.00     0.000 A 
HETATM   16  C11 UNL     1      21.160   1.182  48.926  1.00  0.00     0.001 A 
HETATM   17  C12 UNL     1      21.556   0.717  50.140  1.00  0.00     0.008 A 
ENDBRANCH   5  12
BRANCH  11  18
HETATM   18  O4  UNL     1      25.023  -1.303  56.091  1.00  0.00    -0.362 OA
HETATM   19  H12 UNL     1      24.230  -1.925  56.194  1.00  0.00     0.217 HD
ENDBRANCH  11  18
BRANCH   1  20
HETATM   20  O1  UNL     1      27.632  -0.524  54.941  1.00  0.00    -0.353 OA
BRANCH  20  21
HETATM   21  C2  UNL     1      28.766   0.233  54.555  1.00  0.00     0.171 C 
HETATM   22  C1  UNL     1      29.705  -0.654  53.741  1.00  0.00     0.034 C 
ENDBRANCH  20  21
ENDBRANCH   1  20
TORSDOF 5
ENDMDL
MODEL 2
REMARK VINA RESULT:      -8.4      2.231      3.808
REMARK  5 active torsions:
REMARK  status: ('A' for Active; 'I' for Inactive)
REMARK    1  A    between atoms: C2_2  and  O1_3 
REMARK    2  A    between atoms: O1_3  and  C3_4 
REMARK    3  A    between atoms: C5_6  and  O2_7 
REMARK    4  A    between atoms: C6_8  and  C7_9 
REMARK    5  A    between atoms: C17_20  and  O4_21 
ROOT
HETATM    1  C3  UNL     1      27.891   0.717  54.154  1.00  0.00     0.082 A 
HETATM    2  C4  UNL     1      26.622   0.138  54.348  1.00  0.00     0.073 A 
HETATM    3  C5  UNL     1      25.850   0.976  53.604  1.00  0.00     0.009 A 
HETATM    4  O2  UNL     1      24.566   0.449  53.730  1.00  0.00     0.000 OA
HETATM    5  C6  UNL     1      23.660   1.133  53.067  1.00  0.00     0.027 A 
HETATM    6  C13 UNL     1      24.929   1.717  52.918  1.00  0.00     0.040 A 
HETATM    7  C14 UNL     1      24.424   2.670  52.125  1.00  0.00     0.153 A 
HETATM    8  O3  UNL     1      24.742   3.736  51.390  1.00  0.00    -0.223 OA
HETATM    9  C15 UNL     1      25.372   2.052  52.744  1.00  0.00     0.036 A 
HETATM   10  C16 UNL     1      26.318   1.472  53.334  1.00  0.00     0.042 A 
HETATM   11  C17 UNL     1      27.707   1.804  53.336  1.00  0.00     0.084 A 
ENDROOT
BRANCH   5  12
HETATM   12  C7  UNL     1      22.516   0.256  53.437  1.00  0.00    -0.046 A 
HETATM   13  C8  UNL     1      22.496  -0.778  54.310  1.00  0.00     0.008 A 
HETATM   14  C9  UNL     1      21.329  -1.486  54.493  1.00  0.00     0.001 A 
HETATM   15  C10 UNL     1      20.317  -1.001  53.714  1.00  0.00     0.000 A 
HETATM   16  C11 UNL     1      20.243   0.025  52.814  1.00  0.00     0.001 A 
HETATM   17  C12 UNL     1      21.429   0.676  52.688  1.00  0.00     0.008 A 
ENDBRANCH   5  12
BRANCH  11  18
HETATM   18  O4  UNL     1      28.325   2.830  52.702  1.00  0.00    -0.362 OA
HETATM   19  H12 UNL     1      29.214   2.788  52.216  1.00  0.00     0.217 HD
ENDBRANCH  11  18
BRANCH   1  20
HETATM   20  O1  UNL     1      29.219   0.616  54.443  1.00  0.00    -0.353 OA
BRANCH  20  21
HETATM   21  C2  UNL     1      29.973  -0.109  53.487  1.00  0.00     0.171 C 
HETATM   22  C1  UNL     1      29.497  -1.560  53.473  1.00  0.00     0.034 C 
ENDBRANCH  20  21
ENDBRANCH   1  20
TORSDOF 5
ENDMDL
MODEL 3
REMARK VINA RESULT:      -8.2      2.361      4.564
REMARK  5 active torsions:
REMARK  status: ('A' for Active; 'I' for Inactive)
REMARK    1  A    between atoms: C2_2  and  O1_3 
REMARK    2  A    between atoms: O1_3  and  C3_4 
REMARK    3  A    between atoms: C5_6  and  O2_7 
REMARK    4  A    between atoms: C6_8  and  C7_9 
REMARK    5  A    between atoms: C17_20  and  O4_21 
ROOT
HETATM    1  C3  UNL     1      26.341   2.688  51.080  1.00  0.00     0.082 A 
HETATM    2  C4  UNL     1      25.021   2.214  51.209  1.00  0.00     0.073 A 
HETATM    3  C5  UNL     1      25.155   1.397  52.288  1.00  0.00     0.009 A 
HETATM    4  O2  UNL     1      23.869   0.901  52.494  1.00  0.00     0.000 OA
HETATM    5  C6  UNL     1      23.791   0.078  53.516  1.00  0.00     0.027 A 
HETATM    6  C13 UNL     1      25.109   0.532  53.346  1.00  0.00     0.040 A 
HETATM    7  C14 UNL     1      25.516  -0.178  54.405  1.00  0.00     0.153 A 
HETATM    8  O3  UNL     1      26.573  -0.462  55.166  1.00  0.00    -0.223 OA
HETATM    9  C15 UNL     1      25.675   0.642  53.422  1.00  0.00     0.036 A 
HETATM   10  C16 UNL     1      25.863   1.444  52.473  1.00  0.00     0.042 A 
HETATM   11  C17 UNL     1      27.070   2.098  52.082  1.00  0.00     0.084 A 
ENDROOT
BRANCH   5  12
HETATM   12  C7  UNL     1      22.328  -0.170  53.392  1.00  0.00    -0.046 A 
HETATM   13  C8  UNL     1      21.420   0.509  52.653  1.00  0.00     0.008 A 
HETATM   14  C9  UNL     1      20.095   0.131  52.696  1.00  0.00     0.001 A 
HETATM   15  C10 UNL     1      19.901  -0.934  53.530  1.00  0.00     0.000 A 
HETATM   16  C11 UNL     1      20.746  -1.676  54.307  1.00  0.00     0.001 A 
HETATM   17  C12 UNL     1      22.032  -1.246  54.212  1.00  0.00     0.008 A 
ENDBRANCH   5  12
BRANCH  11  18
HETATM   18  O4  UNL     1      28.300   1.998  52.645  1.00  0.00    -0.362 OA
HETATM   19  H12 UNL     1      28.645   2.536  53.432  1.00  0.00     0.217 HD
ENDBRANCH  11  18
BRANCH   1  20
HETATM   20  O1  UNL     1      27.169   3.504  50.368  1.00  0.00    -0.353 OA
BRANCH  20  21
HETATM   21  C2  UNL     1      26.518   4.270  49.369  1.00  0.00     0.171 C 
HETATM   22  C1  UNL     1      27.561   5.071  48.595  1.00  0.00     0.034 C 
ENDBRANCH  20  21
ENDBRANCH   1  20
TORSDOF 5
ENDMDL
MODEL 4
REMARK VINA RESULT:      -8.2      1.469      5.929
REMARK  5 active torsions:
REMARK  status: ('A' for Active; 'I' for Inactive)
REMARK    1  A    between atoms: C2_2  and  O1_3 
REMARK    2  A    between atoms: O1_3  and  C3_4 
REMARK    3  A    between atoms: C5_6  and  O2_7 
REMARK    4  A    between atoms: C6_8  and  C7_9 
REMARK    5  A    between atoms: C17_20  and  O4_21 
ROOT
HETATM    1  C3  UNL     1      21.936   1.662  51.377  1.00  0.00     0.082 A 
HETATM    2  C4  UNL     1      23.311   1.435  51.578  1.00  0.00     0.073 A 
HETATM    3  C5  UNL     1      23.269   0.578  52.634  1.00  0.00     0.009 A 
HETATM    4  O2  UNL     1      24.610   0.286  52.881  1.00  0.00     0.000 OA
HETATM    5  C6  UNL     1      24.780  -0.546  53.885  1.00  0.00     0.027 A 
HETATM    6  C13 UNL     1      23.415  -0.274  53.692  1.00  0.00     0.040 A 
HETATM    7  C14 UNL     1      23.086  -1.092  54.700  1.00  0.00     0.153 A 
HETATM    8  O3  UNL     1      22.057  -1.610  55.371  1.00  0.00    -0.223 OA
HETATM    9  C15 UNL     1      22.834  -0.285  53.726  1.00  0.00     0.036 A 
HETATM   10  C16 UNL     1      22.556   0.497  52.782  1.00  0.00     0.042 A 
HETATM   11  C17 UNL     1      21.272   0.924  52.326  1.00  0.00     0.084 A 
ENDROOT
BRANCH   5  12
HETATM   12  C7  UNL     1      26.264  -0.596  53.782  1.00  0.00    -0.046 A 
HETATM   13  C8  UNL     1      27.023  -1.294  52.905  1.00  0.00     0.008 A 
HETATM   14  C9  UNL     1      28.397  -1.223  52.995  1.00  0.00     0.001 A 
HETATM   15  C10 UNL     1      28.795  -0.410  54.017  1.00  0.00     0.000 A 
HETATM   16  C11 UNL     1      28.110   0.328  54.943  1.00  0.00     0.001 A 
HETATM   17  C12 UNL     1      26.764   0.209  54.791  1.00  0.00     0.008 A 
ENDBRANCH   5  12
BRANCH  11  18
HETATM   18  O4  UNL     1      20.053   0.585  52.812  1.00  0.00    -0.362 OA
HETATM   19  H12 UNL     1      19.408  -0.083  52.405  1.00  0.00     0.217 HD
ENDBRANCH  11  18
BRANCH   1  20
HETATM   20  O1  UNL     1      21.012   2.308  50.611  1.00  0.00    -0.353 OA
BRANCH  20  21
HETATM   21  C2  UNL     1      20.484   1.530  49.550  1.00  0.00     0.171 C 
HETATM   22  C1  UNL     1      21.566   1.327  48.493  1.00  0.00     0.034 C 
ENDBRANCH  20  21
ENDBRANCH   1  20
TORSDOF 5
ENDMDL
MODEL 5
REMARK VINA RESULT:      -8.1      2.023      4.908
REMARK  5 active torsions:
REMARK  status: ('A' for Active; 'I' for Inactive)
REMARK    1  A    between atoms: C2_2  and  O1_3 
REMARK    2  A    between atoms: O1_3  and  C3_4 
REMARK    3  A    between atoms: C5_6  and  O2_7 
REMARK    4  A    between atoms: C6_8  and  C7_9 
REMARK    5  A    between atoms: C17_20  and  O4_21 
ROOT
HETATM    1  C3  UNL     1      21.116  -1.041  53.797  1.00  0.00     0.082 A 
HETATM    2  C4  UNL     1      21.576  -0.101  52.855  1.00  0.00     0.073 A 
HETATM    3  C5  UNL     1      22.889  -0.024  53.202  1.00  0.00     0.009 A 
HETATM    4  O2  UNL     1      23.424   0.883  52.288  1.00  0.00     0.000 OA
HETATM    5  C6  UNL     1      24.710   1.093  52.463  1.00  0.00     0.027 A 
HETATM    6  C13 UNL     1      24.222   0.187  53.419  1.00  0.00     0.040 A 
HETATM    7  C14 UNL     1      25.442   0.061  53.956  1.00  0.00     0.153 A 
HETATM    8  O3  UNL     1      26.139  -0.571  54.901  1.00  0.00    -0.223 OA
HETATM    9  C15 UNL     1      24.184  -0.203  53.849  1.00  0.00     0.036 A 
HETATM   10  C16 UNL     1      22.961  -0.482  53.769  1.00  0.00     0.042 A 
HETATM   11  C17 UNL     1      22.198  -1.389  54.567  1.00  0.00     0.084 A 
ENDROOT
BRANCH   5  12
HETATM   12  C7  UNL     1      24.858   2.042  51.326  1.00  0.00    -0.046 A 
HETATM   13  C8  UNL     1      23.897   2.533  50.509  1.00  0.00     0.008 A 
HETATM   14  C9  UNL     1      24.249   3.390  49.489  1.00  0.00     0.001 A 
HETATM   15  C10 UNL     1      25.596   3.619  49.464  1.00  0.00     0.000 A 
HETATM   16  C11 UNL     1      26.632   3.174  50.238  1.00  0.00     0.001 A 
HETATM   17  C12 UNL     1      26.207   2.336  51.221  1.00  0.00     0.008 A 
ENDBRANCH   5  12
BRANCH  11  18
HETATM   18  O4  UNL     1      22.620  -2.155  55.602  1.00  0.00    -0.362 OA
HETATM   19  H12 UNL     1      22.247  -2.150  56.545  1.00  0.00     0.217 HD
ENDBRANCH  11  18
BRANCH   1  20
HETATM   20  O1  UNL     1      20.033  -1.745  54.234  1.00  0.00    -0.353 OA
BRANCH  20  21
HETATM   21  C2  UNL     1      18.829  -1.451  53.546  1.00  0.00     0.171 C 
HETATM   22  C1  UNL     1      17.875  -2.635  53.683  1.00  0.00     0.034 C 
ENDBRANCH  20  21
ENDBRANCH   1  20
TORSDOF 5
ENDMDL
MODEL 6
REMARK VINA RESULT:      -8.1      1.475      1.880
REMARK  5 active torsions:
REMARK  status: ('A' for Active; 'I' for Inactive)
REMARK    1  A    between atoms: C2_2  and  O1_3 
REMARK    2  A    between atoms: O1_3  and  C3_4 
REMARK    3  A    between atoms: C5_6  and  O2_7 
REMARK    4  A    between atoms: C6_8  and  C7_9 
REMARK    5  A    between atoms: C17_20  and  O4_21 
ROOT
HETATM    1  C3  UNL     1      25.931   0.603  53.279  1.00  0.00     0.082 A 
HETATM    2  C4  UNL     1      24.880   0.883  52.385  1.00  0.00     0.073 A 
HETATM    3  C5  UNL     1      23.875   0.160  52.950  1.00  0.00     0.009 A 
HETATM    4  O2  UNL     1      22.780   0.408  52.124  1.00  0.00     0.000 OA
HETATM    5  C6  UNL     1      21.689  -0.214  52.513  1.00  0.00     0.027 A 
HETATM    6  C13 UNL     1      22.762  -0.513  53.370  1.00  0.00     0.040 A 
HETATM    7  C14 UNL     1      21.973  -1.286  54.126  1.00  0.00     0.153 A 
HETATM    8  O3  UNL     1      21.945  -2.043  55.223  1.00  0.00    -0.223 OA
HETATM    9  C15 UNL     1      23.083  -0.708  53.814  1.00  0.00     0.036 A 
HETATM   10  C16 UNL     1      24.179  -0.157  53.536  1.00  0.00     0.042 A 
HETATM   11  C17 UNL     1      25.420  -0.237  54.238  1.00  0.00     0.084 A 
ENDROOT
BRANCH   5  12
HETATM   12  C7  UNL     1      20.821   0.323  51.430  1.00  0.00    -0.046 A 
HETATM   13  C8  UNL     1      21.191   0.866  50.246  1.00  0.00     0.008 A 
HETATM   14  C9  UNL     1      20.222   1.331  49.384  1.00  0.00     0.001 A 
HETATM   15  C10 UNL     1      18.967   1.160  49.895  1.00  0.00     0.000 A 
HETATM   16  C11 UNL     1      18.501   0.628  51.065  1.00  0.00     0.001 A 
HETATM   17  C12 UNL     1      19.512   0.190  51.861  1.00  0.00     0.008 A 
ENDBRANCH   5  12
BRANCH  11  18
HETATM   18  O4  UNL     1      25.704  -0.933  55.366  1.00  0.00    -0.362 OA
HETATM   19  H12 UNL     1      25.540  -1.921  55.519  1.00  0.00     0.217 HD
ENDBRANCH  11  18
BRANCH   1  20
HETATM   20  O1  UNL     1      27.240   0.844  53.573  1.00  0.00    -0.353 OA
BRANCH  20  21
HETATM   21  C2  UNL     1      28.135  -0.160  53.126  1.00  0.00     0.171 C 
HETATM   22  C1  UNL     1      29.210  -0.378  54.188  1.00  0.00     0.034 C 
ENDBRANCH  20  21
ENDBRANCH   1  20
TORSDOF 5
ENDMDL
MODEL 7
REMARK VINA RESULT:      -7.9      2.656      6.137
REMARK  5 active torsions:
REMARK  status: ('A' for Active; 'I' for Inactive)
REMARK    1  A    between atoms: C2_2  and  O1_3 
REMARK    2  A    between atoms: O1_3  and  C3_4 
REMARK    3  A    between atoms: C5_6  and  O2_7 
REMARK    4  A    between atoms: C6_8  and  C7_9 
REMARK    5  A    between atoms: C17_20  and  O4_21 
ROOT
HETATM    1  C3  UNL     1      25.481   3.699  49.952  1.00  0.00     0.082 A 
HETATM    2  C4  UNL     1      26.471   2.825  50.444  1.00  0.00     0.073 A 
HETATM    3  C5  UNL     1      25.739   2.093  51.327  1.00  0.00     0.009 A 
HETATM    4  O2  UNL     1      26.655   1.180  51.845  1.00  0.00     0.000 OA
HETATM    5  C6  UNL     1      26.127   0.366  52.732  1.00  0.00     0.027 A 
HETATM    6  C13 UNL     1      25.165   1.273  52.258  1.00  0.00     0.040 A 
HETATM    7  C14 UNL     1      24.224   0.716  53.030  1.00  0.00     0.153 A 
HETATM    8  O3  UNL     1      22.932   0.766  53.354  1.00  0.00    -0.223 OA
HETATM    9  C15 UNL     1      24.664   1.548  52.149  1.00  0.00     0.036 A 
HETATM   10  C16 UNL     1      25.062   2.372  51.286  1.00  0.00     0.042 A 
HETATM   11  C17 UNL     1      24.314   3.376  50.599  1.00  0.00     0.084 A 
ENDROOT
BRANCH   5  12
HETATM   12  C7  UNL     1      27.375  -0.406  52.983  1.00  0.00    -0.046 A 
HETATM   13  C8  UNL     1      28.575   0.052  53.409  1.00  0.00     0.008 A 
HETATM   14  C9  UNL     1      29.622  -0.833  53.555  1.00  0.00     0.001 A 
HETATM   15  C10 UNL     1      29.256  -2.107  53.226  1.00  0.00     0.000 A 
HETATM   16  C11 UNL     1      28.083  -2.658  52.792  1.00  0.00     0.001 A 
HETATM   17  C12 UNL     1      27.099  -1.727  52.673  1.00  0.00     0.008 A 
ENDBRANCH   5  12
BRANCH  11  18
HETATM   18  O4  UNL     1      22.999   3.677  50.725  1.00  0.00    -0.362 OA
HETATM   19  H12 UNL     1      22.578   4.240  51.455  1.00  0.00     0.217 HD
ENDBRANCH  11  18
BRANCH   1  20
HETATM   20  O1  UNL     1      25.225   4.719  49.086  1.00  0.00    -0.353 OA
BRANCH  20  21
HETATM   21  C2  UNL     1      25.935   5.914  49.364  1.00  0.00     0.171 C 
HETATM   22  C1  UNL     1      27.202   5.952  48.513  1.00  0.00     0.034 C 
ENDBRANCH  20  21
ENDBRANCH   1  20
TORSDOF 5
ENDMDL
MODEL 8
REMARK VINA RESULT:      -7.6      2.572      6.170
REMARK  5 active torsions:
REMARK  status: ('A' for Active; 'I' for Inactive)
REMARK    1  A    between atoms: C2_2  and  O1_3 
REMARK    2  A    between atoms: O1_3  and  C3_4 
REMARK    3  A    between atoms: C5_6  and  O2_7 
REMARK    4  A    between atoms: C6_8  and  C7_9 
REMARK    5  A    between atoms: C17_20  and  O4_21 
ROOT
HETATM    1  C3  UNL     1      19.155   0.265  51.939  1.00  0.00     0.082 A 
HETATM    2  C4  UNL     1      20.432   0.765  51.617  1.00  0.00     0.073 A 
HETATM    3  C5  UNL     1      21.183   0.167  52.581  1.00  0.00     0.009 A 
HETATM    4  O2  UNL     1      22.480   0.600  52.313  1.00  0.00     0.000 OA
HETATM    5  C6  UNL     1      23.369   0.118  53.153  1.00  0.00     0.027 A 
HETATM    6  C13 UNL     1      22.082  -0.337  53.480  1.00  0.00     0.040 A 
HETATM    7  C14 UNL     1      22.567  -1.047  54.505  1.00  0.00     0.153 A 
HETATM    8  O3  UNL     1      22.232  -1.889  55.483  1.00  0.00    -0.223 OA
HETATM    9  C15 UNL     1      21.635  -0.622  53.722  1.00  0.00     0.036 A 
HETATM   10  C16 UNL     1      20.705  -0.225  52.975  1.00  0.00     0.042 A 
HETATM   11  C17 UNL     1      19.315  -0.548  53.034  1.00  0.00     0.084 A 
ENDROOT
BRANCH   5  12
HETATM   12  C7  UNL     1      24.543   0.777  52.516  1.00  0.00    -0.046 A 
HETATM   13  C8  UNL     1      24.583   1.942  51.828  1.00  0.00     0.008 A 
HETATM   14  C9  UNL     1      25.778   2.368  51.291  1.00  0.00     0.001 A 
HETATM   15  C10 UNL     1      26.792   1.492  51.555  1.00  0.00     0.000 A 
HETATM   16  C11 UNL     1      26.847   0.306  52.233  1.00  0.00     0.001 A 
HETATM   17  C12 UNL     1      25.634  -0.048  52.734  1.00  0.00     0.008 A 
ENDBRANCH   5  12
BRANCH  11  18
HETATM   18  O4  UNL     1      18.676  -1.355  53.916  1.00  0.00    -0.362 OA
HETATM   19  H12 UNL     1      17.721  -1.254  54.239  1.00  0.00     0.217 HD
ENDBRANCH  11  18
BRANCH   1  20
HETATM   20  O1  UNL     1      17.839   0.259  51.586  1.00  0.00    -0.353 OA
BRANCH  20  21
HETATM   21  C2  UNL     1      17.295   1.543  51.335  1.00  0.00     0.171 C 
HETATM   22  C1  UNL     1      15.831   1.559  51.767  1.00  0.00     0.034 C 
ENDBRANCH  20  21
ENDBRANCH   1  20
TORSDOF 5
ENDMDL
MODEL 9
REMARK VINA RESULT:      -7.4      2.585      5.697
REMARK  5 active torsions:
REMARK  status: ('A' for Active; 'I' for Inactive)
REMARK    1  A    between atoms: C2_2  and  O1_3 
REMARK    2  A    between atoms: O1_3  and  C3_4 
REMARK    3  A    between atoms: C5_6  and  O2_7 
REMARK    4  A    between atoms: C6_8  and  C7_9 
REMARK    5  A    between atoms: C17_20  and  O4_21 
ROOT
HETATM    1  C3  UNL     1      24.710   4.204  50.151  1.00  0.00     0.082 A 
HETATM    2  C4  UNL     1      23.734   3.382  50.747  1.00  0.00     0.073 A 
HETATM    3  C5  UNL     1      24.523   2.429  51.312  1.00  0.00     0.009 A 
HETATM    4  O2  UNL     1      23.619   1.580  51.948  1.00  0.00     0.000 OA
HETATM    5  C6  UNL     1      24.201   0.575  52.565  1.00  0.00     0.027 A 
HETATM    6  C13 UNL     1      25.155   1.386  51.930  1.00  0.00     0.040 A 
HETATM    7  C14 UNL     1      26.149   0.609  52.379  1.00  0.00     0.153 A 
HETATM    8  O3  UNL     1      27.474   0.466  52.401  1.00  0.00    -0.223 OA
HETATM    9  C15 UNL     1      25.656   1.624  51.752  1.00  0.00     0.036 A 
HETATM   10  C16 UNL     1      25.207   2.622  51.135  1.00  0.00     0.042 A 
HETATM   11  C17 UNL     1      25.928   3.637  50.435  1.00  0.00     0.084 A 
ENDROOT
BRANCH   5  12
HETATM   12  C7  UNL     1      22.943  -0.019  53.094  1.00  0.00    -0.046 A 
HETATM   13  C8  UNL     1      21.688   0.086  52.596  1.00  0.00     0.008 A 
HETATM   14  C9  UNL     1      20.645  -0.527  53.256  1.00  0.00     0.001 A 
HETATM   15  C10 UNL     1      21.072  -1.181  54.377  1.00  0.00     0.000 A 
HETATM   16  C11 UNL     1      22.302  -1.341  54.952  1.00  0.00     0.001 A 
HETATM   17  C12 UNL     1      23.278  -0.711  54.245  1.00  0.00     0.008 A 
ENDBRANCH   5  12
BRANCH  11  18
HETATM   18  O4  UNL     1      27.268   3.753  50.270  1.00  0.00    -0.362 OA
HETATM   19  H12 UNL     1      27.945   2.999  50.303  1.00  0.00     0.217 HD
ENDBRANCH  11  18
BRANCH   1  20
HETATM   20  O1  UNL     1      24.922   5.336  49.423  1.00  0.00    -0.353 OA
BRANCH  20  21
HETATM   21  C2  UNL     1      25.319   6.460  50.191  1.00  0.00     0.171 C 
HETATM   22  C1  UNL     1      24.101   7.025  50.917  1.00  0.00     0.034 C 
ENDBRANCH  20  21
ENDBRANCH   1  20
TORSDOF 5
ENDMDL
