MODEL 1
REMARK VINA RESULT:      -8.0      0.000      0.000
REMARK  6 active torsions:
REMARK  status: ('A' for Active; 'I' for Inactive)
REMARK    1  A    between atoms: O1_2  and  C2_3 
REMARK    2  A    between atoms: C7_9  and  N1_10 
REMARK    3  A    between atoms: N1_10  and  C8_11 
REMARK    4  A    between atoms: C20_28  and  O3_29 
REMARK    5  A    between atoms: O3_29  and  C21_30 
REMARK    6  A    between atoms: C21_30  and  C22_31 
ROOT
HETATM    1  C8  UNL     1      22.123   0.745  52.133  1.00  0.00     0.115 A 
HETATM    2  N2  UNL     1      21.990  -0.111  53.176  1.00  0.00    -0.228 NA
HETATM    3  C9  UNL     1      23.142  -0.339  53.846  1.00  0.00     0.234 A 
HETATM    4  N3  UNL     1      24.273   0.262  53.458  1.00  0.00    -0.249 NA
HETATM    5  C10 UNL     1      24.412   1.093  52.445  1.00  0.00     0.039 A 
HETATM    6  C11 UNL     1      23.232   1.402  51.667  1.00  0.00     0.052 A 
HETATM    7  C12 UNL     1      22.965   2.190  50.614  1.00  0.00     0.065 C 
HETATM    8  C13 UNL     1      22.314   2.871  49.571  1.00  0.00     0.044 C 
HETATM    9  C14 UNL     1      23.028   4.211  49.247  1.00  0.00     0.247 C 
HETATM   10  C15 UNL     1      22.055   5.301  49.494  1.00  0.00     0.203 C 
HETATM   11  O2  UNL     1      22.555   6.587  49.375  1.00  0.00    -0.387 OA
HETATM   12  C16 UNL     1      23.930   6.615  49.441  1.00  0.00     0.198 C 
HETATM   13  C17 UNL     1      24.451   5.621  50.459  1.00  0.00     0.299 C 
HETATM   14  N4  UNL     1      24.236   4.248  50.066  1.00  0.00     0.099 N 
HETATM   15  C18 UNL     1      25.282   3.722  49.249  1.00  0.00     0.294 C 
HETATM   16  C19 UNL     1      26.665   3.696  49.762  1.00  0.00     0.181 C 
HETATM   17  N5  UNL     1      27.070   2.968  50.850  1.00  0.00    -0.268 NA
HETATM   18  C20 UNL     1      26.706   2.187  51.744  1.00  0.00     0.146 C 
HETATM   19  C23 UNL     1      25.757   1.325  52.547  1.00  0.00     0.128 C 
ENDROOT
BRANCH   1  20
HETATM   20  N1  UNL     1      21.061   1.134  51.239  1.00  0.00    -0.352 N 
HETATM   21  H8  UNL     1      21.457   2.024  50.827  1.00  0.00     0.166 HD
BRANCH  20  22
HETATM   22  C7  UNL     1      19.959   0.257  51.235  1.00  0.00     0.111 C 
HETATM   23  C6  UNL     1      18.697   0.606  51.329  1.00  0.00     0.053 A 
HETATM   24  C2  UNL     1      18.435   2.018  51.460  1.00  0.00     0.086 A 
HETATM   25  S1  UNL     1      17.274  -0.450  51.315  1.00  0.00    -0.098 SA
HETATM   26  C3  UNL     1      17.311   2.677  51.576  1.00  0.00     0.039 A 
HETATM   27  C4  UNL     1      16.102   1.911  51.577  1.00  0.00     0.010 A 
HETATM   28  C5  UNL     1      15.848   0.617  51.481  1.00  0.00     0.050 A 
BRANCH  24  29
HETATM   29  O1  UNL     1      19.472   2.952  51.482  1.00  0.00    -0.355 OA
HETATM   30  C1  UNL     1      19.284   4.325  51.174  1.00  0.00     0.210 C 
ENDBRANCH  24  29
ENDBRANCH  20  22
ENDBRANCH   1  20
BRANCH  18  31
HETATM   31  O3  UNL     1      27.887   1.915  52.492  1.00  0.00    -0.331 OA
BRANCH  31  32
HETATM   32  C21 UNL     1      27.973   0.766  53.337  1.00  0.00     0.246 C 
BRANCH  32  33
HETATM   33  C22 UNL     1      29.064   0.840  54.303  1.00  0.00     0.257 C 
HETATM   34  O4  UNL     1      29.192   1.945  54.812  1.00  0.00    -0.305 OA
ENDBRANCH  32  33
ENDBRANCH  31  32
ENDBRANCH  18  31
TORSDOF 6
ENDMDL
MODEL 2
REMARK VINA RESULT:      -8.0      3.576      7.133
REMARK  6 active torsions:
REMARK  status: ('A' for Active; 'I' for Inactive)
REMARK    1  A    between atoms: O1_2  and  C2_3 
REMARK    2  A    between atoms: C7_9  and  N1_10 
REMARK    3  A    between atoms: N1_10  and  C8_11 
REMARK    4  A    between atoms: C20_28  and  O3_29 
REMARK    5  A    between atoms: O3_29  and  C21_30 
REMARK    6  A    between atoms: C21_30  and  C22_31 
ROOT
HETATM    1  C8  UNL     1      25.614   3.470  50.406  1.00  0.00     0.115 A 
HETATM    2  N2  UNL     1      26.812   2.967  50.793  1.00  0.00    -0.228 NA
HETATM    3  C9  UNL     1      26.716   1.872  51.582  1.00  0.00     0.234 A 
HETATM    4  N3  UNL     1      25.513   1.386  51.908  1.00  0.00    -0.249 NA
HETATM    5  C10 UNL     1      24.344   1.869  51.538  1.00  0.00     0.039 A 
HETATM    6  C11 UNL     1      24.344   3.040  50.689  1.00  0.00     0.052 A 
HETATM    7  C12 UNL     1      23.398   3.791  50.102  1.00  0.00     0.065 C 
HETATM    8  C13 UNL     1      22.732   4.774  49.351  1.00  0.00     0.044 C 
HETATM    9  C14 UNL     1      21.359   4.257  48.845  1.00  0.00     0.247 C 
HETATM   10  C15 UNL     1      21.394   4.286  47.363  1.00  0.00     0.203 C 
HETATM   11  O2  UNL     1      20.292   3.740  46.728  1.00  0.00    -0.387 OA
HETATM   12  C16 UNL     1      19.564   2.925  47.565  1.00  0.00     0.198 C 
HETATM   13  C17 UNL     1      20.472   2.121  48.474  1.00  0.00     0.299 C 
HETATM   14  N4  UNL     1      21.164   2.939  49.443  1.00  0.00     0.099 N 
HETATM   15  C18 UNL     1      20.418   3.156  50.639  1.00  0.00     0.294 C 
HETATM   16  C19 UNL     1      19.982   2.001  51.448  1.00  0.00     0.181 C 
HETATM   17  N5  UNL     1      20.837   1.130  52.071  1.00  0.00    -0.268 NA
HETATM   18  C20 UNL     1      22.029   0.849  52.280  1.00  0.00     0.146 C 
HETATM   19  C23 UNL     1      23.533   0.985  52.196  1.00  0.00     0.128 C 
ENDROOT
BRANCH   1  20
HETATM   20  N1  UNL     1      25.432   4.645  49.590  1.00  0.00    -0.352 N 
HETATM   21  H8  UNL     1      24.406   4.845  49.747  1.00  0.00     0.166 HD
BRANCH  20  22
HETATM   22  C7  UNL     1      26.599   5.073  48.927  1.00  0.00     0.111 C 
HETATM   23  C6  UNL     1      27.094   6.289  48.948  1.00  0.00     0.053 A 
HETATM   24  C2  UNL     1      26.358   7.263  49.715  1.00  0.00     0.086 A 
HETATM   25  S1  UNL     1      28.561   6.879  48.147  1.00  0.00    -0.098 SA
HETATM   26  C3  UNL     1      26.579   8.535  49.930  1.00  0.00     0.039 A 
HETATM   27  C4  UNL     1      27.741   9.107  49.322  1.00  0.00     0.010 A 
HETATM   28  C5  UNL     1      28.697   8.616  48.551  1.00  0.00     0.050 A 
BRANCH  24  29
HETATM   29  O1  UNL     1      25.187   6.922  50.394  1.00  0.00    -0.355 OA
HETATM   30  C1  UNL     1      24.203   7.874  50.768  1.00  0.00     0.210 C 
ENDBRANCH  24  29
ENDBRANCH  20  22
ENDBRANCH   1  20
BRANCH  18  31
HETATM   31  O3  UNL     1      21.989  -0.309  53.107  1.00  0.00    -0.331 OA
BRANCH  31  32
HETATM   32  C21 UNL     1      23.148  -0.742  53.822  1.00  0.00     0.246 C 
BRANCH  32  33
HETATM   33  C22 UNL     1      22.846  -1.267  55.150  1.00  0.00     0.257 C 
HETATM   34  O4  UNL     1      21.789  -1.881  55.203  1.00  0.00    -0.305 OA
ENDBRANCH  32  33
ENDBRANCH  31  32
ENDBRANCH  18  31
TORSDOF 6
ENDMDL
MODEL 3
REMARK VINA RESULT:      -7.9      1.768      2.245
REMARK  6 active torsions:
REMARK  status: ('A' for Active; 'I' for Inactive)
REMARK    1  A    between atoms: O1_2  and  C2_3 
REMARK    2  A    between atoms: C7_9  and  N1_10 
REMARK    3  A    between atoms: N1_10  and  C8_11 
REMARK    4  A    between atoms: C20_28  and  O3_29 
REMARK    5  A    between atoms: O3_29  and  C21_30 
REMARK    6  A    between atoms: C21_30  and  C22_31 
ROOT
HETATM    1  C8  UNL     1      20.086  -0.099  52.731  1.00  0.00     0.115 A 
HETATM    2  N2  UNL     1      19.652  -1.078  53.564  1.00  0.00    -0.228 NA
HETATM    3  C9  UNL     1      20.639  -1.664  54.278  1.00  0.00     0.234 A 
HETATM    4  N3  UNL     1      21.906  -1.261  54.126  1.00  0.00    -0.249 NA
HETATM    5  C10 UNL     1      22.337  -0.314  53.318  1.00  0.00     0.039 A 
HETATM    6  C11 UNL     1      21.353   0.375  52.512  1.00  0.00     0.052 A 
HETATM    7  C12 UNL     1      21.386   1.376  51.618  1.00  0.00     0.065 C 
HETATM    8  C13 UNL     1      21.024   2.355  50.677  1.00  0.00     0.044 C 
HETATM    9  C14 UNL     1      22.020   3.545  50.697  1.00  0.00     0.247 C 
HETATM   10  C15 UNL     1      21.252   4.758  51.066  1.00  0.00     0.203 C 
HETATM   11  O2  UNL     1      22.003   5.907  51.255  1.00  0.00    -0.387 OA
HETATM   12  C16 UNL     1      23.336   5.626  51.453  1.00  0.00     0.198 C 
HETATM   13  C17 UNL     1      23.514   4.378  52.295  1.00  0.00     0.299 C 
HETATM   14  N4  UNL     1      23.093   3.176  51.616  1.00  0.00     0.099 N 
HETATM   15  C18 UNL     1      24.116   2.590  50.811  1.00  0.00     0.294 C 
HETATM   16  C19 UNL     1      25.388   2.177  51.435  1.00  0.00     0.181 C 
HETATM   17  N5  UNL     1      25.496   1.198  52.387  1.00  0.00    -0.268 NA
HETATM   18  C20 UNL     1      24.872   0.367  53.069  1.00  0.00     0.146 C 
HETATM   19  C23 UNL     1      23.675  -0.399  53.590  1.00  0.00     0.128 C 
ENDROOT
BRANCH   1  20
HETATM   20  N1  UNL     1      19.248   0.662  51.838  1.00  0.00    -0.352 N 
HETATM   21  H8  UNL     1      19.614   1.640  51.999  1.00  0.00     0.166 HD
BRANCH  20  22
HETATM   22  C7  UNL     1      18.312  -0.113  51.124  1.00  0.00     0.111 C 
HETATM   23  C6  UNL     1      17.162   0.312  50.654  1.00  0.00     0.053 A 
HETATM   24  C2  UNL     1      16.840   1.693  50.910  1.00  0.00     0.086 A 
HETATM   25  S1  UNL     1      15.956  -0.611  49.740  1.00  0.00    -0.098 SA
HETATM   26  C3  UNL     1      15.792   2.407  50.584  1.00  0.00     0.039 A 
HETATM   27  C4  UNL     1      14.758   1.750  49.845  1.00  0.00     0.010 A 
HETATM   28  C5  UNL     1      14.613   0.517  49.388  1.00  0.00     0.050 A 
BRANCH  24  29
HETATM   29  O1  UNL     1      17.709   2.525  51.617  1.00  0.00    -0.355 OA
HETATM   30  C1  UNL     1      17.692   3.940  51.502  1.00  0.00     0.210 C 
ENDBRANCH  24  29
ENDBRANCH  20  22
ENDBRANCH   1  20
BRANCH  18  31
HETATM   31  O3  UNL     1      25.868  -0.281  53.853  1.00  0.00    -0.331 OA
BRANCH  31  32
HETATM   32  C21 UNL     1      26.647   0.451  54.802  1.00  0.00     0.246 C 
BRANCH  32  33
HETATM   33  C22 UNL     1      28.077   0.174  54.711  1.00  0.00     0.257 C 
HETATM   34  O4  UNL     1      28.777   1.077  55.149  1.00  0.00    -0.305 OA
ENDBRANCH  32  33
ENDBRANCH  31  32
ENDBRANCH  18  31
TORSDOF 6
ENDMDL
MODEL 4
REMARK VINA RESULT:      -7.6      2.776      5.877
REMARK  6 active torsions:
REMARK  status: ('A' for Active; 'I' for Inactive)
REMARK    1  A    between atoms: O1_2  and  C2_3 
REMARK    2  A    between atoms: C7_9  and  N1_10 
REMARK    3  A    between atoms: N1_10  and  C8_11 
REMARK    4  A    between atoms: C20_28  and  O3_29 
REMARK    5  A    between atoms: O3_29  and  C21_30 
REMARK    6  A    between atoms: C21_30  and  C22_31 
ROOT
HETATM    1  C8  UNL     1      25.011   4.728  49.683  1.00  0.00     0.115 A 
HETATM    2  N2  UNL     1      26.094   5.114  48.964  1.00  0.00    -0.228 NA
HETATM    3  C9  UNL     1      27.167   4.305  49.118  1.00  0.00     0.234 A 
HETATM    4  N3  UNL     1      27.093   3.238  49.922  1.00  0.00    -0.249 NA
HETATM    5  C10 UNL     1      26.046   2.858  50.625  1.00  0.00     0.039 A 
HETATM    6  C11 UNL     1      24.846   3.659  50.525  1.00  0.00     0.052 A 
HETATM    7  C12 UNL     1      23.610   3.594  51.046  1.00  0.00     0.065 C 
HETATM    8  C13 UNL     1      22.268   3.857  51.368  1.00  0.00     0.044 C 
HETATM    9  C14 UNL     1      21.511   2.550  51.725  1.00  0.00     0.247 C 
HETATM   10  C15 UNL     1      20.412   2.393  50.744  1.00  0.00     0.203 C 
HETATM   11  O2  UNL     1      19.697   1.210  50.830  1.00  0.00    -0.387 OA
HETATM   12  C16 UNL     1      20.381   0.244  51.534  1.00  0.00     0.198 C 
HETATM   13  C17 UNL     1      21.864   0.289  51.228  1.00  0.00     0.299 C 
HETATM   14  N4  UNL     1      22.506   1.481  51.731  1.00  0.00     0.099 N 
HETATM   15  C18 UNL     1      22.947   1.361  53.083  1.00  0.00     0.294 C 
HETATM   16  C19 UNL     1      23.908   0.302  53.445  1.00  0.00     0.181 C 
HETATM   17  N5  UNL     1      25.187   0.223  52.961  1.00  0.00    -0.268 NA
HETATM   18  C20 UNL     1      26.028   0.755  52.216  1.00  0.00     0.146 C 
HETATM   19  C23 UNL     1      26.592   1.763  51.238  1.00  0.00     0.128 C 
ENDROOT
BRANCH   1  20
HETATM   20  N1  UNL     1      23.751   5.428  49.724  1.00  0.00    -0.352 N 
HETATM   21  H8  UNL     1      23.173   4.773  50.321  1.00  0.00     0.166 HD
BRANCH  20  22
HETATM   22  C7  UNL     1      23.740   6.641  49.007  1.00  0.00     0.111 C 
HETATM   23  C6  UNL     1      23.211   6.828  47.820  1.00  0.00     0.053 A 
HETATM   24  C2  UNL     1      22.601   5.676  47.205  1.00  0.00     0.086 A 
HETATM   25  S1  UNL     1      23.156   8.331  46.881  1.00  0.00    -0.098 SA
HETATM   26  C3  UNL     1      22.001   5.533  46.051  1.00  0.00     0.039 A 
HETATM   27  C4  UNL     1      21.908   6.691  45.216  1.00  0.00     0.010 A 
HETATM   28  C5  UNL     1      22.310   7.944  45.354  1.00  0.00     0.050 A 
BRANCH  24  29
HETATM   29  O1  UNL     1      22.577   4.436  47.845  1.00  0.00    -0.355 OA
HETATM   30  C1  UNL     1      21.786   3.347  47.395  1.00  0.00     0.210 C 
ENDBRANCH  24  29
ENDBRANCH  20  22
ENDBRANCH   1  20
BRANCH  18  31
HETATM   31  O3  UNL     1      27.187  -0.064  52.333  1.00  0.00    -0.331 OA
BRANCH  31  32
HETATM   32  C21 UNL     1      27.733  -0.385  53.614  1.00  0.00     0.246 C 
BRANCH  32  33
HETATM   33  C22 UNL     1      28.819   0.502  54.018  1.00  0.00     0.257 C 
HETATM   34  O4  UNL     1      28.668   0.983  55.133  1.00  0.00    -0.305 OA
ENDBRANCH  32  33
ENDBRANCH  31  32
ENDBRANCH  18  31
TORSDOF 6
ENDMDL
MODEL 5
REMARK VINA RESULT:      -7.3      3.635      7.430
REMARK  6 active torsions:
REMARK  status: ('A' for Active; 'I' for Inactive)
REMARK    1  A    between atoms: O1_2  and  C2_3 
REMARK    2  A    between atoms: C7_9  and  N1_10 
REMARK    3  A    between atoms: N1_10  and  C8_11 
REMARK    4  A    between atoms: C20_28  and  O3_29 
REMARK    5  A    between atoms: O3_29  and  C21_30 
REMARK    6  A    between atoms: C21_30  and  C22_31 
ROOT
HETATM    1  C8  UNL     1      25.929   6.123  49.159  1.00  0.00     0.115 A 
HETATM    2  N2  UNL     1      27.049   6.153  48.395  1.00  0.00    -0.228 NA
HETATM    3  C9  UNL     1      27.796   5.029  48.477  1.00  0.00     0.234 A 
HETATM    4  N3  UNL     1      27.403   4.018  49.262  1.00  0.00    -0.249 NA
HETATM    5  C10 UNL     1      26.318   3.981  50.009  1.00  0.00     0.039 A 
HETATM    6  C11 UNL     1      25.451   5.140  49.986  1.00  0.00     0.052 A 
HETATM    7  C12 UNL     1      24.286   5.469  50.566  1.00  0.00     0.065 C 
HETATM    8  C13 UNL     1      23.123   6.152  50.961  1.00  0.00     0.044 C 
HETATM    9  C14 UNL     1      21.989   5.158  51.328  1.00  0.00     0.247 C 
HETATM   10  C15 UNL     1      20.861   5.412  50.399  1.00  0.00     0.203 C 
HETATM   11  O2  UNL     1      19.797   4.531  50.496  1.00  0.00    -0.387 OA
HETATM   12  C16 UNL     1      20.147   3.367  51.145  1.00  0.00     0.198 C 
HETATM   13  C17 UNL     1      21.547   2.928  50.765  1.00  0.00     0.299 C 
HETATM   14  N4  UNL     1      22.569   3.820  51.261  1.00  0.00     0.099 N 
HETATM   15  C18 UNL     1      22.999   3.510  52.586  1.00  0.00     0.294 C 
HETATM   16  C19 UNL     1      23.566   2.179  52.877  1.00  0.00     0.181 C 
HETATM   17  N5  UNL     1      24.724   1.698  52.328  1.00  0.00    -0.268 NA
HETATM   18  C20 UNL     1      25.663   1.948  51.553  1.00  0.00     0.146 C 
HETATM   19  C23 UNL     1      26.491   2.746  50.570  1.00  0.00     0.128 C 
ENDROOT
BRANCH   1  20
HETATM   20  N1  UNL     1      24.977   7.199  49.278  1.00  0.00    -0.352 N 
HETATM   21  H8  UNL     1      24.837   7.233  50.325  1.00  0.00     0.166 HD
BRANCH  20  22
HETATM   22  C7  UNL     1      24.602   7.777  48.049  1.00  0.00     0.111 C 
HETATM   23  C6  UNL     1      24.905   8.989  47.644  1.00  0.00     0.053 A 
HETATM   24  C2  UNL     1      25.681   9.790  48.557  1.00  0.00     0.086 A 
HETATM   25  S1  UNL     1      24.474   9.759  46.107  1.00  0.00    -0.098 SA
HETATM   26  C3  UNL     1      26.134  11.013  48.457  1.00  0.00     0.039 A 
HETATM   27  C4  UNL     1      25.836  11.723  47.250  1.00  0.00     0.010 A 
HETATM   28  C5  UNL     1      25.172  11.406  46.152  1.00  0.00     0.050 A 
BRANCH  24  29
HETATM   29  O1  UNL     1      26.085   9.295  49.798  1.00  0.00    -0.355 OA
HETATM   30  C1  UNL     1      27.422   9.375  50.266  1.00  0.00     0.210 C 
ENDBRANCH  24  29
ENDBRANCH  20  22
ENDBRANCH   1  20
BRANCH  18  31
HETATM   31  O3  UNL     1      26.486   0.786  51.594  1.00  0.00    -0.331 OA
BRANCH  31  32
HETATM   32  C21 UNL     1      26.487  -0.074  52.736  1.00  0.00     0.246 C 
BRANCH  32  33
HETATM   33  C22 UNL     1      27.796  -0.652  53.023  1.00  0.00     0.257 C 
HETATM   34  O4  UNL     1      28.016  -0.792  54.218  1.00  0.00    -0.305 OA
ENDBRANCH  32  33
ENDBRANCH  31  32
ENDBRANCH  18  31
TORSDOF 6
ENDMDL
MODEL 6
REMARK VINA RESULT:      -7.2      8.090     12.254
REMARK  6 active torsions:
REMARK  status: ('A' for Active; 'I' for Inactive)
REMARK    1  A    between atoms: O1_2  and  C2_3 
REMARK    2  A    between atoms: C7_9  and  N1_10 
REMARK    3  A    between atoms: N1_10  and  C8_11 
REMARK    4  A    between atoms: C20_28  and  O3_29 
REMARK    5  A    between atoms: O3_29  and  C21_30 
REMARK    6  A    between atoms: C21_30  and  C22_31 
ROOT
HETATM    1  C8  UNL     1      30.095   6.316  48.316  1.00  0.00     0.115 A 
HETATM    2  N2  UNL     1      29.481   5.107  48.345  1.00  0.00    -0.228 NA
HETATM    3  C9  UNL     1      28.139   5.181  48.488  1.00  0.00     0.234 A 
HETATM    4  N3  UNL     1      27.539   6.373  48.585  1.00  0.00    -0.249 NA
HETATM    5  C10 UNL     1      28.127   7.552  48.561  1.00  0.00     0.039 A 
HETATM    6  C11 UNL     1      29.566   7.577  48.407  1.00  0.00     0.052 A 
HETATM    7  C12 UNL     1      30.497   8.540  48.316  1.00  0.00     0.065 C 
HETATM    8  C13 UNL     1      31.715   9.229  48.186  1.00  0.00     0.044 C 
HETATM    9  C14 UNL     1      31.500  10.630  47.554  1.00  0.00     0.247 C 
HETATM   10  C15 UNL     1      32.263  10.664  46.283  1.00  0.00     0.203 C 
HETATM   11  O2  UNL     1      32.091  11.801  45.513  1.00  0.00    -0.387 OA
HETATM   12  C16 UNL     1      30.958  12.500  45.868  1.00  0.00     0.198 C 
HETATM   13  C17 UNL     1      29.820  11.560  46.213  1.00  0.00     0.299 C 
HETATM   14  N4  UNL     1      30.057  10.813  47.426  1.00  0.00     0.099 N 
HETATM   15  C18 UNL     1      29.641  11.499  48.606  1.00  0.00     0.294 C 
HETATM   16  C19 UNL     1      28.231  11.911  48.752  1.00  0.00     0.181 C 
HETATM   17  N5  UNL     1      27.177  11.039  48.819  1.00  0.00    -0.268 NA
HETATM   18  C20 UNL     1      26.844   9.842  48.805  1.00  0.00     0.146 C 
HETATM   19  C23 UNL     1      27.023   8.341  48.729  1.00  0.00     0.128 C 
ENDROOT
BRANCH   1  20
HETATM   20  N1  UNL     1      31.518   6.521  48.202  1.00  0.00    -0.352 N 
HETATM   21  H8  UNL     1      31.559   7.560  48.010  1.00  0.00     0.166 HD
BRANCH  20  22
HETATM   22  C7  UNL     1      32.285   5.352  48.373  1.00  0.00     0.111 C 
HETATM   23  C6  UNL     1      33.124   4.847  47.498  1.00  0.00     0.053 A 
HETATM   24  C2  UNL     1      33.249   5.561  46.251  1.00  0.00     0.086 A 
HETATM   25  S1  UNL     1      34.123   3.393  47.665  1.00  0.00    -0.098 SA
HETATM   26  C3  UNL     1      33.981   5.322  45.193  1.00  0.00     0.039 A 
HETATM   27  C4  UNL     1      34.823   4.165  45.229  1.00  0.00     0.010 A 
HETATM   28  C5  UNL     1      35.043   3.232  46.139  1.00  0.00     0.050 A 
BRANCH  24  29
HETATM   29  O1  UNL     1      32.517   6.722  45.999  1.00  0.00    -0.355 OA
HETATM   30  C1  UNL     1      32.048   7.077  44.708  1.00  0.00     0.210 C 
ENDBRANCH  24  29
ENDBRANCH  20  22
ENDBRANCH   1  20
BRANCH  18  31
HETATM   31  O3  UNL     1      25.428   9.857  48.948  1.00  0.00    -0.331 OA
BRANCH  31  32
HETATM   32  C21 UNL     1      24.580  10.124  47.829  1.00  0.00     0.246 C 
BRANCH  32  33
HETATM   33  C22 UNL     1      23.618   9.058  47.565  1.00  0.00     0.257 C 
HETATM   34  O4  UNL     1      24.009   8.241  46.743  1.00  0.00    -0.305 OA
ENDBRANCH  32  33
ENDBRANCH  31  32
ENDBRANCH  18  31
TORSDOF 6
ENDMDL
MODEL 7
REMARK VINA RESULT:      -7.0      7.625     12.469
REMARK  6 active torsions:
REMARK  status: ('A' for Active; 'I' for Inactive)
REMARK    1  A    between atoms: O1_2  and  C2_3 
REMARK    2  A    between atoms: C7_9  and  N1_10 
REMARK    3  A    between atoms: N1_10  and  C8_11 
REMARK    4  A    between atoms: C20_28  and  O3_29 
REMARK    5  A    between atoms: O3_29  and  C21_30 
REMARK    6  A    between atoms: C21_30  and  C22_31 
ROOT
HETATM    1  C8  UNL     1      31.119   8.887  47.111  1.00  0.00     0.115 A 
HETATM    2  N2  UNL     1      32.307   9.541  47.127  1.00  0.00    -0.228 NA
HETATM    3  C9  UNL     1      32.216  10.828  47.531  1.00  0.00     0.234 A 
HETATM    4  N3  UNL     1      31.028  11.342  47.870  1.00  0.00    -0.249 NA
HETATM    5  C10 UNL     1      29.869  10.715  47.855  1.00  0.00     0.039 A 
HETATM    6  C11 UNL     1      29.864   9.330  47.439  1.00  0.00     0.052 A 
HETATM    7  C12 UNL     1      28.928   8.375  47.316  1.00  0.00     0.065 C 
HETATM    8  C13 UNL     1      28.267   7.159  47.072  1.00  0.00     0.044 C 
HETATM    9  C14 UNL     1      26.998   7.025  47.957  1.00  0.00     0.247 C 
HETATM   10  C15 UNL     1      27.184   5.833  48.818  1.00  0.00     0.203 C 
HETATM   11  O2  UNL     1      26.199   5.623  49.768  1.00  0.00    -0.387 OA
HETATM   12  C16 UNL     1      25.454   6.758  50.000  1.00  0.00     0.198 C 
HETATM   13  C17 UNL     1      26.325   7.999  49.977  1.00  0.00     0.299 C 
HETATM   14  N4  UNL     1      26.848   8.294  48.664  1.00  0.00     0.099 N 
HETATM   15  C18 UNL     1      25.967   9.086  47.867  1.00  0.00     0.294 C 
HETATM   16  C19 UNL     1      25.543  10.414  48.350  1.00  0.00     0.181 C 
HETATM   17  N5  UNL     1      26.394  11.467  48.557  1.00  0.00    -0.268 NA
HETATM   18  C20 UNL     1      27.577  11.844  48.505  1.00  0.00     0.146 C 
HETATM   19  C23 UNL     1      29.067  11.747  48.260  1.00  0.00     0.128 C 
ENDROOT
BRANCH   1  20
HETATM   20  N1  UNL     1      30.931   7.520  46.694  1.00  0.00    -0.352 N 
HETATM   21  H8  UNL     1      30.040   7.271  47.207  1.00  0.00     0.166 HD
BRANCH  20  22
HETATM   22  C7  UNL     1      31.925   7.041  45.819  1.00  0.00     0.111 C 
HETATM   23  C6  UNL     1      32.692   5.995  46.024  1.00  0.00     0.053 A 
HETATM   24  C2  UNL     1      32.492   5.293  47.267  1.00  0.00     0.086 A 
HETATM   25  S1  UNL     1      33.946   5.340  44.955  1.00  0.00    -0.098 SA
HETATM   26  C3  UNL     1      33.083   4.236  47.763  1.00  0.00     0.039 A 
HETATM   27  C4  UNL     1      34.115   3.634  46.975  1.00  0.00     0.010 A 
HETATM   28  C5  UNL     1      34.633   3.917  45.792  1.00  0.00     0.050 A 
BRANCH  24  29
HETATM   29  O1  UNL     1      31.533   5.708  48.193  1.00  0.00    -0.355 OA
HETATM   30  C1  UNL     1      31.815   5.890  49.571  1.00  0.00     0.210 C 
ENDBRANCH  24  29
ENDBRANCH  20  22
ENDBRANCH   1  20
BRANCH  18  31
HETATM   31  O3  UNL     1      27.543  13.203  48.929  1.00  0.00    -0.331 OA
BRANCH  31  32
HETATM   32  C21 UNL     1      27.560  14.270  47.979  1.00  0.00     0.246 C 
BRANCH  32  33
HETATM   33  C22 UNL     1      26.237  14.829  47.715  1.00  0.00     0.257 C 
HETATM   34  O4  UNL     1      25.476  14.751  48.669  1.00  0.00    -0.305 OA
ENDBRANCH  32  33
ENDBRANCH  31  32
ENDBRANCH  18  31
TORSDOF 6
ENDMDL
MODEL 8
REMARK VINA RESULT:      -6.9      4.813      9.380
REMARK  6 active torsions:
REMARK  status: ('A' for Active; 'I' for Inactive)
REMARK    1  A    between atoms: O1_2  and  C2_3 
REMARK    2  A    between atoms: C7_9  and  N1_10 
REMARK    3  A    between atoms: N1_10  and  C8_11 
REMARK    4  A    between atoms: C20_28  and  O3_29 
REMARK    5  A    between atoms: O3_29  and  C21_30 
REMARK    6  A    between atoms: C21_30  and  C22_31 
ROOT
HETATM    1  C8  UNL     1      26.840   5.142  48.947  1.00  0.00     0.115 A 
HETATM    2  N2  UNL     1      27.201   3.992  49.569  1.00  0.00    -0.228 NA
HETATM    3  C9  UNL     1      26.168   3.335  50.144  1.00  0.00     0.234 A 
HETATM    4  N3  UNL     1      24.929   3.834  50.065  1.00  0.00    -0.249 NA
HETATM    5  C10 UNL     1      24.570   4.951  49.465  1.00  0.00     0.039 A 
HETATM    6  C11 UNL     1      25.606   5.725  48.817  1.00  0.00     0.052 A 
HETATM    7  C12 UNL     1      25.642   6.863  48.106  1.00  0.00     0.065 C 
HETATM    8  C13 UNL     1      26.071   7.965  47.347  1.00  0.00     0.044 C 
HETATM    9  C14 UNL     1      24.936   8.484  46.424  1.00  0.00     0.247 C 
HETATM   10  C15 UNL     1      25.407   8.350  45.025  1.00  0.00     0.203 C 
HETATM   11  O2  UNL     1      24.474   8.653  44.048  1.00  0.00    -0.387 OA
HETATM   12  C16 UNL     1      23.188   8.635  44.539  1.00  0.00     0.198 C 
HETATM   13  C17 UNL     1      22.998   7.512  45.539  1.00  0.00     0.299 C 
HETATM   14  N4  UNL     1      23.741   7.716  46.761  1.00  0.00     0.099 N 
HETATM   15  C18 UNL     1      23.036   8.489  47.731  1.00  0.00     0.294 C 
HETATM   16  C19 UNL     1      21.727   8.023  48.226  1.00  0.00     0.181 C 
HETATM   17  N5  UNL     1      21.538   6.863  48.930  1.00  0.00    -0.268 NA
HETATM   18  C20 UNL     1      22.097   5.862  49.411  1.00  0.00     0.146 C 
HETATM   19  C23 UNL     1      23.233   4.924  49.754  1.00  0.00     0.128 C 
ENDROOT
BRANCH   1  20
HETATM   20  N1  UNL     1      27.746   6.045  48.282  1.00  0.00    -0.352 N 
HETATM   21  H8  UNL     1      27.126   6.889  48.142  1.00  0.00     0.166 HD
BRANCH  20  22
HETATM   22  C7  UNL     1      29.036   5.518  48.073  1.00  0.00     0.111 C 
HETATM   23  C6  UNL     1      30.168   6.147  48.288  1.00  0.00     0.053 A 
HETATM   24  C2  UNL     1      30.062   7.501  48.771  1.00  0.00     0.086 A 
HETATM   25  S1  UNL     1      31.814   5.530  48.057  1.00  0.00    -0.098 SA
HETATM   26  C3  UNL     1      30.983   8.380  49.074  1.00  0.00     0.039 A 
HETATM   27  C4  UNL     1      32.347   7.979  48.919  1.00  0.00     0.010 A 
HETATM   28  C5  UNL     1      32.922   6.857  48.518  1.00  0.00     0.050 A 
BRANCH  24  29
HETATM   29  O1  UNL     1      28.822   8.100  48.996  1.00  0.00    -0.355 OA
HETATM   30  C1  UNL     1      28.677   9.397  49.552  1.00  0.00     0.210 C 
ENDBRANCH  24  29
ENDBRANCH  20  22
ENDBRANCH   1  20
BRANCH  18  31
HETATM   31  O3  UNL     1      21.048   5.124  50.030  1.00  0.00    -0.331 OA
BRANCH  31  32
HETATM   32  C21 UNL     1      21.308   4.277  51.152  1.00  0.00     0.246 C 
BRANCH  32  33
HETATM   33  C22 UNL     1      20.151   3.487  51.559  1.00  0.00     0.257 C 
HETATM   34  O4  UNL     1      20.094   3.291  52.766  1.00  0.00    -0.305 OA
ENDBRANCH  32  33
ENDBRANCH  31  32
ENDBRANCH  18  31
TORSDOF 6
ENDMDL
MODEL 9
REMARK VINA RESULT:      -6.8      5.940      8.248
REMARK  6 active torsions:
REMARK  status: ('A' for Active; 'I' for Inactive)
REMARK    1  A    between atoms: O1_2  and  C2_3 
REMARK    2  A    between atoms: C7_9  and  N1_10 
REMARK    3  A    between atoms: N1_10  and  C8_11 
REMARK    4  A    between atoms: C20_28  and  O3_29 
REMARK    5  A    between atoms: O3_29  and  C21_30 
REMARK    6  A    between atoms: C21_30  and  C22_31 
ROOT
HETATM    1  C8  UNL     1      26.545   6.511  48.564  1.00  0.00     0.115 A 
HETATM    2  N2  UNL     1      26.164   5.276  48.974  1.00  0.00    -0.228 NA
HETATM    3  C9  UNL     1      27.169   4.370  48.981  1.00  0.00     0.234 A 
HETATM    4  N3  UNL     1      28.401   4.733  48.607  1.00  0.00    -0.249 NA
HETATM    5  C10 UNL     1      28.779   5.929  48.206  1.00  0.00     0.039 A 
HETATM    6  C11 UNL     1      27.774   6.969  48.166  1.00  0.00     0.052 A 
HETATM    7  C12 UNL     1      27.765   8.274  47.850  1.00  0.00     0.065 C 
HETATM    8  C13 UNL     1      27.367   9.601  47.617  1.00  0.00     0.044 C 
HETATM    9  C14 UNL     1      28.551  10.584  47.823  1.00  0.00     0.247 C 
HETATM   10  C15 UNL     1      28.174  11.506  48.921  1.00  0.00     0.203 C 
HETATM   11  O2  UNL     1      29.164  12.383  49.331  1.00  0.00    -0.387 OA
HETATM   12  C16 UNL     1      30.416  11.975  48.926  1.00  0.00     0.198 C 
HETATM   13  C17 UNL     1      30.559  10.470  49.020  1.00  0.00     0.299 C 
HETATM   14  N4  UNL     1      29.735   9.765  48.067  1.00  0.00     0.099 N 
HETATM   15  C18 UNL     1      30.360   9.589  46.796  1.00  0.00     0.294 C 
HETATM   16  C19 UNL     1      31.643   8.864  46.708  1.00  0.00     0.181 C 
HETATM   17  N5  UNL     1      31.805   7.544  47.036  1.00  0.00    -0.268 NA
HETATM   18  C20 UNL     1      31.234   6.520  47.448  1.00  0.00     0.146 C 
HETATM   19  C23 UNL     1      30.095   5.658  47.946  1.00  0.00     0.128 C 
ENDROOT
BRANCH   1  20
HETATM   20  N1  UNL     1      25.668   7.649  48.435  1.00  0.00    -0.352 N 
HETATM   21  H8  UNL     1      26.070   8.119  47.578  1.00  0.00     0.166 HD
BRANCH  20  22
HETATM   22  C7  UNL     1      24.667   7.720  49.423  1.00  0.00     0.111 C 
HETATM   23  C6  UNL     1      23.374   7.620  49.217  1.00  0.00     0.053 A 
HETATM   24  C2  UNL     1      22.960   7.431  47.849  1.00  0.00     0.086 A 
HETATM   25  S1  UNL     1      22.074   7.688  50.421  1.00  0.00    -0.098 SA
HETATM   26  C3  UNL     1      21.770   7.301  47.321  1.00  0.00     0.039 A 
HETATM   27  C4  UNL     1      20.651   7.345  48.212  1.00  0.00     0.010 A 
HETATM   28  C5  UNL     1      20.540   7.493  49.522  1.00  0.00     0.050 A 
BRANCH  24  29
HETATM   29  O1  UNL     1      23.889   7.358  46.810  1.00  0.00    -0.355 OA
HETATM   30  C1  UNL     1      23.591   7.741  45.477  1.00  0.00     0.210 C 
ENDBRANCH  24  29
ENDBRANCH  20  22
ENDBRANCH   1  20
BRANCH  18  31
HETATM   31  O3  UNL     1      32.253   5.526  47.483  1.00  0.00    -0.331 OA
BRANCH  31  32
HETATM   32  C21 UNL     1      31.959   4.161  47.176  1.00  0.00     0.246 C 
BRANCH  32  33
HETATM   33  C22 UNL     1      32.809   3.609  46.126  1.00  0.00     0.257 C 
HETATM   34  O4  UNL     1      33.696   2.880  46.550  1.00  0.00    -0.305 OA
ENDBRANCH  32  33
ENDBRANCH  31  32
ENDBRANCH  18  31
TORSDOF 6
ENDMDL
