MODEL 1
REMARK VINA RESULT:      -8.5      0.000      0.000
REMARK  3 active torsions:
REMARK  status: ('A' for Active; 'I' for Inactive)
REMARK    1  A    between atoms: C5_7  and  C6_8 
REMARK    2  A    between atoms: C6_8  and  C7_9 
REMARK    3  A    between atoms: C7_9  and  C8_10 
ROOT
HETATM    1  C1  UNL     1      22.681  -0.934  54.865  1.00  0.00    -0.020 C 
HETATM    2  C2  UNL     1      21.814  -0.440  53.911  1.00  0.00    -0.025 C 
HETATM    3  C3  UNL     1      22.449   0.301  52.816  1.00  0.00     0.075 C 
HETATM    4  C4  UNL     1      22.243   1.726  52.673  1.00  0.00     0.115 C 
HETATM    5  N1  UNL     1      23.228   2.275  52.039  1.00  0.00    -0.195 NA
HETATM    6  N2  UNL     1      24.334   1.607  51.559  1.00  0.00    -0.304 N 
HETATM    7  C5  UNL     1      25.805   1.371  51.601  1.00  0.00     0.156 C 
HETATM    8  C14 UNL     1      26.141   0.994  53.015  1.00  0.00     0.093 A 
HETATM    9  C15 UNL     1      25.753  -0.309  53.242  1.00  0.00     0.144 A 
HETATM   10  N3  UNL     1      25.984  -0.131  54.514  1.00  0.00    -0.262 N 
HETATM   11  N4  UNL     1      26.437   0.957  55.144  1.00  0.00     0.008 NA
HETATM   12  N5  UNL     1      26.560   1.799  54.054  1.00  0.00    -0.161 NA
HETATM   13  C16 UNL     1      25.449  -0.982  55.556  1.00  0.00     0.096 C 
HETATM   14  C17 UNL     1      24.068  -1.127  55.450  1.00  0.00     0.061 C 
HETATM   15  H6  UNL     1      23.805   1.028  50.835  1.00  0.00     0.183 HD
ENDROOT
BRANCH   7  16
HETATM   16  C6  UNL     1      26.446   2.692  51.276  1.00  0.00     0.038 C 
BRANCH  16  17
HETATM   17  C7  UNL     1      26.511   2.895  49.778  1.00  0.00     0.041 C 
BRANCH  17  18
HETATM   18  C8  UNL     1      26.665   4.312  49.382  1.00  0.00    -0.058 A 
HETATM   19  C9  UNL     1      27.742   4.766  48.649  1.00  0.00     0.007 A 
HETATM   20  C10 UNL     1      27.867   6.092  48.290  1.00  0.00     0.001 A 
HETATM   21  C11 UNL     1      26.905   7.007  48.663  1.00  0.00     0.000 A 
HETATM   22  C12 UNL     1      25.833   6.513  49.402  1.00  0.00     0.001 A 
HETATM   23  C13 UNL     1      25.664   5.198  49.783  1.00  0.00     0.007 A 
ENDBRANCH  17  18
ENDBRANCH  16  17
ENDBRANCH   7  16
TORSDOF 3
ENDMDL
MODEL 2
REMARK VINA RESULT:      -8.2      1.455      2.114
REMARK  3 active torsions:
REMARK  status: ('A' for Active; 'I' for Inactive)
REMARK    1  A    between atoms: C5_7  and  C6_8 
REMARK    2  A    between atoms: C6_8  and  C7_9 
REMARK    3  A    between atoms: C7_9  and  C8_10 
ROOT
HETATM    1  C1  UNL     1      24.204  -1.284  55.695  1.00  0.00    -0.020 C 
HETATM    2  C2  UNL     1      22.877  -1.489  55.375  1.00  0.00    -0.025 C 
HETATM    3  C3  UNL     1      22.412  -0.796  54.169  1.00  0.00     0.075 C 
HETATM    4  C4  UNL     1      21.454   0.284  54.263  1.00  0.00     0.115 C 
HETATM    5  N1  UNL     1      21.557   1.084  53.250  1.00  0.00    -0.195 NA
HETATM    6  N2  UNL     1      22.455   0.941  52.214  1.00  0.00    -0.304 N 
HETATM    7  C5  UNL     1      23.635   1.455  51.463  1.00  0.00     0.156 C 
HETATM    8  C14 UNL     1      24.747   1.607  52.460  1.00  0.00     0.093 A 
HETATM    9  C15 UNL     1      25.264   0.364  52.758  1.00  0.00     0.144 A 
HETATM   10  N3  UNL     1      25.944   0.906  53.730  1.00  0.00    -0.262 N 
HETATM   11  N4  UNL     1      25.998   2.185  54.110  1.00  0.00     0.008 NA
HETATM   12  N5  UNL     1      25.121   2.720  53.184  1.00  0.00    -0.161 NA
HETATM   13  C16 UNL     1      26.512   0.156  54.831  1.00  0.00     0.096 C 
HETATM   14  C17 UNL     1      25.563  -0.653  55.452  1.00  0.00     0.061 C 
HETATM   15  H6  UNL     1      22.037   0.036  51.833  1.00  0.00     0.183 HD
ENDROOT
BRANCH   7  16
HETATM   16  C6  UNL     1      23.241   2.813  50.951  1.00  0.00     0.038 C 
BRANCH  16  17
HETATM   17  C7  UNL     1      23.614   2.957  49.492  1.00  0.00     0.041 C 
BRANCH  17  18
HETATM   18  C8  UNL     1      24.714   3.919  49.258  1.00  0.00    -0.058 A 
HETATM   19  C9  UNL     1      24.489   5.239  48.929  1.00  0.00     0.007 A 
HETATM   20  C10 UNL     1      25.530   6.120  48.715  1.00  0.00     0.001 A 
HETATM   21  C11 UNL     1      26.837   5.692  48.826  1.00  0.00     0.000 A 
HETATM   22  C12 UNL     1      27.025   4.353  49.160  1.00  0.00     0.001 A 
HETATM   23  C13 UNL     1      26.018   3.437  49.383  1.00  0.00     0.007 A 
ENDBRANCH  17  18
ENDBRANCH  16  17
ENDBRANCH   7  16
TORSDOF 3
ENDMDL
MODEL 3
REMARK VINA RESULT:      -8.0      1.528      3.355
REMARK  3 active torsions:
REMARK  status: ('A' for Active; 'I' for Inactive)
REMARK    1  A    between atoms: C5_7  and  C6_8 
REMARK    2  A    between atoms: C6_8  and  C7_9 
REMARK    3  A    between atoms: C7_9  and  C8_10 
ROOT
HETATM    1  C1  UNL     1      23.312  -0.720  54.241  1.00  0.00    -0.020 C 
HETATM    2  C2  UNL     1      24.678  -0.871  54.373  1.00  0.00    -0.025 C 
HETATM    3  C3  UNL     1      25.486   0.065  53.586  1.00  0.00     0.075 C 
HETATM    4  C4  UNL     1      26.288  -0.405  52.476  1.00  0.00     0.115 C 
HETATM    5  N1  UNL     1      26.491   0.542  51.618  1.00  0.00    -0.195 NA
HETATM    6  N2  UNL     1      26.015   1.831  51.729  1.00  0.00    -0.304 N 
HETATM    7  C5  UNL     1      25.137   2.919  51.215  1.00  0.00     0.156 C 
HETATM    8  C14 UNL     1      23.742   2.363  51.172  1.00  0.00     0.093 A 
HETATM    9  C15 UNL     1      23.230   2.322  52.452  1.00  0.00     0.144 A 
HETATM   10  N3  UNL     1      22.226   1.622  52.001  1.00  0.00    -0.262 N 
HETATM   11  N4  UNL     1      21.968   1.225  50.752  1.00  0.00     0.008 NA
HETATM   12  N5  UNL     1      23.076   1.763  50.124  1.00  0.00    -0.161 NA
HETATM   13  C16 UNL     1      21.360   0.822  52.842  1.00  0.00     0.096 C 
HETATM   14  C17 UNL     1      22.084  -0.051  53.651  1.00  0.00     0.061 C 
HETATM   15  H6  UNL     1      26.592   2.085  52.590  1.00  0.00     0.183 HD
ENDROOT
BRANCH   7  16
HETATM   16  C6  UNL     1      25.601   3.198  49.812  1.00  0.00     0.038 C 
BRANCH  16  17
HETATM   17  C7  UNL     1      25.259   4.618  49.414  1.00  0.00     0.041 C 
BRANCH  17  18
HETATM   18  C8  UNL     1      26.405   5.362  48.848  1.00  0.00    -0.058 A 
HETATM   19  C9  UNL     1      26.307   6.674  48.433  1.00  0.00     0.007 A 
HETATM   20  C10 UNL     1      27.389   7.351  47.908  1.00  0.00     0.001 A 
HETATM   21  C11 UNL     1      28.610   6.721  47.784  1.00  0.00     0.000 A 
HETATM   22  C12 UNL     1      28.671   5.397  48.213  1.00  0.00     0.001 A 
HETATM   23  C13 UNL     1      27.618   4.681  48.745  1.00  0.00     0.007 A 
ENDBRANCH  17  18
ENDBRANCH  16  17
ENDBRANCH   7  16
TORSDOF 3
ENDMDL
MODEL 4
REMARK VINA RESULT:      -7.9      3.424      5.639
REMARK  3 active torsions:
REMARK  status: ('A' for Active; 'I' for Inactive)
REMARK    1  A    between atoms: C5_7  and  C6_8 
REMARK    2  A    between atoms: C6_8  and  C7_9 
REMARK    3  A    between atoms: C7_9  and  C8_10 
ROOT
HETATM    1  C1  UNL     1      19.340   0.026  52.313  1.00  0.00    -0.020 C 
HETATM    2  C2  UNL     1      19.827  -0.692  53.386  1.00  0.00    -0.025 C 
HETATM    3  C3  UNL     1      21.184  -0.334  53.811  1.00  0.00     0.075 C 
HETATM    4  C4  UNL     1      22.279  -1.264  53.641  1.00  0.00     0.115 C 
HETATM    5  N1  UNL     1      23.411  -0.639  53.566  1.00  0.00    -0.195 NA
HETATM    6  N2  UNL     1      23.568   0.729  53.637  1.00  0.00    -0.304 N 
HETATM    7  C5  UNL     1      23.962   2.006  52.979  1.00  0.00     0.156 C 
HETATM    8  C14 UNL     1      23.131   2.125  51.734  1.00  0.00     0.093 A 
HETATM    9  C15 UNL     1      21.849   2.498  52.077  1.00  0.00     0.144 A 
HETATM   10  N3  UNL     1      21.477   2.257  50.850  1.00  0.00    -0.262 N 
HETATM   11  N4  UNL     1      22.209   1.840  49.814  1.00  0.00     0.008 NA
HETATM   12  N5  UNL     1      23.434   1.737  50.446  1.00  0.00    -0.161 NA
HETATM   13  C16 UNL     1      20.100   2.053  50.452  1.00  0.00     0.096 C 
HETATM   14  C17 UNL     1      19.476   1.077  51.225  1.00  0.00     0.061 C 
HETATM   15  H6  UNL     1      23.246   0.822  54.650  1.00  0.00     0.183 HD
ENDROOT
BRANCH   7  16
HETATM   16  C6  UNL     1      25.407   1.847  52.596  1.00  0.00     0.038 C 
BRANCH  16  17
HETATM   17  C7  UNL     1      26.273   1.726  53.832  1.00  0.00     0.041 C 
BRANCH  17  18
HETATM   18  C8  UNL     1      27.379   0.754  53.682  1.00  0.00    -0.058 A 
HETATM   19  C9  UNL     1      28.688   1.067  53.981  1.00  0.00     0.007 A 
HETATM   20  C10 UNL     1      29.705   0.146  53.835  1.00  0.00     0.001 A 
HETATM   21  C11 UNL     1      29.430  -1.127  53.380  1.00  0.00     0.000 A 
HETATM   22  C12 UNL     1      28.097  -1.407  53.088  1.00  0.00     0.001 A 
HETATM   23  C13 UNL     1      27.048  -0.520  53.218  1.00  0.00     0.007 A 
ENDBRANCH  17  18
ENDBRANCH  16  17
ENDBRANCH   7  16
TORSDOF 3
ENDMDL
MODEL 5
REMARK VINA RESULT:      -7.8      3.469      5.808
REMARK  3 active torsions:
REMARK  status: ('A' for Active; 'I' for Inactive)
REMARK    1  A    between atoms: C5_7  and  C6_8 
REMARK    2  A    between atoms: C6_8  and  C7_9 
REMARK    3  A    between atoms: C7_9  and  C8_10 
ROOT
HETATM    1  C1  UNL     1      20.142   3.989  51.425  1.00  0.00    -0.020 C 
HETATM    2  C2  UNL     1      21.212   4.849  51.277  1.00  0.00    -0.025 C 
HETATM    3  C3  UNL     1      22.532   4.239  51.465  1.00  0.00     0.075 C 
HETATM    4  C4  UNL     1      23.354   4.596  52.601  1.00  0.00     0.115 C 
HETATM    5  N1  UNL     1      24.181   3.643  52.893  1.00  0.00    -0.195 NA
HETATM    6  N2  UNL     1      24.277   2.443  52.222  1.00  0.00    -0.304 N 
HETATM    7  C5  UNL     1      24.131   0.960  52.226  1.00  0.00     0.156 C 
HETATM    8  C14 UNL     1      22.715   0.667  52.631  1.00  0.00     0.093 A 
HETATM    9  C15 UNL     1      21.877   0.917  51.566  1.00  0.00     0.144 A 
HETATM   10  N3  UNL     1      20.857   0.783  52.368  1.00  0.00    -0.262 N 
HETATM   11  N4  UNL     1      20.843   0.493  53.672  1.00  0.00     0.008 NA
HETATM   12  N5  UNL     1      22.206   0.403  53.885  1.00  0.00    -0.161 NA
HETATM   13  C16 UNL     1      19.529   1.278  52.072  1.00  0.00     0.096 C 
HETATM   14  C17 UNL     1      19.544   2.625  51.719  1.00  0.00     0.061 C 
HETATM   15  H6  UNL     1      24.621   2.860  51.302  1.00  0.00     0.183 HD
ENDROOT
BRANCH   7  16
HETATM   16  C6  UNL     1      25.065   0.454  53.290  1.00  0.00     0.038 C 
BRANCH  16  17
HETATM   17  C7  UNL     1      25.873  -0.716  52.774  1.00  0.00     0.041 C 
BRANCH  17  18
HETATM   18  C8  UNL     1      27.317  -0.615  53.080  1.00  0.00    -0.058 A 
HETATM   19  C9  UNL     1      28.155  -1.711  53.079  1.00  0.00     0.007 A 
HETATM   20  C10 UNL     1      29.500  -1.594  53.366  1.00  0.00     0.001 A 
HETATM   21  C11 UNL     1      30.043  -0.363  53.667  1.00  0.00     0.000 A 
HETATM   22  C12 UNL     1      29.166   0.720  53.659  1.00  0.00     0.001 A 
HETATM   23  C13 UNL     1      27.817   0.653  53.377  1.00  0.00     0.007 A 
ENDBRANCH  17  18
ENDBRANCH  16  17
ENDBRANCH   7  16
TORSDOF 3
ENDMDL
MODEL 6
REMARK VINA RESULT:      -7.7      2.011      7.576
REMARK  3 active torsions:
REMARK  status: ('A' for Active; 'I' for Inactive)
REMARK    1  A    between atoms: C5_7  and  C6_8 
REMARK    2  A    between atoms: C6_8  and  C7_9 
REMARK    3  A    between atoms: C7_9  and  C8_10 
ROOT
HETATM    1  C1  UNL     1      26.707   5.620  48.726  1.00  0.00    -0.020 C 
HETATM    2  C2  UNL     1      27.260   4.378  48.963  1.00  0.00    -0.025 C 
HETATM    3  C3  UNL     1      26.337   3.379  49.510  1.00  0.00     0.075 C 
HETATM    4  C4  UNL     1      26.498   2.888  50.862  1.00  0.00     0.115 C 
HETATM    5  N1  UNL     1      25.373   2.460  51.337  1.00  0.00    -0.195 NA
HETATM    6  N2  UNL     1      24.172   2.465  50.659  1.00  0.00    -0.304 N 
HETATM    7  C5  UNL     1      22.777   2.971  50.532  1.00  0.00     0.156 C 
HETATM    8  C14 UNL     1      22.866   4.469  50.467  1.00  0.00     0.093 A 
HETATM    9  C15 UNL     1      23.298   4.844  49.213  1.00  0.00     0.144 A 
HETATM   10  N3  UNL     1      23.448   6.062  49.656  1.00  0.00    -0.262 N 
HETATM   11  N4  UNL     1      23.203   6.553  50.873  1.00  0.00     0.008 NA
HETATM   12  N5  UNL     1      22.772   5.391  51.488  1.00  0.00    -0.161 NA
HETATM   13  C16 UNL     1      24.260   7.064  48.996  1.00  0.00     0.096 C 
HETATM   14  C17 UNL     1      25.550   6.602  48.744  1.00  0.00     0.061 C 
HETATM   15  H6  UNL     1      24.466   1.758  49.915  1.00  0.00     0.183 HD
ENDROOT
BRANCH   7  16
HETATM   16  C6  UNL     1      22.074   2.573  51.801  1.00  0.00     0.038 C 
BRANCH  16  17
HETATM   17  C7  UNL     1      21.637   1.126  51.731  1.00  0.00     0.041 C 
BRANCH  17  18
HETATM   18  C8  UNL     1      22.059   0.327  52.903  1.00  0.00    -0.058 A 
HETATM   19  C9  UNL     1      23.355  -0.116  53.072  1.00  0.00     0.007 A 
HETATM   20  C10 UNL     1      23.728  -0.860  54.172  1.00  0.00     0.001 A 
HETATM   21  C11 UNL     1      22.801  -1.183  55.141  1.00  0.00     0.000 A 
HETATM   22  C12 UNL     1      21.504  -0.719  54.937  1.00  0.00     0.001 A 
HETATM   23  C13 UNL     1      21.083   0.027  53.855  1.00  0.00     0.007 A 
ENDBRANCH  17  18
ENDBRANCH  16  17
ENDBRANCH   7  16
TORSDOF 3
ENDMDL
MODEL 7
REMARK VINA RESULT:      -7.4      1.955      4.040
REMARK  3 active torsions:
REMARK  status: ('A' for Active; 'I' for Inactive)
REMARK    1  A    between atoms: C5_7  and  C6_8 
REMARK    2  A    between atoms: C6_8  and  C7_9 
REMARK    3  A    between atoms: C7_9  and  C8_10 
ROOT
HETATM    1  C1  UNL     1      20.545  -0.206  53.277  1.00  0.00    -0.020 C 
HETATM    2  C2  UNL     1      21.692  -0.232  54.045  1.00  0.00    -0.025 C 
HETATM    3  C3  UNL     1      22.762   0.664  53.598  1.00  0.00     0.075 C 
HETATM    4  C4  UNL     1      23.996   0.129  53.065  1.00  0.00     0.115 C 
HETATM    5  N1  UNL     1      24.566   0.980  52.273  1.00  0.00    -0.195 NA
HETATM    6  N2  UNL     1      24.075   2.231  51.967  1.00  0.00    -0.304 N 
HETATM    7  C5  UNL     1      23.526   3.178  50.956  1.00  0.00     0.156 C 
HETATM    8  C14 UNL     1      22.323   2.514  50.352  1.00  0.00     0.093 A 
HETATM    9  C15 UNL     1      21.271   2.585  51.241  1.00  0.00     0.144 A 
HETATM   10  N3  UNL     1      20.606   1.759  50.481  1.00  0.00    -0.262 N 
HETATM   11  N4  UNL     1      20.969   1.197  49.325  1.00  0.00     0.008 NA
HETATM   12  N5  UNL     1      22.235   1.743  49.212  1.00  0.00    -0.161 NA
HETATM   13  C16 UNL     1      19.457   1.000  50.930  1.00  0.00     0.096 C 
HETATM   14  C17 UNL     1      19.729   0.290  52.097  1.00  0.00     0.061 C 
HETATM   15  H6  UNL     1      24.177   2.631  52.952  1.00  0.00     0.183 HD
ENDROOT
BRANCH   7  16
HETATM   16  C6  UNL     1      24.591   3.325  49.904  1.00  0.00     0.038 C 
BRANCH  16  17
HETATM   17  C7  UNL     1      24.516   4.693  49.262  1.00  0.00     0.041 C 
BRANCH  17  18
HETATM   18  C8  UNL     1      25.838   5.234  48.877  1.00  0.00    -0.058 A 
HETATM   19  C9  UNL     1      26.997   4.488  48.950  1.00  0.00     0.007 A 
HETATM   20  C10 UNL     1      28.220   5.012  48.585  1.00  0.00     0.001 A 
HETATM   21  C11 UNL     1      28.313   6.312  48.134  1.00  0.00     0.000 A 
HETATM   22  C12 UNL     1      27.124   7.034  48.073  1.00  0.00     0.001 A 
HETATM   23  C13 UNL     1      25.879   6.554  48.426  1.00  0.00     0.007 A 
ENDBRANCH  17  18
ENDBRANCH  16  17
ENDBRANCH   7  16
TORSDOF 3
ENDMDL
MODEL 8
REMARK VINA RESULT:      -7.3      5.726      9.907
REMARK  3 active torsions:
REMARK  status: ('A' for Active; 'I' for Inactive)
REMARK    1  A    between atoms: C5_7  and  C6_8 
REMARK    2  A    between atoms: C6_8  and  C7_9 
REMARK    3  A    between atoms: C7_9  and  C8_10 
ROOT
HETATM    1  C1  UNL     1      34.551   8.384  47.602  1.00  0.00    -0.020 C 
HETATM    2  C2  UNL     1      33.736   9.373  47.089  1.00  0.00    -0.025 C 
HETATM    3  C3  UNL     1      32.298   9.131  47.232  1.00  0.00     0.075 C 
HETATM    4  C4  UNL     1      31.473   8.879  46.069  1.00  0.00     0.115 C 
HETATM    5  N1  UNL     1      30.419   8.198  46.387  1.00  0.00    -0.195 NA
HETATM    6  N2  UNL     1      30.109   7.762  47.658  1.00  0.00    -0.304 N 
HETATM    7  C5  UNL     1      29.898   6.633  48.607  1.00  0.00     0.156 C 
HETATM    8  C14 UNL     1      31.156   5.813  48.588  1.00  0.00     0.093 A 
HETATM    9  C15 UNL     1      32.132   6.463  49.312  1.00  0.00     0.144 A 
HETATM   10  N3  UNL     1      33.005   5.606  48.857  1.00  0.00    -0.262 N 
HETATM   11  N4  UNL     1      32.819   4.566  48.039  1.00  0.00     0.008 NA
HETATM   12  N5  UNL     1      31.458   4.702  47.829  1.00  0.00    -0.161 NA
HETATM   13  C16 UNL     1      34.436   5.830  48.871  1.00  0.00     0.096 C 
HETATM   14  C17 UNL     1      34.776   7.047  48.286  1.00  0.00     0.061 C 
HETATM   15  H6  UNL     1      29.968   8.735  48.074  1.00  0.00     0.183 HD
ENDROOT
BRANCH   7  16
HETATM   16  C6  UNL     1      28.768   5.820  48.038  1.00  0.00     0.038 C 
BRANCH  16  17
HETATM   17  C7  UNL     1      27.436   6.355  48.517  1.00  0.00     0.041 C 
BRANCH  17  18
HETATM   18  C8  UNL     1      26.483   5.294  48.912  1.00  0.00    -0.058 A 
HETATM   19  C9  UNL     1      26.893   4.042  49.320  1.00  0.00     0.007 A 
HETATM   20  C10 UNL     1      25.988   3.067  49.684  1.00  0.00     0.001 A 
HETATM   21  C11 UNL     1      24.634   3.326  49.647  1.00  0.00     0.000 A 
HETATM   22  C12 UNL     1      24.258   4.600  49.230  1.00  0.00     0.001 A 
HETATM   23  C13 UNL     1      25.124   5.607  48.857  1.00  0.00     0.007 A 
ENDBRANCH  17  18
ENDBRANCH  16  17
ENDBRANCH   7  16
TORSDOF 3
ENDMDL
MODEL 9
REMARK VINA RESULT:      -7.3      3.317      6.093
REMARK  3 active torsions:
REMARK  status: ('A' for Active; 'I' for Inactive)
REMARK    1  A    between atoms: C5_7  and  C6_8 
REMARK    2  A    between atoms: C6_8  and  C7_9 
REMARK    3  A    between atoms: C7_9  and  C8_10 
ROOT
HETATM    1  C1  UNL     1      20.496   5.080  50.540  1.00  0.00    -0.020 C 
HETATM    2  C2  UNL     1      19.990   3.796  50.558  1.00  0.00    -0.025 C 
HETATM    3  C3  UNL     1      20.930   2.762  50.999  1.00  0.00     0.075 C 
HETATM    4  C4  UNL     1      21.416   1.763  50.072  1.00  0.00     0.115 C 
HETATM    5  N1  UNL     1      22.563   1.298  50.451  1.00  0.00    -0.195 NA
HETATM    6  N2  UNL     1      23.245   1.692  51.583  1.00  0.00    -0.304 N 
HETATM    7  C5  UNL     1      24.434   2.346  52.197  1.00  0.00     0.156 C 
HETATM    8  C14 UNL     1      24.512   3.730  51.619  1.00  0.00     0.093 A 
HETATM    9  C15 UNL     1      23.555   4.525  52.213  1.00  0.00     0.144 A 
HETATM   10  N3  UNL     1      23.803   5.446  51.324  1.00  0.00    -0.262 N 
HETATM   11  N4  UNL     1      24.690   5.437  50.326  1.00  0.00     0.008 NA
HETATM   12  N5  UNL     1      25.225   4.178  50.527  1.00  0.00    -0.161 NA
HETATM   13  C16 UNL     1      22.901   6.539  51.024  1.00  0.00     0.096 C 
HETATM   14  C17 UNL     1      21.615   6.087  50.737  1.00  0.00     0.061 C 
HETATM   15  H6  UNL     1      22.529   1.312  52.277  1.00  0.00     0.183 HD
ENDROOT
BRANCH   7  16
HETATM   16  C6  UNL     1      25.626   1.552  51.740  1.00  0.00     0.038 C 
BRANCH  16  17
HETATM   17  C7  UNL     1      25.752   0.275  52.543  1.00  0.00     0.041 C 
BRANCH  17  18
HETATM   18  C8  UNL     1      27.147  -0.056  52.907  1.00  0.00    -0.058 A 
HETATM   19  C9  UNL     1      27.630  -1.348  52.902  1.00  0.00     0.007 A 
HETATM   20  C10 UNL     1      28.935  -1.636  53.244  1.00  0.00     0.001 A 
HETATM   21  C11 UNL     1      29.799  -0.623  53.605  1.00  0.00     0.000 A 
HETATM   22  C12 UNL     1      29.277   0.668  53.599  1.00  0.00     0.001 A 
HETATM   23  C13 UNL     1      27.981   1.005  53.264  1.00  0.00     0.007 A 
ENDBRANCH  17  18
ENDBRANCH  16  17
ENDBRANCH   7  16
TORSDOF 3
ENDMDL
