MODEL 1
REMARK VINA RESULT:      -9.4      0.000      0.000
REMARK  5 active torsions:
REMARK  status: ('A' for Active; 'I' for Inactive)
REMARK    1  A    between atoms: O1_2  and  C2_3 
REMARK    2  A    between atoms: C7_8  and  C8_9 
REMARK       I    between atoms: C8_9  and  N1_11 
REMARK    3  A    between atoms: N1_11  and  C9_12 
REMARK    4  A    between atoms: C11_14  and  N2_15 
REMARK    5  A    between atoms: N2_15  and  C12_16 
ROOT
HETATM    1  C9  UNL     1      25.519   2.681  50.552  1.00  0.00     0.197 C 
HETATM    2  C10 UNL     1      26.204   1.901  51.703  1.00  0.00     0.050 C 
HETATM    3  C11 UNL     1      25.514   1.567  52.847  1.00  0.00     0.060 C 
HETATM    4  C19 UNL     1      24.112   2.056  52.760  1.00  0.00     0.074 A 
HETATM    5  C20 UNL     1      23.090   1.107  52.431  1.00  0.00     0.014 A 
HETATM    6  C21 UNL     1      22.041   2.097  52.247  1.00  0.00     0.049 A 
HETATM    7  C22 UNL     1      22.716   3.326  52.516  1.00  0.00     0.028 A 
HETATM    8  C23 UNL     1      23.528   4.363  52.800  1.00  0.00     0.146 A 
HETATM    9  N3  UNL     1      24.474   3.372  52.956  1.00  0.00    -0.280 NA
HETATM   10  C24 UNL     1      23.071   2.634  51.120  1.00  0.00     0.288 A 
HETATM   11  N4  UNL     1      24.171   2.482  50.545  1.00  0.00    -0.419 NA
ENDROOT
BRANCH   1  12
HETATM   12  N1  UNL     1      25.933   4.029  50.759  1.00  0.00    -0.333 N 
HETATM   13  C8  UNL     1      26.061   5.050  49.831  1.00  0.00     0.256 C 
HETATM   14  O2  UNL     1      25.724   4.691  48.630  1.00  0.00    -0.268 OA
HETATM   15  H8  UNL     1      26.259   4.730  51.486  1.00  0.00     0.165 HD
BRANCH  13  16
HETATM   16  C7  UNL     1      26.286   6.256  49.077  1.00  0.00     0.065 A 
HETATM   17  C2  UNL     1      26.486   7.317  48.411  1.00  0.00     0.084 A 
HETATM   18  C3  UNL     1      27.394   7.916  47.623  1.00  0.00     0.038 A 
HETATM   19  C4  UNL     1      28.594   7.276  47.342  1.00  0.00     0.003 A 
HETATM   20  C5  UNL     1      28.705   6.000  47.955  1.00  0.00     0.001 A 
HETATM   21  C6  UNL     1      27.594   5.574  48.757  1.00  0.00     0.020 A 
BRANCH  17  22
HETATM   22  O1  UNL     1      25.194   7.744  48.858  1.00  0.00    -0.355 OA
HETATM   23  C1  UNL     1      25.057   8.588  49.937  1.00  0.00     0.210 C 
ENDBRANCH  17  22
ENDBRANCH  13  16
ENDBRANCH   1  12
BRANCH   3  24
HETATM   24  N2  UNL     1      26.499   0.884  53.606  1.00  0.00    -0.354 N 
HETATM   25  H11 UNL     1      26.630   1.217  54.595  1.00  0.00     0.166 HD
BRANCH  24  26
HETATM   26  C12 UNL     1      27.413  -0.180  53.434  1.00  0.00     0.038 A 
HETATM   27  C13 UNL     1      26.789  -1.319  52.922  1.00  0.00     0.030 A 
HETATM   28  C14 UNL     1      27.615  -2.434  52.734  1.00  0.00     0.002 A 
HETATM   29  C15 UNL     1      28.958  -2.355  53.052  1.00  0.00     0.001 A 
HETATM   30  C16 UNL     1      29.509  -1.187  53.558  1.00  0.00     0.009 A 
HETATM   31  C17 UNL     1      28.734  -0.067  53.758  1.00  0.00    -0.035 A 
HETATM   32  C18 UNL     1      29.143   1.263  54.288  1.00  0.00     0.050 C 
ENDBRANCH  24  26
ENDBRANCH   3  24
TORSDOF 5
ENDMDL
MODEL 2
REMARK VINA RESULT:      -9.0      3.046      6.634
REMARK  5 active torsions:
REMARK  status: ('A' for Active; 'I' for Inactive)
REMARK    1  A    between atoms: O1_2  and  C2_3 
REMARK    2  A    between atoms: C7_8  and  C8_9 
REMARK       I    between atoms: C8_9  and  N1_11 
REMARK    3  A    between atoms: N1_11  and  C9_12 
REMARK    4  A    between atoms: C11_14  and  N2_15 
REMARK    5  A    between atoms: N2_15  and  C12_16 
ROOT
HETATM    1  C9  UNL     1      22.800   3.712  52.018  1.00  0.00     0.197 C 
HETATM    2  C10 UNL     1      24.222   3.211  52.381  1.00  0.00     0.050 C 
HETATM    3  C11 UNL     1      25.271   3.345  51.499  1.00  0.00     0.060 C 
HETATM    4  C19 UNL     1      24.808   4.008  50.251  1.00  0.00     0.074 A 
HETATM    5  C20 UNL     1      25.104   5.400  50.081  1.00  0.00     0.014 A 
HETATM    6  C21 UNL     1      24.266   5.573  48.904  1.00  0.00     0.049 A 
HETATM    7  C22 UNL     1      23.726   4.266  48.707  1.00  0.00     0.028 A 
HETATM    8  C23 UNL     1      23.327   2.979  48.697  1.00  0.00     0.146 A 
HETATM    9  N3  UNL     1      24.137   2.887  49.809  1.00  0.00    -0.280 NA
HETATM   10  C24 UNL     1      23.120   5.085  49.938  1.00  0.00     0.288 A 
HETATM   11  N4  UNL     1      22.843   4.718  51.101  1.00  0.00    -0.419 NA
ENDROOT
BRANCH   1  12
HETATM   12  N1  UNL     1      22.120   2.532  51.596  1.00  0.00    -0.333 N 
HETATM   13  C8  UNL     1      21.587   1.514  52.370  1.00  0.00     0.256 C 
HETATM   14  O2  UNL     1      21.726   1.717  53.644  1.00  0.00    -0.268 OA
HETATM   15  H8  UNL     1      21.781   1.987  50.751  1.00  0.00     0.165 HD
BRANCH  13  16
HETATM   16  C7  UNL     1      20.971   0.341  52.935  1.00  0.00     0.065 A 
HETATM   17  C2  UNL     1      20.432  -0.692  53.435  1.00  0.00     0.084 A 
HETATM   18  C3  UNL     1      20.698  -1.749  54.220  1.00  0.00     0.038 A 
HETATM   19  C4  UNL     1      21.971  -1.912  54.752  1.00  0.00     0.003 A 
HETATM   20  C5  UNL     1      22.870  -0.879  54.377  1.00  0.00     0.001 A 
HETATM   21  C6  UNL     1      22.348   0.149  53.525  1.00  0.00     0.020 A 
BRANCH  17  22
HETATM   22  O1  UNL     1      19.232  -0.290  52.765  1.00  0.00    -0.355 OA
HETATM   23  C1  UNL     1      18.038  -0.935  52.995  1.00  0.00     0.210 C 
ENDBRANCH  17  22
ENDBRANCH  13  16
ENDBRANCH   1  12
BRANCH   3  24
HETATM   24  N2  UNL     1      26.348   2.769  52.220  1.00  0.00    -0.354 N 
HETATM   25  H11 UNL     1      26.993   3.446  52.701  1.00  0.00     0.166 HD
BRANCH  24  26
HETATM   26  C12 UNL     1      26.851   1.482  52.516  1.00  0.00     0.038 A 
HETATM   27  C13 UNL     1      26.015   0.476  52.027  1.00  0.00     0.030 A 
HETATM   28  C14 UNL     1      26.423  -0.838  52.289  1.00  0.00     0.002 A 
HETATM   29  C15 UNL     1      27.591  -1.066  52.992  1.00  0.00     0.001 A 
HETATM   30  C16 UNL     1      28.373  -0.014  53.447  1.00  0.00     0.009 A 
HETATM   31  C17 UNL     1      28.009   1.293  53.212  1.00  0.00    -0.035 A 
HETATM   32  C18 UNL     1      28.712   2.540  53.619  1.00  0.00     0.050 C 
ENDBRANCH  24  26
ENDBRANCH   3  24
TORSDOF 5
ENDMDL
MODEL 3
REMARK VINA RESULT:      -8.9      2.471      5.490
REMARK  5 active torsions:
REMARK  status: ('A' for Active; 'I' for Inactive)
REMARK    1  A    between atoms: O1_2  and  C2_3 
REMARK    2  A    between atoms: C7_8  and  C8_9 
REMARK       I    between atoms: C8_9  and  N1_11 
REMARK    3  A    between atoms: N1_11  and  C9_12 
REMARK    4  A    between atoms: C11_14  and  N2_15 
REMARK    5  A    between atoms: N2_15  and  C12_16 
ROOT
HETATM    1  C9  UNL     1      24.805   2.671  53.171  1.00  0.00     0.197 C 
HETATM    2  C10 UNL     1      23.843   1.472  52.970  1.00  0.00     0.050 C 
HETATM    3  C11 UNL     1      24.282   0.175  53.109  1.00  0.00     0.060 C 
HETATM    4  C19 UNL     1      25.727   0.159  53.462  1.00  0.00     0.074 A 
HETATM    5  C20 UNL     1      26.082  -0.072  54.831  1.00  0.00     0.014 A 
HETATM    6  C21 UNL     1      27.490   0.247  54.660  1.00  0.00     0.049 A 
HETATM    7  C22 UNL     1      27.576   0.565  53.272  1.00  0.00     0.028 A 
HETATM    8  C23 UNL     1      27.446   0.827  51.956  1.00  0.00     0.146 A 
HETATM    9  N3  UNL     1      26.123   0.515  52.190  1.00  0.00    -0.280 NA
HETATM   10  C24 UNL     1      26.871   1.665  54.189  1.00  0.00     0.288 A 
HETATM   11  N4  UNL     1      25.842   2.349  53.994  1.00  0.00    -0.419 NA
ENDROOT
BRANCH   1  12
HETATM   12  N1  UNL     1      25.174   3.038  51.843  1.00  0.00    -0.333 N 
HETATM   13  C8  UNL     1      24.412   3.671  50.875  1.00  0.00     0.256 C 
HETATM   14  O2  UNL     1      23.219   3.974  51.284  1.00  0.00    -0.268 OA
HETATM   15  H8  UNL     1      25.960   3.022  51.130  1.00  0.00     0.165 HD
BRANCH  13  16
HETATM   16  C7  UNL     1      23.840   4.296  49.710  1.00  0.00     0.065 A 
HETATM   17  C2  UNL     1      23.333   4.843  48.684  1.00  0.00     0.084 A 
HETATM   18  C3  UNL     1      22.581   4.575  47.604  1.00  0.00     0.038 A 
HETATM   19  C4  UNL     1      22.113   3.284  47.392  1.00  0.00     0.003 A 
HETATM   20  C5  UNL     1      22.511   2.371  48.404  1.00  0.00     0.001 A 
HETATM   21  C6  UNL     1      23.320   2.900  49.465  1.00  0.00     0.020 A 
BRANCH  17  22
HETATM   22  O1  UNL     1      23.938   6.060  49.136  1.00  0.00    -0.355 OA
HETATM   23  C1  UNL     1      25.136   6.496  48.617  1.00  0.00     0.210 C 
ENDBRANCH  17  22
ENDBRANCH  13  16
ENDBRANCH   1  12
BRANCH   3  24
HETATM   24  N2  UNL     1      23.106  -0.573  52.845  1.00  0.00    -0.354 N 
HETATM   25  H11 UNL     1      23.223  -1.619  52.820  1.00  0.00     0.166 HD
BRANCH  24  26
HETATM   26  C12 UNL     1      21.737  -0.332  52.594  1.00  0.00     0.038 A 
HETATM   27  C13 UNL     1      21.534   0.226  51.330  1.00  0.00     0.030 A 
HETATM   28  C14 UNL     1      20.205   0.517  50.997  1.00  0.00     0.002 A 
HETATM   29  C15 UNL     1      19.197   0.247  51.903  1.00  0.00     0.001 A 
HETATM   30  C16 UNL     1      19.475  -0.309  53.144  1.00  0.00     0.009 A 
HETATM   31  C17 UNL     1      20.766  -0.611  53.511  1.00  0.00    -0.035 A 
HETATM   32  C18 UNL     1      21.254  -1.205  54.787  1.00  0.00     0.050 C 
ENDBRANCH  24  26
ENDBRANCH   3  24
TORSDOF 5
ENDMDL
MODEL 4
REMARK VINA RESULT:      -8.9      1.178      2.215
REMARK  5 active torsions:
REMARK  status: ('A' for Active; 'I' for Inactive)
REMARK    1  A    between atoms: O1_2  and  C2_3 
REMARK    2  A    between atoms: C7_8  and  C8_9 
REMARK       I    between atoms: C8_9  and  N1_11 
REMARK    3  A    between atoms: N1_11  and  C9_12 
REMARK    4  A    between atoms: C11_14  and  N2_15 
REMARK    5  A    between atoms: N2_15  and  C12_16 
ROOT
HETATM    1  C9  UNL     1      25.180   2.815  50.379  1.00  0.00     0.197 C 
HETATM    2  C10 UNL     1      25.929   2.292  51.631  1.00  0.00     0.050 C 
HETATM    3  C11 UNL     1      25.292   2.178  52.847  1.00  0.00     0.060 C 
HETATM    4  C19 UNL     1      23.875   2.612  52.723  1.00  0.00     0.074 A 
HETATM    5  C20 UNL     1      22.867   1.597  52.631  1.00  0.00     0.014 A 
HETATM    6  C21 UNL     1      21.786   2.511  52.299  1.00  0.00     0.049 A 
HETATM    7  C22 UNL     1      22.437   3.781  52.293  1.00  0.00     0.028 A 
HETATM    8  C23 UNL     1      23.230   4.870  52.333  1.00  0.00     0.146 A 
HETATM    9  N3  UNL     1      24.207   3.947  52.641  1.00  0.00    -0.280 NA
HETATM   10  C24 UNL     1      22.758   2.834  51.047  1.00  0.00     0.288 A 
HETATM   11  N4  UNL     1      23.840   2.592  50.467  1.00  0.00    -0.419 NA
ENDROOT
BRANCH   1  12
HETATM   12  N1  UNL     1      25.565   4.186  50.299  1.00  0.00    -0.333 N 
HETATM   13  C8  UNL     1      26.525   4.771  49.490  1.00  0.00     0.256 C 
HETATM   14  O2  UNL     1      27.108   3.925  48.697  1.00  0.00    -0.268 OA
HETATM   15  H8  UNL     1      25.387   5.156  50.688  1.00  0.00     0.165 HD
BRANCH  13  16
HETATM   16  C7  UNL     1      27.457   5.609  48.780  1.00  0.00     0.065 A 
HETATM   17  C2  UNL     1      28.276   6.350  48.156  1.00  0.00     0.084 A 
HETATM   18  C3  UNL     1      28.333   7.451  47.388  1.00  0.00     0.038 A 
HETATM   19  C4  UNL     1      27.166   8.137  47.075  1.00  0.00     0.003 A 
HETATM   20  C5  UNL     1      26.004   7.552  47.644  1.00  0.00     0.001 A 
HETATM   21  C6  UNL     1      26.200   6.370  48.433  1.00  0.00     0.020 A 
BRANCH  17  22
HETATM   22  O1  UNL     1      29.303   5.467  48.620  1.00  0.00    -0.355 OA
HETATM   23  C1  UNL     1      30.556   5.470  48.051  1.00  0.00     0.210 C 
ENDBRANCH  17  22
ENDBRANCH  13  16
ENDBRANCH   1  12
BRANCH   3  24
HETATM   24  N2  UNL     1      26.322   1.677  53.683  1.00  0.00    -0.354 N 
HETATM   25  H11 UNL     1      26.346   2.061  54.662  1.00  0.00     0.166 HD
BRANCH  24  26
HETATM   26  C12 UNL     1      27.392   0.757  53.604  1.00  0.00     0.038 A 
HETATM   27  C13 UNL     1      28.625   1.382  53.799  1.00  0.00     0.030 A 
HETATM   28  C14 UNL     1      29.750   0.551  53.721  1.00  0.00     0.002 A 
HETATM   29  C15 UNL     1      29.589  -0.798  53.464  1.00  0.00     0.001 A 
HETATM   30  C16 UNL     1      28.329  -1.349  53.281  1.00  0.00     0.009 A 
HETATM   31  C17 UNL     1      27.198  -0.569  53.349  1.00  0.00    -0.035 A 
HETATM   32  C18 UNL     1      25.776  -0.978  53.180  1.00  0.00     0.050 C 
ENDBRANCH  24  26
ENDBRANCH   3  24
TORSDOF 5
ENDMDL
MODEL 5
REMARK VINA RESULT:      -8.9      3.667      7.221
REMARK  5 active torsions:
REMARK  status: ('A' for Active; 'I' for Inactive)
REMARK    1  A    between atoms: O1_2  and  C2_3 
REMARK    2  A    between atoms: C7_8  and  C8_9 
REMARK       I    between atoms: C8_9  and  N1_11 
REMARK    3  A    between atoms: N1_11  and  C9_12 
REMARK    4  A    between atoms: C11_14  and  N2_15 
REMARK    5  A    between atoms: N2_15  and  C12_16 
ROOT
HETATM    1  C9  UNL     1      22.241   1.500  52.574  1.00  0.00     0.197 C 
HETATM    2  C10 UNL     1      23.689   0.953  52.482  1.00  0.00     0.050 C 
HETATM    3  C11 UNL     1      24.631   1.562  51.683  1.00  0.00     0.060 C 
HETATM    4  C19 UNL     1      24.035   2.740  50.997  1.00  0.00     0.074 A 
HETATM    5  C20 UNL     1      24.326   4.041  51.522  1.00  0.00     0.014 A 
HETATM    6  C21 UNL     1      23.361   4.741  50.690  1.00  0.00     0.049 A 
HETATM    7  C22 UNL     1      22.785   3.687  49.919  1.00  0.00     0.028 A 
HETATM    8  C23 UNL     1      22.372   2.562  49.302  1.00  0.00     0.146 A 
HETATM    9  N3  UNL     1      23.304   1.962  50.124  1.00  0.00    -0.280 NA
HETATM   10  C24 UNL     1      22.336   3.746  51.451  1.00  0.00     0.288 A 
HETATM   11  N4  UNL     1      22.190   2.832  52.292  1.00  0.00    -0.419 NA
ENDROOT
BRANCH   1  12
HETATM   12  N1  UNL     1      21.502   0.662  51.689  1.00  0.00    -0.333 N 
HETATM   13  C8  UNL     1      20.129   0.523  51.569  1.00  0.00     0.256 C 
HETATM   14  O2  UNL     1      19.467   1.299  52.372  1.00  0.00    -0.268 OA
HETATM   15  H8  UNL     1      21.583  -0.062  50.917  1.00  0.00     0.165 HD
BRANCH  13  16
HETATM   16  C7  UNL     1      18.763   0.190  51.259  1.00  0.00     0.065 A 
HETATM   17  C2  UNL     1      17.559  -0.105  50.989  1.00  0.00     0.084 A 
HETATM   18  C3  UNL     1      16.510  -0.803  51.455  1.00  0.00     0.038 A 
HETATM   19  C4  UNL     1      16.626  -1.510  52.646  1.00  0.00     0.003 A 
HETATM   20  C5  UNL     1      17.907  -1.389  53.247  1.00  0.00     0.001 A 
HETATM   21  C6  UNL     1      18.868  -0.582  52.553  1.00  0.00     0.020 A 
BRANCH  17  22
HETATM   22  O1  UNL     1      17.714   0.694  49.811  1.00  0.00    -0.355 OA
HETATM   23  C1  UNL     1      17.066   1.902  49.679  1.00  0.00     0.210 C 
ENDBRANCH  17  22
ENDBRANCH  13  16
ENDBRANCH   1  12
BRANCH   3  24
HETATM   24  N2  UNL     1      25.777   0.753  51.895  1.00  0.00    -0.354 N 
HETATM   25  H11 UNL     1      25.808  -0.149  51.355  1.00  0.00     0.166 HD
BRANCH  24  26
HETATM   26  C12 UNL     1      26.968   0.791  52.653  1.00  0.00     0.038 A 
HETATM   27  C13 UNL     1      27.400   2.100  52.873  1.00  0.00     0.030 A 
HETATM   28  C14 UNL     1      28.587   2.237  53.603  1.00  0.00     0.002 A 
HETATM   29  C15 UNL     1      29.249   1.111  54.053  1.00  0.00     0.001 A 
HETATM   30  C16 UNL     1      28.759  -0.162  53.796  1.00  0.00     0.009 A 
HETATM   31  C17 UNL     1      27.596  -0.342  53.083  1.00  0.00    -0.035 A 
HETATM   32  C18 UNL     1      26.923  -1.617  52.711  1.00  0.00     0.050 C 
ENDBRANCH  24  26
ENDBRANCH   3  24
TORSDOF 5
ENDMDL
MODEL 6
REMARK VINA RESULT:      -8.6      2.804      7.083
REMARK  5 active torsions:
REMARK  status: ('A' for Active; 'I' for Inactive)
REMARK    1  A    between atoms: O1_2  and  C2_3 
REMARK    2  A    between atoms: C7_8  and  C8_9 
REMARK       I    between atoms: C8_9  and  N1_11 
REMARK    3  A    between atoms: N1_11  and  C9_12 
REMARK    4  A    between atoms: C11_14  and  N2_15 
REMARK    5  A    between atoms: N2_15  and  C12_16 
ROOT
HETATM    1  C9  UNL     1      22.329   4.246  52.065  1.00  0.00     0.197 C 
HETATM    2  C10 UNL     1      23.701   4.846  51.664  1.00  0.00     0.050 C 
HETATM    3  C11 UNL     1      23.873   5.486  50.456  1.00  0.00     0.060 C 
HETATM    4  C19 UNL     1      22.598   5.488  49.692  1.00  0.00     0.074 A 
HETATM    5  C20 UNL     1      21.822   6.692  49.685  1.00  0.00     0.014 A 
HETATM    6  C21 UNL     1      20.655   6.097  49.052  1.00  0.00     0.049 A 
HETATM    7  C22 UNL     1      21.057   4.741  48.862  1.00  0.00     0.028 A 
HETATM    8  C23 UNL     1      21.621   3.519  48.776  1.00  0.00     0.146 A 
HETATM    9  N3  UNL     1      22.689   4.148  49.380  1.00  0.00    -0.280 NA
HETATM   10  C24 UNL     1      20.716   5.154  50.366  1.00  0.00     0.288 A 
HETATM   11  N4  UNL     1      21.301   4.883  51.437  1.00  0.00    -0.419 NA
ENDROOT
BRANCH   1  12
HETATM   12  N1  UNL     1      22.462   2.859  51.762  1.00  0.00    -0.333 N 
HETATM   13  C8  UNL     1      23.242   1.904  52.393  1.00  0.00     0.256 C 
HETATM   14  O2  UNL     1      23.904   2.376  53.405  1.00  0.00    -0.268 OA
HETATM   15  H8  UNL     1      22.145   2.084  51.110  1.00  0.00     0.165 HD
BRANCH  13  16
HETATM   16  C7  UNL     1      23.959   0.744  52.856  1.00  0.00     0.065 A 
HETATM   17  C2  UNL     1      24.593  -0.276  53.263  1.00  0.00     0.084 A 
HETATM   18  C3  UNL     1      25.781  -0.894  53.160  1.00  0.00     0.038 A 
HETATM   19  C4  UNL     1      26.777  -0.348  52.360  1.00  0.00     0.003 A 
HETATM   20  C5  UNL     1      26.385   0.861  51.726  1.00  0.00     0.001 A 
HETATM   21  C6  UNL     1      25.054   1.325  51.994  1.00  0.00     0.020 A 
BRANCH  17  22
HETATM   22  O1  UNL     1      23.413  -0.614  54.000  1.00  0.00    -0.355 OA
HETATM   23  C1  UNL     1      22.366  -1.278  53.402  1.00  0.00     0.210 C 
ENDBRANCH  17  22
ENDBRANCH  13  16
ENDBRANCH   1  12
BRANCH   3  24
HETATM   24  N2  UNL     1      25.240   5.863  50.506  1.00  0.00    -0.354 N 
HETATM   25  H11 UNL     1      25.638   6.020  51.467  1.00  0.00     0.166 HD
BRANCH  24  26
HETATM   26  C12 UNL     1      26.302   6.102  49.605  1.00  0.00     0.038 A 
HETATM   27  C13 UNL     1      26.465   7.464  49.348  1.00  0.00     0.030 A 
HETATM   28  C14 UNL     1      27.486   7.798  48.450  1.00  0.00     0.002 A 
HETATM   29  C15 UNL     1      28.254   6.799  47.882  1.00  0.00     0.001 A 
HETATM   30  C16 UNL     1      28.034   5.464  48.186  1.00  0.00     0.009 A 
HETATM   31  C17 UNL     1      27.042   5.091  49.064  1.00  0.00    -0.035 A 
HETATM   32  C18 UNL     1      26.660   3.721  49.506  1.00  0.00     0.050 C 
ENDBRANCH  24  26
ENDBRANCH   3  24
TORSDOF 5
ENDMDL
MODEL 7
REMARK VINA RESULT:      -8.6      3.033      7.714
REMARK  5 active torsions:
REMARK  status: ('A' for Active; 'I' for Inactive)
REMARK    1  A    between atoms: O1_2  and  C2_3 
REMARK    2  A    between atoms: C7_8  and  C8_9 
REMARK       I    between atoms: C8_9  and  N1_11 
REMARK    3  A    between atoms: N1_11  and  C9_12 
REMARK    4  A    between atoms: C11_14  and  N2_15 
REMARK    5  A    between atoms: N2_15  and  C12_16 
ROOT
HETATM    1  C9  UNL     1      21.790   3.629  50.528  1.00  0.00     0.197 C 
HETATM    2  C10 UNL     1      23.143   4.382  50.447  1.00  0.00     0.050 C 
HETATM    3  C11 UNL     1      23.651   4.807  49.240  1.00  0.00     0.060 C 
HETATM    4  C19 UNL     1      22.726   4.436  48.137  1.00  0.00     0.074 A 
HETATM    5  C20 UNL     1      21.875   5.458  47.603  1.00  0.00     0.014 A 
HETATM    6  C21 UNL     1      21.070   4.555  46.796  1.00  0.00     0.049 A 
HETATM    7  C22 UNL     1      21.657   3.283  47.065  1.00  0.00     0.028 A 
HETATM    8  C23 UNL     1      22.344   2.189  47.451  1.00  0.00     0.146 A 
HETATM    9  N3  UNL     1      23.063   3.101  48.194  1.00  0.00    -0.280 NA
HETATM   10  C24 UNL     1      20.774   3.899  48.245  1.00  0.00     0.288 A 
HETATM   11  N4  UNL     1      20.980   3.942  49.478  1.00  0.00    -0.419 NA
ENDROOT
BRANCH   1  12
HETATM   12  N1  UNL     1      22.168   2.257  50.617  1.00  0.00    -0.333 N 
HETATM   13  C8  UNL     1      22.553   1.535  51.735  1.00  0.00     0.256 C 
HETATM   14  O2  UNL     1      22.527   2.235  52.827  1.00  0.00    -0.268 OA
HETATM   15  H8  UNL     1      22.312   1.364  50.063  1.00  0.00     0.165 HD
BRANCH  13  16
HETATM   16  C7  UNL     1      22.991   0.579  52.720  1.00  0.00     0.065 A 
HETATM   17  C2  UNL     1      23.372  -0.263  53.588  1.00  0.00     0.084 A 
HETATM   18  C3  UNL     1      22.910  -1.057  54.567  1.00  0.00     0.038 A 
HETATM   19  C4  UNL     1      21.551  -1.076  54.857  1.00  0.00     0.003 A 
HETATM   20  C5  UNL     1      20.790  -0.207  54.030  1.00  0.00     0.001 A 
HETATM   21  C6  UNL     1      21.517   0.543  53.047  1.00  0.00     0.020 A 
BRANCH  17  22
HETATM   22  O1  UNL     1      24.699  -0.050  53.092  1.00  0.00    -0.355 OA
HETATM   23  C1  UNL     1      25.802  -0.410  53.831  1.00  0.00     0.210 C 
ENDBRANCH  17  22
ENDBRANCH  13  16
ENDBRANCH   1  12
BRANCH   3  24
HETATM   24  N2  UNL     1      24.868   5.427  49.625  1.00  0.00    -0.354 N 
HETATM   25  H11 UNL     1      24.887   5.838  50.594  1.00  0.00     0.166 HD
BRANCH  24  26
HETATM   26  C12 UNL     1      26.146   5.673  49.077  1.00  0.00     0.038 A 
HETATM   27  C13 UNL     1      26.275   6.992  48.639  1.00  0.00     0.030 A 
HETATM   28  C14 UNL     1      27.507   7.327  48.063  1.00  0.00     0.002 A 
HETATM   29  C15 UNL     1      28.498   6.369  47.959  1.00  0.00     0.001 A 
HETATM   30  C16 UNL     1      28.298   5.075  48.418  1.00  0.00     0.009 A 
HETATM   31  C17 UNL     1      27.103   4.704  48.991  1.00  0.00    -0.035 A 
HETATM   32  C18 UNL     1      26.707   3.375  49.534  1.00  0.00     0.050 C 
ENDBRANCH  24  26
ENDBRANCH   3  24
TORSDOF 5
ENDMDL
MODEL 8
REMARK VINA RESULT:      -8.5      3.074      7.096
REMARK  5 active torsions:
REMARK  status: ('A' for Active; 'I' for Inactive)
REMARK    1  A    between atoms: O1_2  and  C2_3 
REMARK    2  A    between atoms: C7_8  and  C8_9 
REMARK       I    between atoms: C8_9  and  N1_11 
REMARK    3  A    between atoms: N1_11  and  C9_12 
REMARK    4  A    between atoms: C11_14  and  N2_15 
REMARK    5  A    between atoms: N2_15  and  C12_16 
ROOT
HETATM    1  C9  UNL     1      24.061   2.113  50.696  1.00  0.00     0.197 C 
HETATM    2  C10 UNL     1      22.573   1.677  50.690  1.00  0.00     0.050 C 
HETATM    3  C11 UNL     1      21.561   2.596  50.856  1.00  0.00     0.060 C 
HETATM    4  C19 UNL     1      22.131   3.959  51.021  1.00  0.00     0.074 A 
HETATM    5  C20 UNL     1      22.106   4.839  49.890  1.00  0.00     0.014 A 
HETATM    6  C21 UNL     1      22.949   5.858  50.493  1.00  0.00     0.049 A 
HETATM    7  C22 UNL     1      23.228   5.314  51.783  1.00  0.00     0.028 A 
HETATM    8  C23 UNL     1      23.373   4.633  52.937  1.00  0.00     0.146 A 
HETATM    9  N3  UNL     1      22.571   3.708  52.303  1.00  0.00    -0.280 NA
HETATM   10  C24 UNL     1      23.990   4.621  50.563  1.00  0.00     0.288 A 
HETATM   11  N4  UNL     1      24.204   3.413  50.317  1.00  0.00    -0.419 NA
ENDROOT
BRANCH   1  12
HETATM   12  N1  UNL     1      24.499   1.813  52.020  1.00  0.00    -0.333 N 
HETATM   13  C8  UNL     1      25.641   1.141  52.425  1.00  0.00     0.256 C 
HETATM   14  O2  UNL     1      26.395   0.776  51.434  1.00  0.00    -0.268 OA
HETATM   15  H8  UNL     1      24.262   1.908  53.050  1.00  0.00     0.165 HD
BRANCH  13  16
HETATM   16  C7  UNL     1      26.727   0.476  53.097  1.00  0.00     0.065 A 
HETATM   17  C2  UNL     1      27.685  -0.107  53.690  1.00  0.00     0.084 A 
HETATM   18  C3  UNL     1      28.888   0.127  54.240  1.00  0.00     0.038 A 
HETATM   19  C4  UNL     1      29.410   1.415  54.238  1.00  0.00     0.003 A 
HETATM   20  C5  UNL     1      28.551   2.366  53.624  1.00  0.00     0.001 A 
HETATM   21  C6  UNL     1      27.309   1.869  53.107  1.00  0.00     0.020 A 
BRANCH  17  22
HETATM   22  O1  UNL     1      26.927  -1.314  53.554  1.00  0.00    -0.355 OA
HETATM   23  C1  UNL     1      27.308  -2.299  52.671  1.00  0.00     0.210 C 
ENDBRANCH  17  22
ENDBRANCH  13  16
ENDBRANCH   1  12
BRANCH   3  24
HETATM   24  N2  UNL     1      20.401   1.783  50.786  1.00  0.00    -0.354 N 
HETATM   25  H11 UNL     1      19.831   1.870  49.905  1.00  0.00     0.166 HD
BRANCH  24  26
HETATM   26  C12 UNL     1      19.733   0.826  51.583  1.00  0.00     0.038 A 
HETATM   27  C13 UNL     1      20.451   0.530  52.743  1.00  0.00     0.030 A 
HETATM   28  C14 UNL     1      19.875  -0.425  53.591  1.00  0.00     0.002 A 
HETATM   29  C15 UNL     1      18.668  -1.006  53.248  1.00  0.00     0.001 A 
HETATM   30  C16 UNL     1      18.011  -0.661  52.076  1.00  0.00     0.009 A 
HETATM   31  C17 UNL     1      18.541   0.272  51.215  1.00  0.00    -0.035 A 
HETATM   32  C18 UNL     1      17.988   0.765  49.924  1.00  0.00     0.050 C 
ENDBRANCH  24  26
ENDBRANCH   3  24
TORSDOF 5
ENDMDL
MODEL 9
REMARK VINA RESULT:      -8.4      2.689      7.221
REMARK  5 active torsions:
REMARK  status: ('A' for Active; 'I' for Inactive)
REMARK    1  A    between atoms: O1_2  and  C2_3 
REMARK    2  A    between atoms: C7_8  and  C8_9 
REMARK       I    between atoms: C8_9  and  N1_11 
REMARK    3  A    between atoms: N1_11  and  C9_12 
REMARK    4  A    between atoms: C11_14  and  N2_15 
REMARK    5  A    between atoms: N2_15  and  C12_16 
ROOT
HETATM    1  C9  UNL     1      25.726   3.563  50.070  1.00  0.00     0.197 C 
HETATM    2  C10 UNL     1      24.407   2.872  49.637  1.00  0.00     0.050 C 
HETATM    3  C11 UNL     1      23.298   3.609  49.287  1.00  0.00     0.060 C 
HETATM    4  C19 UNL     1      23.596   5.062  49.394  1.00  0.00     0.074 A 
HETATM    5  C20 UNL     1      23.872   5.782  48.186  1.00  0.00     0.014 A 
HETATM    6  C21 UNL     1      24.308   6.999  48.851  1.00  0.00     0.049 A 
HETATM    7  C22 UNL     1      24.166   6.672  50.233  1.00  0.00     0.028 A 
HETATM    8  C23 UNL     1      23.967   6.170  51.468  1.00  0.00     0.146 A 
HETATM    9  N3  UNL     1      23.570   5.048  50.772  1.00  0.00    -0.280 NA
HETATM   10  C24 UNL     1      25.398   5.984  49.484  1.00  0.00     0.288 A 
HETATM   11  N4  UNL     1      25.834   4.813  49.540  1.00  0.00    -0.419 NA
ENDROOT
BRANCH   1  12
HETATM   12  N1  UNL     1      25.689   3.506  51.494  1.00  0.00    -0.333 N 
HETATM   13  C8  UNL     1      25.977   2.438  52.328  1.00  0.00     0.256 C 
HETATM   14  O2  UNL     1      26.351   1.375  51.683  1.00  0.00    -0.268 OA
HETATM   15  H8  UNL     1      25.484   4.062  52.375  1.00  0.00     0.165 HD
BRANCH  13  16
HETATM   16  C7  UNL     1      26.204   1.497  53.394  1.00  0.00     0.065 A 
HETATM   17  C2  UNL     1      26.402   0.667  54.332  1.00  0.00     0.084 A 
HETATM   18  C3  UNL     1      25.837  -0.380  54.955  1.00  0.00     0.038 A 
HETATM   19  C4  UNL     1      24.591  -0.839  54.543  1.00  0.00     0.003 A 
HETATM   20  C5  UNL     1      24.055  -0.100  53.455  1.00  0.00     0.001 A 
HETATM   21  C6  UNL     1      24.853   0.983  52.958  1.00  0.00     0.020 A 
BRANCH  17  22
HETATM   22  O1  UNL     1      27.650   1.334  54.549  1.00  0.00    -0.355 OA
HETATM   23  C1  UNL     1      28.837   0.636  54.571  1.00  0.00     0.210 C 
ENDBRANCH  17  22
ENDBRANCH  13  16
ENDBRANCH   1  12
BRANCH   3  24
HETATM   24  N2  UNL     1      22.352   2.601  48.972  1.00  0.00    -0.354 N 
HETATM   25  H11 UNL     1      22.368   2.249  47.980  1.00  0.00     0.166 HD
BRANCH  24  26
HETATM   26  C12 UNL     1      21.332   1.870  49.622  1.00  0.00     0.038 A 
HETATM   27  C13 UNL     1      21.839   1.089  50.661  1.00  0.00     0.030 A 
HETATM   28  C14 UNL     1      20.902   0.313  51.356  1.00  0.00     0.002 A 
HETATM   29  C15 UNL     1      19.570   0.359  50.991  1.00  0.00     0.001 A 
HETATM   30  C16 UNL     1      19.138   1.161  49.945  1.00  0.00     0.009 A 
HETATM   31  C17 UNL     1      20.025   1.939  49.236  1.00  0.00    -0.035 A 
HETATM   32  C18 UNL     1      19.751   2.853  48.093  1.00  0.00     0.050 C 
ENDBRANCH  24  26
ENDBRANCH   3  24
TORSDOF 5
ENDMDL
