MODEL 1
REMARK VINA RESULT:      -7.9      0.000      0.000
REMARK  3 active torsions:
REMARK  status: ('A' for Active; 'I' for Inactive)
REMARK    1  A    between atoms: N1_1  and  C1_2 
REMARK    2  A    between atoms: C4_7  and  C5_8 
REMARK    3  A    between atoms: C5_8  and  C6_9 
ROOT
HETATM    1  C6  UNL     1      25.966   1.624  52.941  1.00  0.00    -0.052 C 
HETATM    2  C7  UNL     1      24.681   1.227  52.919  1.00  0.00     0.007 C 
HETATM    3  C8  UNL     1      23.562   1.550  52.037  1.00  0.00    -0.003 C 
HETATM    4  C9  UNL     1      22.966   2.154  51.029  1.00  0.00    -0.020 C 
HETATM    5  C10 UNL     1      22.220   2.785  49.922  1.00  0.00     0.034 C 
HETATM    6  C11 UNL     1      21.883   4.204  50.200  1.00  0.00     0.176 C 
HETATM    7  O1  UNL     1      22.875   4.967  49.702  1.00  0.00    -0.383 OA
HETATM    8  C12 UNL     1      23.784   4.214  48.942  1.00  0.00     0.146 C 
HETATM    9  C13 UNL     1      25.143   4.272  49.493  1.00  0.00     0.206 C 
HETATM   10  O2  UNL     1      25.888   3.067  49.595  1.00  0.00    -0.360 OA
HETATM   11  C14 UNL     1      26.500   2.750  50.823  1.00  0.00     0.135 C 
HETATM   12  C15 UNL     1      26.890   2.349  52.054  1.00  0.00     0.031 C 
HETATM   13  C16 UNL     1      23.145   2.881  48.737  1.00  0.00     0.044 C 
ENDROOT
BRANCH   1  14
HETATM   14  C5  UNL     1      26.511   0.904  54.099  1.00  0.00     0.082 C 
BRANCH  14  15
HETATM   15  C4  UNL     1      27.488  -0.160  53.758  1.00  0.00     0.004 A 
HETATM   16  C1  UNL     1      28.819   0.183  54.234  1.00  0.00     0.110 A 
HETATM   17  N2  UNL     1      29.702  -0.834  53.965  1.00  0.00    -0.230 NA
HETATM   18  C2  UNL     1      29.276  -1.968  53.328  1.00  0.00     0.234 A 
HETATM   19  N3  UNL     1      28.028  -2.190  52.925  1.00  0.00    -0.253 NA
HETATM   20  C3  UNL     1      27.038  -1.309  53.106  1.00  0.00     0.128 A 
BRANCH  16  21
HETATM   21  N1  UNL     1      29.061   1.492  54.862  1.00  0.00    -0.287 NA
HETATM   22  H1  UNL     1      28.706   1.779  53.945  1.00  0.00     0.125 HD
HETATM   23  H2  UNL     1      29.343   0.835  55.679  1.00  0.00     0.125 HD
ENDBRANCH  16  21
ENDBRANCH  14  15
ENDBRANCH   1  14
TORSDOF 3
ENDMDL
MODEL 2
REMARK VINA RESULT:      -7.8      1.910      2.875
REMARK  3 active torsions:
REMARK  status: ('A' for Active; 'I' for Inactive)
REMARK    1  A    between atoms: N1_1  and  C1_2 
REMARK    2  A    between atoms: C4_7  and  C5_8 
REMARK    3  A    between atoms: C5_8  and  C6_9 
ROOT
HETATM    1  C6  UNL     1      24.692   1.608  52.827  1.00  0.00    -0.052 C 
HETATM    2  C7  UNL     1      25.068   2.501  51.894  1.00  0.00     0.007 C 
HETATM    3  C8  UNL     1      24.447   2.952  50.650  1.00  0.00    -0.003 C 
HETATM    4  C9  UNL     1      23.523   2.975  49.712  1.00  0.00    -0.020 C 
HETATM    5  C10 UNL     1      22.537   3.066  48.617  1.00  0.00     0.034 C 
HETATM    6  C11 UNL     1      22.611   1.911  47.687  1.00  0.00     0.176 C 
HETATM    7  O1  UNL     1      21.744   0.977  48.122  1.00  0.00    -0.383 OA
HETATM    8  C12 UNL     1      20.941   1.455  49.170  1.00  0.00     0.146 C 
HETATM    9  C13 UNL     1      21.114   0.670  50.398  1.00  0.00     0.206 C 
HETATM   10  O2  UNL     1      21.258   1.358  51.632  1.00  0.00    -0.360 OA
HETATM   11  C14 UNL     1      22.331   1.020  52.477  1.00  0.00     0.135 C 
HETATM   12  C15 UNL     1      23.480   0.846  53.170  1.00  0.00     0.031 C 
HETATM   13  C16 UNL     1      21.163   2.929  49.220  1.00  0.00     0.044 C 
ENDROOT
BRANCH   1  14
HETATM   14  C5  UNL     1      25.793   1.663  53.796  1.00  0.00     0.082 C 
BRANCH  14  15
HETATM   15  C4  UNL     1      26.856   0.650  53.578  1.00  0.00     0.004 A 
HETATM   16  C1  UNL     1      28.177   1.244  53.720  1.00  0.00     0.110 A 
HETATM   17  N2  UNL     1      29.152   0.286  53.574  1.00  0.00    -0.230 NA
HETATM   18  C2  UNL     1      28.809  -1.016  53.329  1.00  0.00     0.234 A 
HETATM   19  N3  UNL     1      27.563  -1.465  53.212  1.00  0.00    -0.253 NA
HETATM   20  C3  UNL     1      26.491  -0.673  53.326  1.00  0.00     0.128 A 
BRANCH  16  21
HETATM   21  N1  UNL     1      28.313   2.692  53.943  1.00  0.00    -0.287 NA
HETATM   22  H1  UNL     1      29.156   2.499  53.396  1.00  0.00     0.125 HD
HETATM   23  H2  UNL     1      27.362   2.513  54.437  1.00  0.00     0.125 HD
ENDBRANCH  16  21
ENDBRANCH  14  15
ENDBRANCH   1  14
TORSDOF 3
ENDMDL
MODEL 3
REMARK VINA RESULT:      -7.7      3.147      4.548
REMARK  3 active torsions:
REMARK  status: ('A' for Active; 'I' for Inactive)
REMARK    1  A    between atoms: N1_1  and  C1_2 
REMARK    2  A    between atoms: C4_7  and  C5_8 
REMARK    3  A    between atoms: C5_8  and  C6_9 
ROOT
HETATM    1  C6  UNL     1      25.328   0.010  52.545  1.00  0.00    -0.052 C 
HETATM    2  C7  UNL     1      24.685   1.019  51.931  1.00  0.00     0.007 C 
HETATM    3  C8  UNL     1      23.295   1.468  51.961  1.00  0.00    -0.003 C 
HETATM    4  C9  UNL     1      22.030   1.427  52.326  1.00  0.00    -0.020 C 
HETATM    5  C10 UNL     1      20.597   1.455  52.683  1.00  0.00     0.034 C 
HETATM    6  C11 UNL     1      19.816   0.401  51.988  1.00  0.00     0.176 C 
HETATM    7  O1  UNL     1      19.789  -0.683  52.786  1.00  0.00    -0.383 OA
HETATM    8  C12 UNL     1      20.328  -0.414  54.054  1.00  0.00     0.146 C 
HETATM    9  C13 UNL     1      21.492  -1.258  54.348  1.00  0.00     0.206 C 
HETATM   10  O2  UNL     1      22.644  -0.655  54.919  1.00  0.00    -0.360 OA
HETATM   11  C14 UNL     1      23.899  -0.894  54.328  1.00  0.00     0.135 C 
HETATM   12  C15 UNL     1      25.055  -0.948  53.628  1.00  0.00     0.031 C 
HETATM   13  C16 UNL     1      20.474   1.068  54.133  1.00  0.00     0.044 C 
ENDROOT
BRANCH   1  14
HETATM   14  C5  UNL     1      26.705   0.152  52.054  1.00  0.00     0.082 C 
BRANCH  14  15
HETATM   15  C4  UNL     1      27.639   0.788  53.017  1.00  0.00     0.004 A 
HETATM   16  C1  UNL     1      28.555  -0.193  53.577  1.00  0.00     0.110 A 
HETATM   17  N2  UNL     1      29.452   0.415  54.422  1.00  0.00    -0.230 NA
HETATM   18  C2  UNL     1      29.394   1.766  54.633  1.00  0.00     0.234 A 
HETATM   19  N3  UNL     1      28.510   2.586  54.073  1.00  0.00    -0.253 NA
HETATM   20  C3  UNL     1      27.565   2.166  53.224  1.00  0.00     0.128 A 
BRANCH  16  21
HETATM   21  N1  UNL     1      28.406  -1.618  53.238  1.00  0.00    -0.287 NA
HETATM   22  H1  UNL     1      29.423  -1.545  53.332  1.00  0.00     0.125 HD
HETATM   23  H2  UNL     1      27.362  -1.319  53.263  1.00  0.00     0.125 HD
ENDBRANCH  16  21
ENDBRANCH  14  15
ENDBRANCH   1  14
TORSDOF 3
ENDMDL
MODEL 4
REMARK VINA RESULT:      -7.7      1.924      3.268
REMARK  3 active torsions:
REMARK  status: ('A' for Active; 'I' for Inactive)
REMARK    1  A    between atoms: N1_1  and  C1_2 
REMARK    2  A    between atoms: C4_7  and  C5_8 
REMARK    3  A    between atoms: C5_8  and  C6_9 
ROOT
HETATM    1  C6  UNL     1      25.748   2.201  51.480  1.00  0.00    -0.052 C 
HETATM    2  C7  UNL     1      26.183   2.961  50.459  1.00  0.00     0.007 C 
HETATM    3  C8  UNL     1      25.687   4.202  49.869  1.00  0.00    -0.003 C 
HETATM    4  C9  UNL     1      24.862   5.220  49.738  1.00  0.00    -0.020 C 
HETATM    5  C10 UNL     1      23.990   6.392  49.522  1.00  0.00     0.034 C 
HETATM    6  C11 UNL     1      22.716   6.037  48.847  1.00  0.00     0.176 C 
HETATM    7  O1  UNL     1      21.802   5.784  49.802  1.00  0.00    -0.383 OA
HETATM    8  C12 UNL     1      22.278   6.108  51.082  1.00  0.00     0.146 C 
HETATM    9  C13 UNL     1      22.308   4.940  51.970  1.00  0.00     0.206 C 
HETATM   10  O2  UNL     1      23.459   4.725  52.774  1.00  0.00    -0.360 OA
HETATM   11  C14 UNL     1      24.068   3.456  52.761  1.00  0.00     0.135 C 
HETATM   12  C15 UNL     1      24.768   2.314  52.572  1.00  0.00     0.031 C 
HETATM   13  C16 UNL     1      23.534   6.884  50.870  1.00  0.00     0.044 C 
ENDROOT
BRANCH   1  14
HETATM   14  C5  UNL     1      26.727   1.108  51.516  1.00  0.00     0.082 C 
BRANCH  14  15
HETATM   15  C4  UNL     1      27.451   0.971  52.805  1.00  0.00     0.004 A 
HETATM   16  C1  UNL     1      27.263  -0.357  53.367  1.00  0.00     0.110 A 
HETATM   17  N2  UNL     1      27.984  -0.491  54.530  1.00  0.00    -0.230 NA
HETATM   18  C2  UNL     1      28.737   0.551  55.000  1.00  0.00     0.234 A 
HETATM   19  N3  UNL     1      28.843   1.738  54.411  1.00  0.00    -0.253 NA
HETATM   20  C3  UNL     1      28.211   2.043  53.272  1.00  0.00     0.128 A 
BRANCH  16  21
HETATM   21  N1  UNL     1      26.364  -1.317  52.708  1.00  0.00    -0.287 NA
HETATM   22  H1  UNL     1      26.956  -1.949  53.254  1.00  0.00     0.125 HD
HETATM   23  H2  UNL     1      25.955  -0.384  52.330  1.00  0.00     0.125 HD
ENDBRANCH  16  21
ENDBRANCH  14  15
ENDBRANCH   1  14
TORSDOF 3
ENDMDL
MODEL 5
REMARK VINA RESULT:      -7.5      1.071      1.898
REMARK  3 active torsions:
REMARK  status: ('A' for Active; 'I' for Inactive)
REMARK    1  A    between atoms: N1_1  and  C1_2 
REMARK    2  A    between atoms: C4_7  and  C5_8 
REMARK    3  A    between atoms: C5_8  and  C6_9 
ROOT
HETATM    1  C6  UNL     1      25.472   0.975  52.190  1.00  0.00    -0.052 C 
HETATM    2  C7  UNL     1      24.132   1.082  52.135  1.00  0.00     0.007 C 
HETATM    3  C8  UNL     1      23.244   2.048  51.492  1.00  0.00    -0.003 C 
HETATM    4  C9  UNL     1      22.950   3.119  50.784  1.00  0.00    -0.020 C 
HETATM    5  C10 UNL     1      22.531   4.300  50.002  1.00  0.00     0.034 C 
HETATM    6  C11 UNL     1      22.703   5.569  50.751  1.00  0.00     0.176 C 
HETATM    7  O1  UNL     1      23.923   6.057  50.458  1.00  0.00    -0.383 OA
HETATM    8  C12 UNL     1      24.545   5.331  49.429  1.00  0.00     0.146 C 
HETATM    9  C13 UNL     1      25.807   4.726  49.867  1.00  0.00     0.206 C 
HETATM   10  O2  UNL     1      26.073   3.376  49.515  1.00  0.00    -0.360 OA
HETATM   11  C14 UNL     1      26.472   2.477  50.522  1.00  0.00     0.135 C 
HETATM   12  C15 UNL     1      26.634   1.582  51.523  1.00  0.00     0.031 C 
HETATM   13  C16 UNL     1      23.487   4.453  48.848  1.00  0.00     0.044 C 
ENDROOT
BRANCH   1  14
HETATM   14  C5  UNL     1      25.670  -0.230  53.006  1.00  0.00     0.082 C 
BRANCH  14  15
HETATM   15  C4  UNL     1      27.052  -0.405  53.520  1.00  0.00     0.004 A 
HETATM   16  C1  UNL     1      27.678  -1.581  52.936  1.00  0.00     0.110 A 
HETATM   17  N2  UNL     1      28.976  -1.700  53.374  1.00  0.00    -0.230 NA
HETATM   18  C2  UNL     1      29.499  -0.780  54.241  1.00  0.00     0.234 A 
HETATM   19  N3  UNL     1      28.840   0.269  54.726  1.00  0.00    -0.253 NA
HETATM   20  C3  UNL     1      27.570   0.540  54.406  1.00  0.00     0.128 A 
BRANCH  16  21
HETATM   21  N1  UNL     1      26.905  -2.464  52.049  1.00  0.00    -0.287 NA
HETATM   22  H1  UNL     1      27.571  -3.128  52.453  1.00  0.00     0.125 HD
HETATM   23  H2  UNL     1      26.384  -1.525  51.883  1.00  0.00     0.125 HD
ENDBRANCH  16  21
ENDBRANCH  14  15
ENDBRANCH   1  14
TORSDOF 3
ENDMDL
MODEL 6
REMARK VINA RESULT:      -7.3      2.103      3.039
REMARK  3 active torsions:
REMARK  status: ('A' for Active; 'I' for Inactive)
REMARK    1  A    between atoms: N1_1  and  C1_2 
REMARK    2  A    between atoms: C4_7  and  C5_8 
REMARK    3  A    between atoms: C5_8  and  C6_9 
ROOT
HETATM    1  C6  UNL     1      24.316   0.108  53.123  1.00  0.00    -0.052 C 
HETATM    2  C7  UNL     1      23.181  -0.597  53.270  1.00  0.00     0.007 C 
HETATM    3  C8  UNL     1      21.839  -0.437  52.715  1.00  0.00    -0.003 C 
HETATM    4  C9  UNL     1      20.901   0.146  51.996  1.00  0.00    -0.020 C 
HETATM    5  C10 UNL     1      19.792   0.733  51.217  1.00  0.00     0.034 C 
HETATM    6  C11 UNL     1      19.236   1.955  51.851  1.00  0.00     0.176 C 
HETATM    7  O1  UNL     1      19.890   3.016  51.342  1.00  0.00    -0.383 OA
HETATM    8  C12 UNL     1      20.728   2.652  50.276  1.00  0.00     0.146 C 
HETATM    9  C13 UNL     1      22.134   2.969  50.548  1.00  0.00     0.206 C 
HETATM   10  O2  UNL     1      23.123   1.996  50.243  1.00  0.00    -0.360 OA
HETATM   11  C14 UNL     1      24.067   1.655  51.230  1.00  0.00     0.135 C 
HETATM   12  C15 UNL     1      24.821   1.177  52.246  1.00  0.00     0.031 C 
HETATM   13  C16 UNL     1      20.360   1.250  49.922  1.00  0.00     0.044 C 
ENDROOT
BRANCH   1  14
HETATM   14  C5  UNL     1      25.267  -0.622  53.971  1.00  0.00     0.082 C 
BRANCH  14  15
HETATM   15  C4  UNL     1      26.638  -0.052  53.991  1.00  0.00     0.004 A 
HETATM   16  C1  UNL     1      27.573  -0.924  53.296  1.00  0.00     0.110 A 
HETATM   17  N2  UNL     1      28.826  -0.360  53.270  1.00  0.00    -0.230 NA
HETATM   18  C2  UNL     1      29.046   0.859  53.852  1.00  0.00     0.234 A 
HETATM   19  N3  UNL     1      28.120   1.585  54.471  1.00  0.00    -0.253 NA
HETATM   20  C3  UNL     1      26.847   1.189  54.591  1.00  0.00     0.128 A 
BRANCH  16  21
HETATM   21  N1  UNL     1      27.122  -2.226  52.779  1.00  0.00    -0.287 NA
HETATM   22  H1  UNL     1      26.506  -2.114  53.590  1.00  0.00     0.125 HD
HETATM   23  H2  UNL     1      27.876  -1.979  52.038  1.00  0.00     0.125 HD
ENDBRANCH  16  21
ENDBRANCH  14  15
ENDBRANCH   1  14
TORSDOF 3
ENDMDL
MODEL 7
REMARK VINA RESULT:      -7.2      4.114      7.262
REMARK  3 active torsions:
REMARK  status: ('A' for Active; 'I' for Inactive)
REMARK    1  A    between atoms: N1_1  and  C1_2 
REMARK    2  A    between atoms: C4_7  and  C5_8 
REMARK    3  A    between atoms: C5_8  and  C6_9 
ROOT
HETATM    1  C6  UNL     1      24.747   3.422  51.040  1.00  0.00    -0.052 C 
HETATM    2  C7  UNL     1      26.046   3.102  50.909  1.00  0.00     0.007 C 
HETATM    3  C8  UNL     1      26.858   2.019  51.459  1.00  0.00    -0.003 C 
HETATM    4  C9  UNL     1      27.088   0.941  52.180  1.00  0.00    -0.020 C 
HETATM    5  C10 UNL     1      27.432  -0.265  52.960  1.00  0.00     0.034 C 
HETATM    6  C11 UNL     1      27.542   0.010  54.415  1.00  0.00     0.176 C 
HETATM    7  O1  UNL     1      26.337  -0.220  54.968  1.00  0.00    -0.383 OA
HETATM    8  C12 UNL     1      25.444  -0.806  54.056  1.00  0.00     0.146 C 
HETATM    9  C13 UNL     1      24.257   0.027  53.835  1.00  0.00     0.206 C 
HETATM   10  O2  UNL     1      23.800   0.221  52.504  1.00  0.00    -0.360 OA
HETATM   11  C14 UNL     1      23.549   1.533  52.058  1.00  0.00     0.135 C 
HETATM   12  C15 UNL     1      23.527   2.795  51.574  1.00  0.00     0.031 C 
HETATM   13  C16 UNL     1      26.267  -1.216  52.881  1.00  0.00     0.044 C 
ENDROOT
BRANCH   1  14
HETATM   14  C5  UNL     1      24.621   4.629  50.214  1.00  0.00     0.082 C 
BRANCH  14  15
HETATM   15  C4  UNL     1      23.255   5.210  50.175  1.00  0.00     0.004 A 
HETATM   16  C1  UNL     1      23.152   6.355  51.066  1.00  0.00     0.110 A 
HETATM   17  N2  UNL     1      21.902   6.920  50.979  1.00  0.00    -0.230 NA
HETATM   18  C2  UNL     1      20.963   6.390  50.137  1.00  0.00     0.234 A 
HETATM   19  N3  UNL     1      21.152   5.329  49.358  1.00  0.00    -0.253 NA
HETATM   20  C3  UNL     1      22.308   4.656  49.314  1.00  0.00     0.128 A 
BRANCH  16  21
HETATM   21  N1  UNL     1      24.290   6.726  51.923  1.00  0.00    -0.287 NA
HETATM   22  H1  UNL     1      24.467   5.727  51.786  1.00  0.00     0.125 HD
HETATM   23  H2  UNL     1      23.813   7.696  51.810  1.00  0.00     0.125 HD
ENDBRANCH  16  21
ENDBRANCH  14  15
ENDBRANCH   1  14
TORSDOF 3
ENDMDL
MODEL 8
REMARK VINA RESULT:      -7.2      4.227      7.132
REMARK  3 active torsions:
REMARK  status: ('A' for Active; 'I' for Inactive)
REMARK    1  A    between atoms: N1_1  and  C1_2 
REMARK    2  A    between atoms: C4_7  and  C5_8 
REMARK    3  A    between atoms: C5_8  and  C6_9 
ROOT
HETATM    1  C6  UNL     1      24.002   1.690  51.799  1.00  0.00    -0.052 C 
HETATM    2  C7  UNL     1      25.148   2.018  51.176  1.00  0.00     0.007 C 
HETATM    3  C8  UNL     1      26.552   1.775  51.498  1.00  0.00    -0.003 C 
HETATM    4  C9  UNL     1      27.555   1.321  52.222  1.00  0.00    -0.020 C 
HETATM    5  C10 UNL     1      28.735   0.846  52.971  1.00  0.00     0.034 C 
HETATM    6  C11 UNL     1      29.027   1.680  54.164  1.00  0.00     0.176 C 
HETATM    7  O1  UNL     1      28.389   1.130  55.214  1.00  0.00    -0.383 OA
HETATM    8  C12 UNL     1      27.827  -0.115  54.893  1.00  0.00     0.146 C 
HETATM    9  C13 UNL     1      26.370  -0.123  55.068  1.00  0.00     0.206 C 
HETATM   10  O2  UNL     1      25.566  -0.709  54.054  1.00  0.00    -0.360 OA
HETATM   11  C14 UNL     1      24.478   0.024  53.542  1.00  0.00     0.135 C 
HETATM   12  C15 UNL     1      23.584   0.815  52.907  1.00  0.00     0.031 C 
HETATM   13  C16 UNL     1      28.396  -0.495  53.568  1.00  0.00     0.044 C 
ENDROOT
BRANCH   1  14
HETATM   14  C5  UNL     1      22.975   2.255  50.915  1.00  0.00     0.082 C 
BRANCH  14  15
HETATM   15  C4  UNL     1      21.579   1.968  51.331  1.00  0.00     0.004 A 
HETATM   16  C1  UNL     1      20.991   3.115  52.004  1.00  0.00     0.110 A 
HETATM   17  N2  UNL     1      19.681   2.860  52.333  1.00  0.00    -0.230 NA
HETATM   18  C2  UNL     1      19.114   1.654  52.021  1.00  0.00     0.234 A 
HETATM   19  N3  UNL     1      19.739   0.657  51.401  1.00  0.00    -0.253 NA
HETATM   20  C3  UNL     1      21.016   0.733  51.008  1.00  0.00     0.128 A 
BRANCH  16  21
HETATM   21  N1  UNL     1      21.809   4.308  52.276  1.00  0.00    -0.287 NA
HETATM   22  H1  UNL     1      21.010   4.475  52.895  1.00  0.00     0.125 HD
HETATM   23  H2  UNL     1      22.454   3.794  51.569  1.00  0.00     0.125 HD
ENDBRANCH  16  21
ENDBRANCH  14  15
ENDBRANCH   1  14
TORSDOF 3
ENDMDL
MODEL 9
REMARK VINA RESULT:      -7.1      4.484      7.333
REMARK  3 active torsions:
REMARK  status: ('A' for Active; 'I' for Inactive)
REMARK    1  A    between atoms: N1_1  and  C1_2 
REMARK    2  A    between atoms: C4_7  and  C5_8 
REMARK    3  A    between atoms: C5_8  and  C6_9 
ROOT
HETATM    1  C6  UNL     1      25.801   5.701  49.439  1.00  0.00    -0.052 C 
HETATM    2  C7  UNL     1      26.638   4.665  49.259  1.00  0.00     0.007 C 
HETATM    3  C8  UNL     1      26.763   3.367  49.919  1.00  0.00    -0.003 C 
HETATM    4  C9  UNL     1      26.452   2.434  50.795  1.00  0.00    -0.020 C 
HETATM    5  C10 UNL     1      26.171   1.336  51.742  1.00  0.00     0.034 C 
HETATM    6  C11 UNL     1      26.663   1.625  53.112  1.00  0.00     0.176 C 
HETATM    7  O1  UNL     1      25.657   2.204  53.795  1.00  0.00    -0.383 OA
HETATM    8  C12 UNL     1      24.452   2.178  53.076  1.00  0.00     0.146 C 
HETATM    9  C13 UNL     1      23.938   3.526  52.813  1.00  0.00     0.206 C 
HETATM   10  O2  UNL     1      23.457   3.830  51.511  1.00  0.00    -0.360 OA
HETATM   11  C14 UNL     1      23.930   4.988  50.866  1.00  0.00     0.135 C 
HETATM   12  C15 UNL     1      24.553   5.969  50.173  1.00  0.00     0.031 C 
HETATM   13  C16 UNL     1      24.678   1.255  51.926  1.00  0.00     0.044 C 
ENDROOT
BRANCH   1  14
HETATM   14  C5  UNL     1      26.251   6.666  48.429  1.00  0.00     0.082 C 
BRANCH  14  15
HETATM   15  C4  UNL     1      27.071   7.781  48.965  1.00  0.00     0.004 A 
HETATM   16  C1  UNL     1      28.388   7.801  48.346  1.00  0.00     0.110 A 
HETATM   17  N2  UNL     1      29.118   8.871  48.807  1.00  0.00    -0.230 NA
HETATM   18  C2  UNL     1      28.578   9.732  49.723  1.00  0.00     0.234 A 
HETATM   19  N3  UNL     1      27.356   9.627  50.237  1.00  0.00    -0.253 NA
HETATM   20  C3  UNL     1      26.508   8.648  49.902  1.00  0.00     0.128 A 
BRANCH  16  21
HETATM   21  N1  UNL     1      28.776   6.738  47.406  1.00  0.00    -0.287 NA
HETATM   22  H1  UNL     1      27.757   6.639  47.402  1.00  0.00     0.125 HD
HETATM   23  H2  UNL     1      29.753   7.150  47.640  1.00  0.00     0.125 HD
ENDBRANCH  16  21
ENDBRANCH  14  15
ENDBRANCH   1  14
TORSDOF 3
ENDMDL
