MODEL 1
REMARK VINA RESULT:      -9.4      0.000      0.000
REMARK  3 active torsions:
REMARK  status: ('A' for Active; 'I' for Inactive)
REMARK    1  A    between atoms: C12_14  and  O1_15 
REMARK    2  A    between atoms: O1_15  and  C13_16 
REMARK    3  A    between atoms: C13_16  and  C14_17 
ROOT
HETATM    1  C1  UNL     1      21.863   5.562  46.182  1.00  0.00     0.017 C 
HETATM    2  C2  UNL     1      22.502   5.635  47.175  1.00  0.00    -0.080 C 
HETATM    3  C3  UNL     1      23.240   5.728  48.366  1.00  0.00     0.025 A 
HETATM    4  C4  UNL     1      24.587   5.559  48.569  1.00  0.00     0.044 A 
HETATM    5  C5  UNL     1      24.799   5.771  49.904  1.00  0.00     0.014 A 
HETATM    6  C6  UNL     1      24.112   6.093  51.029  1.00  0.00     0.076 A 
HETATM    7  C7  UNL     1      22.753   6.301  50.999  1.00  0.00     0.040 A 
HETATM    8  C8  UNL     1      22.955   6.017  49.667  1.00  0.00     0.080 A 
HETATM    9  N1  UNL     1      21.646   5.282  49.589  1.00  0.00    -0.369 N 
HETATM   10  C9  UNL     1      22.497   4.235  50.208  1.00  0.00     0.204 C 
HETATM   11  N2  UNL     1      23.471   3.437  49.777  1.00  0.00    -0.244 NA
HETATM   12  C10 UNL     1      24.056   2.565  50.720  1.00  0.00     0.071 A 
HETATM   13  C11 UNL     1      23.532   1.584  51.502  1.00  0.00     0.072 A 
HETATM   14  C12 UNL     1      24.316   0.909  52.402  1.00  0.00     0.107 A 
HETATM   15  C18 UNL     1      25.650   1.245  52.500  1.00  0.00     0.136 A 
HETATM   16  C19 UNL     1      26.178   2.257  51.689  1.00  0.00     0.115 A 
HETATM   17  C20 UNL     1      25.408   2.977  50.747  1.00  0.00     0.025 A 
HETATM   18  C21 UNL     1      26.259   3.924  50.017  1.00  0.00     0.163 C 
HETATM   19  N3  UNL     1      26.118   5.334  50.305  1.00  0.00    -0.388 N 
HETATM   20  O3  UNL     1      27.545   2.463  51.925  1.00  0.00    -0.345 OA
HETATM   21  C22 UNL     1      28.056   2.194  53.239  1.00  0.00     0.202 C 
HETATM   22  C23 UNL     1      27.778   0.761  53.594  1.00  0.00     0.202 C 
HETATM   23  O4  UNL     1      26.391   0.540  53.416  1.00  0.00    -0.344 OA
HETATM   24  H5  UNL     1      20.635   5.046  49.406  1.00  0.00     0.161 HD
HETATM   25  H19 UNL     1      26.941   5.838  50.742  1.00  0.00     0.159 HD
ENDROOT
BRANCH  14  26
HETATM   26  O1  UNL     1      23.782   0.002  53.109  1.00  0.00    -0.346 OA
BRANCH  26  27
HETATM   27  C13 UNL     1      23.250  -0.931  53.821  1.00  0.00     0.207 C 
BRANCH  27  28
HETATM   28  C14 UNL     1      22.099  -0.519  54.772  1.00  0.00     0.145 C 
HETATM   29  C15 UNL     1      21.251   0.453  54.039  1.00  0.00     0.036 C 
HETATM   30  C16 UNL     1      20.313  -0.450  53.259  1.00  0.00     0.029 C 
HETATM   31  C17 UNL     1      20.239  -1.647  54.176  1.00  0.00     0.168 C 
HETATM   32  O2  UNL     1      21.370  -1.688  54.940  1.00  0.00    -0.384 OA
ENDBRANCH  27  28
ENDBRANCH  26  27
ENDBRANCH  14  26
TORSDOF 3
ENDMDL
MODEL 2
REMARK VINA RESULT:      -9.0      3.414      8.204
REMARK  3 active torsions:
REMARK  status: ('A' for Active; 'I' for Inactive)
REMARK    1  A    between atoms: C12_14  and  O1_15 
REMARK    2  A    between atoms: O1_15  and  C13_16 
REMARK    3  A    between atoms: C13_16  and  C14_17 
ROOT
HETATM    1  C1  UNL     1      26.954  -2.204  52.443  1.00  0.00     0.017 C 
HETATM    2  C2  UNL     1      26.385  -1.172  52.559  1.00  0.00    -0.080 C 
HETATM    3  C3  UNL     1      25.728   0.059  52.712  1.00  0.00     0.025 A 
HETATM    4  C4  UNL     1      24.534   0.479  52.181  1.00  0.00     0.044 A 
HETATM    5  C5  UNL     1      24.338   1.750  52.647  1.00  0.00     0.014 A 
HETATM    6  C6  UNL     1      24.936   2.670  53.445  1.00  0.00     0.076 A 
HETATM    7  C7  UNL     1      26.137   2.407  54.060  1.00  0.00     0.040 A 
HETATM    8  C8  UNL     1      25.970   1.211  53.398  1.00  0.00     0.080 A 
HETATM    9  N1  UNL     1      27.445   1.118  53.123  1.00  0.00    -0.369 N 
HETATM   10  C9  UNL     1      27.040   2.063  52.054  1.00  0.00     0.204 C 
HETATM   11  N2  UNL     1      26.375   1.958  50.905  1.00  0.00    -0.244 NA
HETATM   12  C10 UNL     1      26.179   3.142  50.163  1.00  0.00     0.071 A 
HETATM   13  C11 UNL     1      27.050   4.041  49.632  1.00  0.00     0.072 A 
HETATM   14  C12 UNL     1      26.596   5.167  48.996  1.00  0.00     0.107 A 
HETATM   15  C18 UNL     1      25.236   5.373  48.903  1.00  0.00     0.136 A 
HETATM   16  C19 UNL     1      24.349   4.439  49.453  1.00  0.00     0.115 A 
HETATM   17  C20 UNL     1      24.771   3.265  50.116  1.00  0.00     0.025 A 
HETATM   18  C21 UNL     1      23.608   2.469  50.524  1.00  0.00     0.163 C 
HETATM   19  N3  UNL     1      23.273   2.416  51.930  1.00  0.00    -0.388 N 
HETATM   20  O3  UNL     1      23.010   4.811  49.265  1.00  0.00    -0.345 OA
HETATM   21  C22 UNL     1      22.696   6.210  49.192  1.00  0.00     0.202 C 
HETATM   22  C23 UNL     1      23.468   6.830  48.061  1.00  0.00     0.202 C 
HETATM   23  O4  UNL     1      24.834   6.516  48.256  1.00  0.00    -0.344 OA
HETATM   24  H5  UNL     1      28.464   0.853  53.183  1.00  0.00     0.161 HD
HETATM   25  H19 UNL     1      22.354   2.841  52.240  1.00  0.00     0.159 HD
ENDROOT
BRANCH  14  26
HETATM   26  O1  UNL     1      27.448   5.977  48.516  1.00  0.00    -0.346 OA
BRANCH  26  27
HETATM   27  C13 UNL     1      28.305   6.810  48.038  1.00  0.00     0.207 C 
BRANCH  27  28
HETATM   28  C14 UNL     1      29.651   6.226  47.540  1.00  0.00     0.145 C 
HETATM   29  C15 UNL     1      30.567   7.370  47.312  1.00  0.00     0.036 C 
HETATM   30  C16 UNL     1      31.154   7.603  48.691  1.00  0.00     0.029 C 
HETATM   31  C17 UNL     1      31.104   6.207  49.265  1.00  0.00     0.168 C 
HETATM   32  O2  UNL     1      30.123   5.504  48.626  1.00  0.00    -0.384 OA
ENDBRANCH  27  28
ENDBRANCH  26  27
ENDBRANCH  14  26
TORSDOF 3
ENDMDL
MODEL 3
REMARK VINA RESULT:      -8.9      1.807      4.899
REMARK  3 active torsions:
REMARK  status: ('A' for Active; 'I' for Inactive)
REMARK    1  A    between atoms: C12_14  and  O1_15 
REMARK    2  A    between atoms: O1_15  and  C13_16 
REMARK    3  A    between atoms: C13_16  and  C14_17 
ROOT
HETATM    1  C1  UNL     1      23.281   8.091  49.852  1.00  0.00     0.017 C 
HETATM    2  C2  UNL     1      22.801   7.010  49.814  1.00  0.00    -0.080 C 
HETATM    3  C3  UNL     1      22.246   5.722  49.750  1.00  0.00     0.025 A 
HETATM    4  C4  UNL     1      21.218   5.182  50.481  1.00  0.00     0.044 A 
HETATM    5  C5  UNL     1      21.059   3.902  50.023  1.00  0.00     0.014 A 
HETATM    6  C6  UNL     1      21.581   3.054  49.102  1.00  0.00     0.076 A 
HETATM    7  C7  UNL     1      22.617   3.439  48.284  1.00  0.00     0.040 A 
HETATM    8  C8  UNL     1      22.464   4.606  48.999  1.00  0.00     0.080 A 
HETATM    9  N1  UNL     1      23.949   4.841  49.000  1.00  0.00    -0.369 N 
HETATM   10  C9  UNL     1      23.841   3.849  50.098  1.00  0.00     0.204 C 
HETATM   11  N2  UNL     1      23.395   3.877  51.352  1.00  0.00    -0.244 NA
HETATM   12  C10 UNL     1      23.453   2.672  52.084  1.00  0.00     0.071 A 
HETATM   13  C11 UNL     1      24.490   1.857  52.420  1.00  0.00     0.072 A 
HETATM   14  C12 UNL     1      24.271   0.686  53.097  1.00  0.00     0.107 A 
HETATM   15  C18 UNL     1      22.977   0.346  53.433  1.00  0.00     0.136 A 
HETATM   16  C19 UNL     1      21.919   1.194  53.083  1.00  0.00     0.115 A 
HETATM   17  C20 UNL     1      22.097   2.411  52.387  1.00  0.00     0.025 A 
HETATM   18  C21 UNL     1      20.808   3.093  52.223  1.00  0.00     0.163 C 
HETATM   19  N3  UNL     1      20.214   3.127  50.905  1.00  0.00    -0.388 N 
HETATM   20  O3  UNL     1      20.679   0.691  53.503  1.00  0.00    -0.345 OA
HETATM   21  C22 UNL     1      20.518  -0.733  53.594  1.00  0.00     0.202 C 
HETATM   22  C23 UNL     1      21.542  -1.286  54.545  1.00  0.00     0.202 C 
HETATM   23  O4  UNL     1      22.813  -0.837  54.110  1.00  0.00    -0.344 OA
HETATM   24  H5  UNL     1      24.909   5.205  48.760  1.00  0.00     0.161 HD
HETATM   25  H19 UNL     1      19.297   2.617  50.758  1.00  0.00     0.159 HD
ENDROOT
BRANCH  14  26
HETATM   26  O1  UNL     1      25.269  -0.041  53.387  1.00  0.00    -0.346 OA
BRANCH  26  27
HETATM   27  C13 UNL     1      26.274  -0.786  53.694  1.00  0.00     0.207 C 
BRANCH  27  28
HETATM   28  C14 UNL     1      27.558  -0.619  52.844  1.00  0.00     0.145 C 
HETATM   29  C15 UNL     1      28.042   0.767  53.048  1.00  0.00     0.036 C 
HETATM   30  C16 UNL     1      28.870   0.645  54.313  1.00  0.00     0.029 C 
HETATM   31  C17 UNL     1      29.347  -0.784  54.207  1.00  0.00     0.168 C 
HETATM   32  O2  UNL     1      28.465  -1.486  53.436  1.00  0.00    -0.384 OA
ENDBRANCH  27  28
ENDBRANCH  26  27
ENDBRANCH  14  26
TORSDOF 3
ENDMDL
MODEL 4
REMARK VINA RESULT:      -8.8      1.343      1.573
REMARK  3 active torsions:
REMARK  status: ('A' for Active; 'I' for Inactive)
REMARK    1  A    between atoms: C12_14  and  O1_15 
REMARK    2  A    between atoms: O1_15  and  C13_16 
REMARK    3  A    between atoms: C13_16  and  C14_17 
ROOT
HETATM    1  C1  UNL     1      22.813   7.646  45.632  1.00  0.00     0.017 C 
HETATM    2  C2  UNL     1      23.346   7.445  46.670  1.00  0.00    -0.080 C 
HETATM    3  C3  UNL     1      23.958   7.217  47.912  1.00  0.00     0.025 A 
HETATM    4  C4  UNL     1      25.214   6.736  48.186  1.00  0.00     0.044 A 
HETATM    5  C5  UNL     1      25.324   6.717  49.549  1.00  0.00     0.014 A 
HETATM    6  C6  UNL     1      24.602   7.025  50.656  1.00  0.00     0.076 A 
HETATM    7  C7  UNL     1      23.324   7.523  50.558  1.00  0.00     0.040 A 
HETATM    8  C8  UNL     1      23.603   7.384  49.217  1.00  0.00     0.080 A 
HETATM    9  N1  UNL     1      22.187   6.965  48.931  1.00  0.00    -0.369 N 
HETATM   10  C9  UNL     1      22.740   5.686  49.443  1.00  0.00     0.204 C 
HETATM   11  N2  UNL     1      23.572   4.762  48.968  1.00  0.00    -0.244 NA
HETATM   12  C10 UNL     1      23.866   3.666  49.807  1.00  0.00     0.071 A 
HETATM   13  C11 UNL     1      23.075   2.725  50.389  1.00  0.00     0.072 A 
HETATM   14  C12 UNL     1      23.608   1.783  51.230  1.00  0.00     0.107 A 
HETATM   15  C18 UNL     1      24.964   1.807  51.478  1.00  0.00     0.136 A 
HETATM   16  C19 UNL     1      25.768   2.781  50.872  1.00  0.00     0.115 A 
HETATM   17  C20 UNL     1      25.263   3.770  49.997  1.00  0.00     0.025 A 
HETATM   18  C21 UNL     1      26.360   4.600  49.486  1.00  0.00     0.163 C 
HETATM   19  N3  UNL     1      26.478   5.956  49.975  1.00  0.00    -0.388 N 
HETATM   20  O3  UNL     1      27.116   2.654  51.238  1.00  0.00    -0.345 OA
HETATM   21  C22 UNL     1      27.422   2.108  52.530  1.00  0.00     0.202 C 
HETATM   22  C23 UNL     1      26.824   0.733  52.639  1.00  0.00     0.202 C 
HETATM   23  O4  UNL     1      25.447   0.843  52.328  1.00  0.00    -0.344 OA
HETATM   24  H5  UNL     1      21.174   6.979  48.639  1.00  0.00     0.161 HD
HETATM   25  H19 UNL     1      27.335   6.207  50.545  1.00  0.00     0.159 HD
ENDROOT
BRANCH  14  26
HETATM   26  O1  UNL     1      22.830   0.925  51.749  1.00  0.00    -0.346 OA
BRANCH  26  27
HETATM   27  C13 UNL     1      22.034   0.051  52.261  1.00  0.00     0.207 C 
BRANCH  27  28
HETATM   28  C14 UNL     1      21.559   0.301  53.714  1.00  0.00     0.145 C 
HETATM   29  C15 UNL     1      20.387  -0.577  53.948  1.00  0.00     0.036 C 
HETATM   30  C16 UNL     1      21.033  -1.886  54.362  1.00  0.00     0.029 C 
HETATM   31  C17 UNL     1      22.302  -1.388  55.011  1.00  0.00     0.168 C 
HETATM   32  O2  UNL     1      22.609  -0.163  54.493  1.00  0.00    -0.384 OA
ENDBRANCH  27  28
ENDBRANCH  26  27
ENDBRANCH  14  26
TORSDOF 3
ENDMDL
MODEL 5
REMARK VINA RESULT:      -8.2      3.996      7.908
REMARK  3 active torsions:
REMARK  status: ('A' for Active; 'I' for Inactive)
REMARK    1  A    between atoms: C12_14  and  O1_15 
REMARK    2  A    between atoms: O1_15  and  C13_16 
REMARK    3  A    between atoms: C13_16  and  C14_17 
ROOT
HETATM    1  C1  UNL     1      21.159   0.583  50.160  1.00  0.00     0.017 C 
HETATM    2  C2  UNL     1      21.673   1.538  50.633  1.00  0.00    -0.080 C 
HETATM    3  C3  UNL     1      22.296   2.657  51.208  1.00  0.00     0.025 A 
HETATM    4  C4  UNL     1      22.029   3.990  51.026  1.00  0.00     0.044 A 
HETATM    5  C5  UNL     1      22.910   4.667  51.825  1.00  0.00     0.014 A 
HETATM    6  C6  UNL     1      23.912   4.425  52.707  1.00  0.00     0.076 A 
HETATM    7  C7  UNL     1      24.303   3.142  53.006  1.00  0.00     0.040 A 
HETATM    8  C8  UNL     1      23.302   2.855  52.107  1.00  0.00     0.080 A 
HETATM    9  N1  UNL     1      24.084   1.696  51.554  1.00  0.00    -0.369 N 
HETATM   10  C9  UNL     1      24.750   2.819  50.849  1.00  0.00     0.204 C 
HETATM   11  N2  UNL     1      24.416   3.636  49.852  1.00  0.00    -0.244 NA
HETATM   12  C10 UNL     1      25.358   4.619  49.480  1.00  0.00     0.071 A 
HETATM   13  C11 UNL     1      26.643   4.531  49.043  1.00  0.00     0.072 A 
HETATM   14  C12 UNL     1      27.381   5.662  48.805  1.00  0.00     0.107 A 
HETATM   15  C18 UNL     1      26.796   6.892  49.016  1.00  0.00     0.136 A 
HETATM   16  C19 UNL     1      25.472   6.969  49.464  1.00  0.00     0.115 A 
HETATM   17  C20 UNL     1      24.673   5.831  49.722  1.00  0.00     0.025 A 
HETATM   18  C21 UNL     1      23.322   6.243  50.121  1.00  0.00     0.163 C 
HETATM   19  N3  UNL     1      22.936   6.077  51.505  1.00  0.00    -0.388 N 
HETATM   20  O3  UNL     1      25.045   8.295  49.623  1.00  0.00    -0.345 OA
HETATM   21  C22 UNL     1      26.024   9.288  49.963  1.00  0.00     0.202 C 
HETATM   22  C23 UNL     1      27.091   9.313  48.904  1.00  0.00     0.202 C 
HETATM   23  O4  UNL     1      27.579   7.992  48.762  1.00  0.00    -0.344 OA
HETATM   24  H5  UNL     1      24.433   0.720  51.359  1.00  0.00     0.161 HD
HETATM   25  H19 UNL     1      22.735   6.948  52.073  1.00  0.00     0.159 HD
ENDROOT
BRANCH  14  26
HETATM   26  O1  UNL     1      28.576   5.530  48.398  1.00  0.00    -0.346 OA
BRANCH  26  27
HETATM   27  C13 UNL     1      29.787   5.380  47.984  1.00  0.00     0.207 C 
BRANCH  27  28
HETATM   28  C14 UNL     1      30.915   5.901  48.909  1.00  0.00     0.145 C 
HETATM   29  C15 UNL     1      32.205   5.519  48.285  1.00  0.00     0.036 C 
HETATM   30  C16 UNL     1      32.449   6.656  47.310  1.00  0.00     0.029 C 
HETATM   31  C17 UNL     1      31.754   7.795  48.017  1.00  0.00     0.168 C 
HETATM   32  O2  UNL     1      30.793   7.281  48.840  1.00  0.00    -0.384 OA
ENDBRANCH  27  28
ENDBRANCH  26  27
ENDBRANCH  14  26
TORSDOF 3
ENDMDL
MODEL 6
REMARK VINA RESULT:      -8.2      2.637      3.307
REMARK  3 active torsions:
REMARK  status: ('A' for Active; 'I' for Inactive)
REMARK    1  A    between atoms: C12_14  and  O1_15 
REMARK    2  A    between atoms: O1_15  and  C13_16 
REMARK    3  A    between atoms: C13_16  and  C14_17 
ROOT
HETATM    1  C1  UNL     1      24.763   9.323  45.098  1.00  0.00     0.017 C 
HETATM    2  C2  UNL     1      25.231   8.904  46.102  1.00  0.00    -0.080 C 
HETATM    3  C3  UNL     1      25.774   8.425  47.304  1.00  0.00     0.025 A 
HETATM    4  C4  UNL     1      26.712   7.444  47.504  1.00  0.00     0.044 A 
HETATM    5  C5  UNL     1      26.903   7.371  48.856  1.00  0.00     0.014 A 
HETATM    6  C6  UNL     1      26.470   7.956  50.002  1.00  0.00     0.076 A 
HETATM    7  C7  UNL     1      25.532   8.960  49.978  1.00  0.00     0.040 A 
HETATM    8  C8  UNL     1      25.623   8.722  48.626  1.00  0.00     0.080 A 
HETATM    9  N1  UNL     1      24.149   8.962  48.449  1.00  0.00    -0.369 N 
HETATM   10  C9  UNL     1      24.127   7.567  48.956  1.00  0.00     0.204 C 
HETATM   11  N2  UNL     1      24.439   6.376  48.450  1.00  0.00    -0.244 NA
HETATM   12  C10 UNL     1      24.289   5.257  49.296  1.00  0.00     0.071 A 
HETATM   13  C11 UNL     1      23.213   4.749  49.955  1.00  0.00     0.072 A 
HETATM   14  C12 UNL     1      23.345   3.665  50.783  1.00  0.00     0.107 A 
HETATM   15  C18 UNL     1      24.591   3.095  50.936  1.00  0.00     0.136 A 
HETATM   16  C19 UNL     1      25.691   3.626  50.250  1.00  0.00     0.115 A 
HETATM   17  C20 UNL     1      25.602   4.741  49.386  1.00  0.00     0.025 A 
HETATM   18  C21 UNL     1      26.910   5.015  48.778  1.00  0.00     0.163 C 
HETATM   19  N3  UNL     1      27.640   6.181  49.222  1.00  0.00    -0.388 N 
HETATM   20  O3  UNL     1      26.873   2.923  50.525  1.00  0.00    -0.345 OA
HETATM   21  C22 UNL     1      27.006   2.290  51.807  1.00  0.00     0.202 C 
HETATM   22  C23 UNL     1      25.880   1.312  51.994  1.00  0.00     0.202 C 
HETATM   23  O4  UNL     1      24.669   2.011  51.776  1.00  0.00    -0.344 OA
HETATM   24  H5  UNL     1      23.224   9.417  48.228  1.00  0.00     0.161 HD
HETATM   25  H19 UNL     1      28.561   6.032  49.724  1.00  0.00     0.159 HD
ENDROOT
BRANCH  14  26
HETATM   26  O1  UNL     1      22.312   3.227  51.377  1.00  0.00    -0.346 OA
BRANCH  26  27
HETATM   27  C13 UNL     1      21.256   2.785  51.966  1.00  0.00     0.207 C 
BRANCH  27  28
HETATM   28  C14 UNL     1      20.580   1.534  51.351  1.00  0.00     0.145 C 
HETATM   29  C15 UNL     1      21.630   0.497  51.201  1.00  0.00     0.036 C 
HETATM   30  C16 UNL     1      21.646  -0.157  52.570  1.00  0.00     0.029 C 
HETATM   31  C17 UNL     1      20.211   0.037  52.997  1.00  0.00     0.168 C 
HETATM   32  O2  UNL     1      19.696   1.115  52.334  1.00  0.00    -0.384 OA
ENDBRANCH  27  28
ENDBRANCH  26  27
ENDBRANCH  14  26
TORSDOF 3
ENDMDL
MODEL 7
REMARK VINA RESULT:      -7.6      9.219     12.224
REMARK  3 active torsions:
REMARK  status: ('A' for Active; 'I' for Inactive)
REMARK    1  A    between atoms: C12_14  and  O1_15 
REMARK    2  A    between atoms: O1_15  and  C13_16 
REMARK    3  A    between atoms: C13_16  and  C14_17 
ROOT
HETATM    1  C1  UNL     1      30.542  12.516  48.984  1.00  0.00     0.017 C 
HETATM    2  C2  UNL     1      30.450  11.340  48.888  1.00  0.00    -0.080 C 
HETATM    3  C3  UNL     1      30.324   9.948  48.756  1.00  0.00     0.025 A 
HETATM    4  C4  UNL     1      30.945   8.949  49.462  1.00  0.00     0.044 A 
HETATM    5  C5  UNL     1      30.467   7.772  48.954  1.00  0.00     0.014 A 
HETATM    6  C6  UNL     1      29.599   7.320  48.015  1.00  0.00     0.076 A 
HETATM    7  C7  UNL     1      28.891   8.191  47.221  1.00  0.00     0.040 A 
HETATM    8  C8  UNL     1      29.592   9.108  47.970  1.00  0.00     0.080 A 
HETATM    9  N1  UNL     1      29.743  10.017  46.782  1.00  0.00    -0.369 N 
HETATM   10  C9  UNL     1      30.820   9.036  46.499  1.00  0.00     0.204 C 
HETATM   11  N2  UNL     1      32.023   8.784  47.010  1.00  0.00    -0.244 NA
HETATM   12  C10 UNL     1      32.751   7.713  46.449  1.00  0.00     0.071 A 
HETATM   13  C11 UNL     1      33.184   7.468  45.184  1.00  0.00     0.072 A 
HETATM   14  C12 UNL     1      33.830   6.298  44.876  1.00  0.00     0.107 A 
HETATM   15  C18 UNL     1      34.033   5.371  45.877  1.00  0.00     0.136 A 
HETATM   16  C19 UNL     1      33.583   5.636  47.177  1.00  0.00     0.115 A 
HETATM   17  C20 UNL     1      32.915   6.827  47.539  1.00  0.00     0.025 A 
HETATM   18  C21 UNL     1      32.627   6.827  48.978  1.00  0.00     0.163 C 
HETATM   19  N3  UNL     1      31.256   6.645  49.402  1.00  0.00    -0.388 N 
HETATM   20  O3  UNL     1      33.875   4.585  48.059  1.00  0.00    -0.345 OA
HETATM   21  C22 UNL     1      33.941   3.252  47.531  1.00  0.00     0.202 C 
HETATM   22  C23 UNL     1      34.987   3.199  46.453  1.00  0.00     0.202 C 
HETATM   23  O4  UNL     1      34.684   4.217  45.517  1.00  0.00    -0.344 OA
HETATM   24  H5  UNL     1      29.603  10.803  46.094  1.00  0.00     0.161 HD
HETATM   25  H19 UNL     1      31.015   5.771  49.949  1.00  0.00     0.159 HD
ENDROOT
BRANCH  14  26
HETATM   26  O1  UNL     1      34.215   6.115  43.682  1.00  0.00    -0.346 OA
BRANCH  26  27
HETATM   27  C13 UNL     1      34.617   5.918  42.474  1.00  0.00     0.207 C 
BRANCH  27  28
HETATM   28  C14 UNL     1      33.524   5.742  41.390  1.00  0.00     0.145 C 
HETATM   29  C15 UNL     1      34.217   5.636  40.083  1.00  0.00     0.036 C 
HETATM   30  C16 UNL     1      34.558   4.160  40.009  1.00  0.00     0.029 C 
HETATM   31  C17 UNL     1      33.429   3.564  40.815  1.00  0.00     0.168 C 
HETATM   32  O2  UNL     1      32.960   4.509  41.682  1.00  0.00    -0.384 OA
ENDBRANCH  27  28
ENDBRANCH  26  27
ENDBRANCH  14  26
TORSDOF 3
ENDMDL
MODEL 8
REMARK VINA RESULT:      -7.4      4.692      6.587
REMARK  3 active torsions:
REMARK  status: ('A' for Active; 'I' for Inactive)
REMARK    1  A    between atoms: C12_14  and  O1_15 
REMARK    2  A    between atoms: O1_15  and  C13_16 
REMARK    3  A    between atoms: C13_16  and  C14_17 
ROOT
HETATM    1  C1  UNL     1      24.614   6.491  48.259  1.00  0.00     0.017 C 
HETATM    2  C2  UNL     1      24.264   5.687  49.054  1.00  0.00    -0.080 C 
HETATM    3  C3  UNL     1      23.852   4.751  50.015  1.00  0.00     0.025 A 
HETATM    4  C4  UNL     1      23.603   3.409  49.871  1.00  0.00     0.044 A 
HETATM    5  C5  UNL     1      23.243   2.955  51.110  1.00  0.00     0.014 A 
HETATM    6  C6  UNL     1      23.076   3.409  52.377  1.00  0.00     0.076 A 
HETATM    7  C7  UNL     1      23.288   4.730  52.695  1.00  0.00     0.040 A 
HETATM    8  C8  UNL     1      23.579   4.784  51.351  1.00  0.00     0.080 A 
HETATM    9  N1  UNL     1      22.951   6.145  51.234  1.00  0.00    -0.369 N 
HETATM   10  C9  UNL     1      21.736   5.294  51.200  1.00  0.00     0.204 C 
HETATM   11  N2  UNL     1      21.181   4.480  50.306  1.00  0.00    -0.244 NA
HETATM   12  C10 UNL     1      19.992   3.820  50.684  1.00  0.00     0.071 A 
HETATM   13  C11 UNL     1      18.779   4.285  51.087  1.00  0.00     0.072 A 
HETATM   14  C12 UNL     1      17.787   3.419  51.469  1.00  0.00     0.107 A 
HETATM   15  C18 UNL     1      18.042   2.064  51.438  1.00  0.00     0.136 A 
HETATM   16  C19 UNL     1      19.295   1.598  51.021  1.00  0.00     0.115 A 
HETATM   17  C20 UNL     1      20.346   2.453  50.617  1.00  0.00     0.025 A 
HETATM   18  C21 UNL     1      21.503   1.661  50.184  1.00  0.00     0.163 C 
HETATM   19  N3  UNL     1      22.669   1.629  51.040  1.00  0.00    -0.388 N 
HETATM   20  O3  UNL     1      19.374   0.198  51.053  1.00  0.00    -0.345 OA
HETATM   21  C22 UNL     1      18.582  -0.506  52.022  1.00  0.00     0.202 C 
HETATM   22  C23 UNL     1      17.132  -0.170  51.813  1.00  0.00     0.202 C 
HETATM   23  O4  UNL     1      17.015   1.240  51.830  1.00  0.00    -0.344 OA
HETATM   24  H5  UNL     1      22.820   7.189  51.168  1.00  0.00     0.161 HD
HETATM   25  H19 UNL     1      22.941   0.703  51.477  1.00  0.00     0.159 HD
ENDROOT
BRANCH  14  26
HETATM   26  O1  UNL     1      16.672   3.900  51.836  1.00  0.00    -0.346 OA
BRANCH  26  27
HETATM   27  C13 UNL     1      15.532   4.378  52.199  1.00  0.00     0.207 C 
BRANCH  27  28
HETATM   28  C14 UNL     1      14.639   3.470  53.081  1.00  0.00     0.145 C 
HETATM   29  C15 UNL     1      13.723   4.358  53.838  1.00  0.00     0.036 C 
HETATM   30  C16 UNL     1      12.583   4.568  52.860  1.00  0.00     0.029 C 
HETATM   31  C17 UNL     1      12.623   3.270  52.089  1.00  0.00     0.168 C 
HETATM   32  O2  UNL     1      13.885   2.752  52.164  1.00  0.00    -0.384 OA
ENDBRANCH  27  28
ENDBRANCH  26  27
ENDBRANCH  14  26
TORSDOF 3
ENDMDL
MODEL 9
REMARK VINA RESULT:      -7.4      3.825      8.269
REMARK  3 active torsions:
REMARK  status: ('A' for Active; 'I' for Inactive)
REMARK    1  A    between atoms: C12_14  and  O1_15 
REMARK    2  A    between atoms: O1_15  and  C13_16 
REMARK    3  A    between atoms: C13_16  and  C14_17 
ROOT
HETATM    1  C1  UNL     1      26.274  -0.238  52.480  1.00  0.00     0.017 C 
HETATM    2  C2  UNL     1      25.398   0.534  52.282  1.00  0.00    -0.080 C 
HETATM    3  C3  UNL     1      24.368   1.462  52.066  1.00  0.00     0.025 A 
HETATM    4  C4  UNL     1      23.349   1.431  51.147  1.00  0.00     0.044 A 
HETATM    5  C5  UNL     1      22.611   2.563  51.361  1.00  0.00     0.014 A 
HETATM    6  C6  UNL     1      22.582   3.648  52.176  1.00  0.00     0.076 A 
HETATM    7  C7  UNL     1      23.529   3.830  53.154  1.00  0.00     0.040 A 
HETATM    8  C8  UNL     1      23.985   2.640  52.636  1.00  0.00     0.080 A 
HETATM    9  N1  UNL     1      25.415   3.059  52.836  1.00  0.00    -0.369 N 
HETATM   10  C9  UNL     1      25.104   3.785  51.580  1.00  0.00     0.204 C 
HETATM   11  N2  UNL     1      24.926   3.435  50.308  1.00  0.00    -0.244 NA
HETATM   12  C10 UNL     1      24.615   4.462  49.393  1.00  0.00     0.071 A 
HETATM   13  C11 UNL     1      25.274   5.598  49.038  1.00  0.00     0.072 A 
HETATM   14  C12 UNL     1      24.718   6.484  48.152  1.00  0.00     0.107 A 
HETATM   15  C18 UNL     1      23.475   6.203  47.625  1.00  0.00     0.136 A 
HETATM   16  C19 UNL     1      22.807   5.029  47.998  1.00  0.00     0.115 A 
HETATM   17  C20 UNL     1      23.342   4.087  48.905  1.00  0.00     0.025 A 
HETATM   18  C21 UNL     1      22.432   2.944  49.042  1.00  0.00     0.163 C 
HETATM   19  N3  UNL     1      21.688   2.805  50.274  1.00  0.00    -0.388 N 
HETATM   20  O3  UNL     1      21.561   4.909  47.366  1.00  0.00    -0.345 OA
HETATM   21  C22 UNL     1      20.856   6.111  47.018  1.00  0.00     0.202 C 
HETATM   22  C23 UNL     1      21.714   6.939  46.104  1.00  0.00     0.202 C 
HETATM   23  O4  UNL     1      22.963   7.123  46.743  1.00  0.00    -0.344 OA
HETATM   24  H5  UNL     1      26.384   3.166  53.237  1.00  0.00     0.161 HD
HETATM   25  H19 UNL     1      20.633   2.889  50.232  1.00  0.00     0.159 HD
ENDROOT
BRANCH  14  26
HETATM   26  O1  UNL     1      25.370   7.530  47.852  1.00  0.00    -0.346 OA
BRANCH  26  27
HETATM   27  C13 UNL     1      26.046   8.583  47.546  1.00  0.00     0.207 C 
BRANCH  27  28
HETATM   28  C14 UNL     1      25.912   9.804  48.490  1.00  0.00     0.145 C 
HETATM   29  C15 UNL     1      26.081   9.306  49.877  1.00  0.00     0.036 C 
HETATM   30  C16 UNL     1      27.588   9.311  50.048  1.00  0.00     0.029 C 
HETATM   31  C17 UNL     1      27.978  10.445  49.129  1.00  0.00     0.168 C 
HETATM   32  O2  UNL     1      27.011  10.591  48.176  1.00  0.00    -0.384 OA
ENDBRANCH  27  28
ENDBRANCH  26  27
ENDBRANCH  14  26
TORSDOF 3
ENDMDL
