MODEL 1
REMARK VINA RESULT:      -7.1      0.000      0.000
REMARK  2 active torsions:
REMARK  status: ('A' for Active; 'I' for Inactive)
REMARK    1  A    between atoms: O1_2  and  C2_3 
REMARK    2  A    between atoms: C11_16  and  N3_17 
REMARK       I    between atoms: N3_17  and  C12_18 
ROOT
HETATM    1  C2  UNL     1      30.522   5.611  48.091  1.00  0.00     0.081 C 
HETATM    2  C3  UNL     1      31.210   4.576  47.543  1.00  0.00     0.051 C 
HETATM    3  C4  UNL     1      32.617   4.667  47.745  1.00  0.00     0.019 A 
HETATM    4  C5  UNL     1      33.859   4.123  47.684  1.00  0.00     0.051 A 
HETATM    5  N1  UNL     1      35.031   4.555  48.183  1.00  0.00    -0.245 NA
HETATM    6  C6  UNL     1      35.100   5.740  48.887  1.00  0.00     0.233 A 
HETATM    7  N2  UNL     1      33.919   6.420  49.025  1.00  0.00    -0.242 NA
HETATM    8  C7  UNL     1      32.825   5.827  48.450  1.00  0.00     0.083 A 
HETATM    9  C8  UNL     1      31.621   6.607  48.274  1.00  0.00     0.233 C 
HETATM   10  O2  UNL     1      31.592   7.336  47.092  1.00  0.00    -0.349 OA
HETATM   11  C9  UNL     1      32.258   6.975  46.012  1.00  0.00     0.339 C 
HETATM   12  O3  UNL     1      33.645   6.897  46.061  1.00  0.00    -0.365 OA
HETATM   13  C10 UNL     1      34.186   6.542  44.869  1.00  0.00     0.199 C 
HETATM   14  C11 UNL     1      34.055   5.208  44.263  1.00  0.00     0.131 C 
HETATM   15  C14 UNL     1      35.105   4.243  44.805  1.00  0.00    -0.003 C 
HETATM   16  C15 UNL     1      35.073   3.344  45.769  1.00  0.00    -0.022 C 
HETATM   17  C16 UNL     1      33.923   2.966  46.689  1.00  0.00     0.087 C 
ENDROOT
BRANCH  14  18
HETATM   18  N3  UNL     1      34.559   5.343  42.846  1.00  0.00    -0.351 N 
HETATM   19  C12 UNL     1      33.903   4.826  41.666  1.00  0.00     0.214 C 
HETATM   20  C13 UNL     1      34.581   5.113  40.373  1.00  0.00     0.117 C 
HETATM   21  O4  UNL     1      32.894   4.252  42.080  1.00  0.00    -0.274 OA
HETATM   22  H12 UNL     1      35.485   5.869  42.854  1.00  0.00     0.163 HD
ENDBRANCH  14  18
BRANCH   1  23
HETATM   23  O1  UNL     1      29.216   5.130  48.150  1.00  0.00    -0.357 OA
HETATM   24  C1  UNL     1      28.187   6.113  48.188  1.00  0.00     0.209 C 
ENDBRANCH   1  23
TORSDOF 2
ENDMDL
MODEL 2
REMARK VINA RESULT:      -7.1      2.115      5.755
REMARK  2 active torsions:
REMARK  status: ('A' for Active; 'I' for Inactive)
REMARK    1  A    between atoms: O1_2  and  C2_3 
REMARK    2  A    between atoms: C11_16  and  N3_17 
REMARK       I    between atoms: N3_17  and  C12_18 
ROOT
HETATM    1  C2  UNL     1      33.346   4.400  44.918  1.00  0.00     0.081 C 
HETATM    2  C3  UNL     1      33.385   5.712  45.266  1.00  0.00     0.051 C 
HETATM    3  C4  UNL     1      33.938   5.935  46.559  1.00  0.00     0.019 A 
HETATM    4  C5  UNL     1      34.413   6.773  47.514  1.00  0.00     0.051 A 
HETATM    5  N1  UNL     1      35.055   6.514  48.668  1.00  0.00    -0.245 NA
HETATM    6  C6  UNL     1      35.322   5.214  49.046  1.00  0.00     0.233 A 
HETATM    7  N2  UNL     1      34.890   4.242  48.183  1.00  0.00    -0.242 NA
HETATM    8  C7  UNL     1      34.254   4.694  47.056  1.00  0.00     0.083 A 
HETATM    9  C8  UNL     1      33.499   3.755  46.258  1.00  0.00     0.233 C 
HETATM   10  O2  UNL     1      32.186   3.586  46.682  1.00  0.00    -0.349 OA
HETATM   11  C9  UNL     1      31.520   4.517  47.337  1.00  0.00     0.339 C 
HETATM   12  O3  UNL     1      31.984   4.944  48.576  1.00  0.00    -0.365 OA
HETATM   13  C10 UNL     1      31.179   5.881  49.136  1.00  0.00     0.199 C 
HETATM   14  C11 UNL     1      31.031   7.254  48.631  1.00  0.00     0.131 C 
HETATM   15  C14 UNL     1      32.132   8.166  49.163  1.00  0.00    -0.003 C 
HETATM   16  C15 UNL     1      33.287   8.556  48.656  1.00  0.00    -0.022 C 
HETATM   17  C16 UNL     1      33.912   8.203  47.316  1.00  0.00     0.087 C 
ENDROOT
BRANCH  14  18
HETATM   18  N3  UNL     1      29.853   7.844  49.370  1.00  0.00    -0.351 N 
HETATM   19  C12 UNL     1      28.813   8.659  48.782  1.00  0.00     0.214 C 
HETATM   20  C13 UNL     1      27.736   9.099  49.710  1.00  0.00     0.117 C 
HETATM   21  O4  UNL     1      29.122   8.773  47.594  1.00  0.00    -0.274 OA
HETATM   22  H12 UNL     1      29.916   7.575  50.398  1.00  0.00     0.163 HD
ENDBRANCH  14  18
BRANCH   1  23
HETATM   23  O1  UNL     1      33.184   4.441  43.535  1.00  0.00    -0.357 OA
HETATM   24  C1  UNL     1      34.234   5.059  42.799  1.00  0.00     0.209 C 
ENDBRANCH   1  23
TORSDOF 2
ENDMDL
MODEL 3
REMARK VINA RESULT:      -6.9     10.492     12.509
REMARK  2 active torsions:
REMARK  status: ('A' for Active; 'I' for Inactive)
REMARK    1  A    between atoms: O1_2  and  C2_3 
REMARK    2  A    between atoms: C11_16  and  N3_17 
REMARK       I    between atoms: N3_17  and  C12_18 
ROOT
HETATM    1  C2  UNL     1      22.186   3.050  48.213  1.00  0.00     0.081 C 
HETATM    2  C3  UNL     1      22.116   1.874  48.889  1.00  0.00     0.051 C 
HETATM    3  C4  UNL     1      21.601   2.014  50.209  1.00  0.00     0.019 A 
HETATM    4  C5  UNL     1      21.133   1.470  51.361  1.00  0.00     0.051 A 
HETATM    5  N1  UNL     1      20.540   2.043  52.424  1.00  0.00    -0.245 NA
HETATM    6  C6  UNL     1      20.330   3.406  52.460  1.00  0.00     0.233 A 
HETATM    7  N2  UNL     1      20.764   4.105  51.365  1.00  0.00    -0.242 NA
HETATM    8  C7  UNL     1      21.344   3.353  50.377  1.00  0.00     0.083 A 
HETATM    9  C8  UNL     1      22.102   4.024  49.345  1.00  0.00     0.233 C 
HETATM   10  O2  UNL     1      23.433   4.242  49.677  1.00  0.00    -0.349 OA
HETATM   11  C9  UNL     1      24.090   3.484  50.533  1.00  0.00     0.339 C 
HETATM   12  O3  UNL     1      23.656   3.409  51.852  1.00  0.00    -0.365 OA
HETATM   13  C10 UNL     1      24.450   2.616  52.614  1.00  0.00     0.199 C 
HETATM   14  C11 UNL     1      24.534   1.154  52.477  1.00  0.00     0.131 C 
HETATM   15  C14 UNL     1      23.423   0.455  53.254  1.00  0.00    -0.003 C 
HETATM   16  C15 UNL     1      22.239  -0.004  52.894  1.00  0.00    -0.022 C 
HETATM   17  C16 UNL     1      21.579   0.018  51.525  1.00  0.00     0.087 C 
ENDROOT
BRANCH  14  18
HETATM   18  N3  UNL     1      25.718   0.726  53.313  1.00  0.00    -0.351 N 
HETATM   19  C12 UNL     1      26.904   0.066  52.817  1.00  0.00     0.214 C 
HETATM   20  C13 UNL     1      27.951  -0.230  53.832  1.00  0.00     0.117 C 
HETATM   21  O4  UNL     1      26.713  -0.081  51.608  1.00  0.00    -0.274 OA
HETATM   22  H12 UNL     1      25.534   0.976  54.331  1.00  0.00     0.163 HD
ENDBRANCH  14  18
BRANCH   1  23
HETATM   23  O1  UNL     1      22.297   2.649  46.884  1.00  0.00    -0.357 OA
HETATM   24  C1  UNL     1      21.875   3.594  45.907  1.00  0.00     0.209 C 
ENDBRANCH   1  23
TORSDOF 2
ENDMDL
MODEL 4
REMARK VINA RESULT:      -6.9      8.287     12.588
REMARK  2 active torsions:
REMARK  status: ('A' for Active; 'I' for Inactive)
REMARK    1  A    between atoms: O1_2  and  C2_3 
REMARK    2  A    between atoms: C11_16  and  N3_17 
REMARK       I    between atoms: N3_17  and  C12_18 
ROOT
HETATM    1  C2  UNL     1      25.581   4.446  49.824  1.00  0.00     0.081 C 
HETATM    2  C3  UNL     1      24.951   3.366  49.296  1.00  0.00     0.051 C 
HETATM    3  C4  UNL     1      23.552   3.563  49.116  1.00  0.00     0.019 A 
HETATM    4  C5  UNL     1      22.354   3.162  48.620  1.00  0.00     0.051 A 
HETATM    5  N1  UNL     1      21.176   3.807  48.544  1.00  0.00    -0.245 NA
HETATM    6  C6  UNL     1      21.048   5.093  49.026  1.00  0.00     0.233 A 
HETATM    7  N2  UNL     1      22.178   5.639  49.575  1.00  0.00    -0.242 NA
HETATM    8  C7  UNL     1      23.287   4.833  49.566  1.00  0.00     0.083 A 
HETATM    9  C8  UNL     1      24.418   5.196  50.390  1.00  0.00     0.233 C 
HETATM   10  O2  UNL     1      24.337   4.722  51.694  1.00  0.00    -0.349 OA
HETATM   11  C9  UNL     1      23.653   3.644  52.022  1.00  0.00     0.339 C 
HETATM   12  O3  UNL     1      22.279   3.616  51.808  1.00  0.00    -0.365 OA
HETATM   13  C10 UNL     1      21.714   2.454  52.222  1.00  0.00     0.199 C 
HETATM   14  C11 UNL     1      21.920   1.153  51.569  1.00  0.00     0.131 C 
HETATM   15  C14 UNL     1      20.974   0.965  50.388  1.00  0.00    -0.003 C 
HETATM   16  C15 UNL     1      21.118   1.162  49.091  1.00  0.00    -0.022 C 
HETATM   17  C16 UNL     1      22.335   1.662  48.329  1.00  0.00     0.087 C 
ENDROOT
BRANCH  14  18
HETATM   18  N3  UNL     1      21.343   0.120  52.508  1.00  0.00    -0.351 N 
HETATM   19  C12 UNL     1      22.107  -0.773  53.350  1.00  0.00     0.214 C 
HETATM   20  C13 UNL     1      21.310  -1.684  54.214  1.00  0.00     0.117 C 
HETATM   21  O4  UNL     1      23.288  -0.518  53.107  1.00  0.00    -0.274 OA
HETATM   22  H12 UNL     1      20.281   0.144  52.442  1.00  0.00     0.163 HD
ENDBRANCH  14  18
BRANCH   1  23
HETATM   23  O1  UNL     1      26.922   4.211  49.528  1.00  0.00    -0.357 OA
HETATM   24  C1  UNL     1      27.530   5.113  48.611  1.00  0.00     0.209 C 
ENDBRANCH   1  23
TORSDOF 2
ENDMDL
MODEL 5
REMARK VINA RESULT:      -6.5      9.554     12.225
REMARK  2 active torsions:
REMARK  status: ('A' for Active; 'I' for Inactive)
REMARK    1  A    between atoms: O1_2  and  C2_3 
REMARK    2  A    between atoms: C11_16  and  N3_17 
REMARK       I    between atoms: N3_17  and  C12_18 
ROOT
HETATM    1  C2  UNL     1      21.660   5.453  49.050  1.00  0.00     0.081 C 
HETATM    2  C3  UNL     1      22.149   4.187  49.078  1.00  0.00     0.051 C 
HETATM    3  C4  UNL     1      21.651   3.416  50.167  1.00  0.00     0.019 A 
HETATM    4  C5  UNL     1      21.504   2.228  50.806  1.00  0.00     0.051 A 
HETATM    5  N1  UNL     1      20.733   1.885  51.854  1.00  0.00    -0.245 NA
HETATM    6  C6  UNL     1      19.922   2.820  52.463  1.00  0.00     0.233 A 
HETATM    7  N2  UNL     1      19.967   4.083  51.936  1.00  0.00    -0.242 NA
HETATM    8  C7  UNL     1      20.811   4.246  50.868  1.00  0.00     0.083 A 
HETATM    9  C8  UNL     1      21.158   5.586  50.452  1.00  0.00     0.233 C 
HETATM   10  O2  UNL     1      22.246   6.121  51.131  1.00  0.00    -0.349 OA
HETATM   11  C9  UNL     1      23.193   5.374  51.666  1.00  0.00     0.339 C 
HETATM   12  O3  UNL     1      22.865   4.473  52.672  1.00  0.00    -0.365 OA
HETATM   13  C10 UNL     1      23.947   3.801  53.139  1.00  0.00     0.199 C 
HETATM   14  C11 UNL     1      24.690   2.792  52.371  1.00  0.00     0.131 C 
HETATM   15  C14 UNL     1      24.037   1.417  52.475  1.00  0.00    -0.003 C 
HETATM   16  C15 UNL     1      23.190   0.773  51.696  1.00  0.00    -0.022 C 
HETATM   17  C16 UNL     1      22.570   1.219  50.381  1.00  0.00     0.087 C 
ENDROOT
BRANCH  14  18
HETATM   18  N3  UNL     1      25.952   2.519  53.154  1.00  0.00    -0.351 N 
HETATM   19  C12 UNL     1      27.280   2.395  52.596  1.00  0.00     0.214 C 
HETATM   20  C13 UNL     1      28.373   2.155  53.577  1.00  0.00     0.117 C 
HETATM   21  O4  UNL     1      27.135   2.532  51.380  1.00  0.00    -0.274 OA
HETATM   22  H12 UNL     1      25.707   2.418  54.186  1.00  0.00     0.163 HD
ENDBRANCH  14  18
BRANCH   1  23
HETATM   23  O1  UNL     1      21.920   5.868  47.746  1.00  0.00    -0.357 OA
HETATM   24  C1  UNL     1      23.216   6.405  47.505  1.00  0.00     0.209 C 
ENDBRANCH   1  23
TORSDOF 2
ENDMDL
MODEL 6
REMARK VINA RESULT:      -6.2      8.771     11.328
REMARK  2 active torsions:
REMARK  status: ('A' for Active; 'I' for Inactive)
REMARK    1  A    between atoms: O1_2  and  C2_3 
REMARK    2  A    between atoms: C11_16  and  N3_17 
REMARK       I    between atoms: N3_17  and  C12_18 
ROOT
HETATM    1  C2  UNL     1      23.857   7.609  48.642  1.00  0.00     0.081 C 
HETATM    2  C3  UNL     1      23.797   6.322  48.213  1.00  0.00     0.051 C 
HETATM    3  C4  UNL     1      22.728   5.584  48.798  1.00  0.00     0.019 A 
HETATM    4  C5  UNL     1      21.950   4.474  48.858  1.00  0.00     0.051 A 
HETATM    5  N1  UNL     1      20.819   4.232  49.543  1.00  0.00    -0.245 NA
HETATM    6  C6  UNL     1      20.271   5.200  50.359  1.00  0.00     0.233 A 
HETATM    7  N2  UNL     1      20.954   6.387  50.415  1.00  0.00    -0.242 NA
HETATM    8  C7  UNL     1      22.088   6.452  49.648  1.00  0.00     0.083 A 
HETATM    9  C8  UNL     1      23.026   7.526  49.882  1.00  0.00     0.233 C 
HETATM   10  O2  UNL     1      23.960   7.251  50.873  1.00  0.00    -0.349 OA
HETATM   11  C9  UNL     1      24.334   6.025  51.183  1.00  0.00     0.339 C 
HETATM   12  O3  UNL     1      23.390   5.124  51.664  1.00  0.00    -0.365 OA
HETATM   13  C10 UNL     1      23.931   3.917  51.965  1.00  0.00     0.199 C 
HETATM   14  C11 UNL     1      24.442   2.967  50.965  1.00  0.00     0.131 C 
HETATM   15  C14 UNL     1      23.322   2.103  50.393  1.00  0.00    -0.003 C 
HETATM   16  C15 UNL     1      22.589   2.205  49.301  1.00  0.00    -0.022 C 
HETATM   17  C16 UNL     1      22.633   3.268  48.214  1.00  0.00     0.087 C 
ENDROOT
BRANCH  14  18
HETATM   18  N3  UNL     1      25.190   1.909  51.741  1.00  0.00    -0.351 N 
HETATM   19  C12 UNL     1      26.627   1.801  51.848  1.00  0.00     0.214 C 
HETATM   20  C13 UNL     1      27.130   0.688  52.698  1.00  0.00     0.117 C 
HETATM   21  O4  UNL     1      27.074   2.723  51.162  1.00  0.00    -0.274 OA
HETATM   22  H12 UNL     1      24.488   1.244  52.188  1.00  0.00     0.163 HD
ENDBRANCH  14  18
BRANCH   1  23
HETATM   23  O1  UNL     1      24.652   8.229  47.680  1.00  0.00    -0.357 OA
HETATM   24  C1  UNL     1      25.975   7.723  47.540  1.00  0.00     0.209 C 
ENDBRANCH   1  23
TORSDOF 2
ENDMDL
MODEL 7
REMARK VINA RESULT:      -6.2      4.088      6.700
REMARK  2 active torsions:
REMARK  status: ('A' for Active; 'I' for Inactive)
REMARK    1  A    between atoms: O1_2  and  C2_3 
REMARK    2  A    between atoms: C11_16  and  N3_17 
REMARK       I    between atoms: N3_17  and  C12_18 
ROOT
HETATM    1  C2  UNL     1      28.996  11.874  46.863  1.00  0.00     0.081 C 
HETATM    2  C3  UNL     1      28.987  10.572  46.477  1.00  0.00     0.051 C 
HETATM    3  C4  UNL     1      28.496   9.691  47.482  1.00  0.00     0.019 A 
HETATM    4  C5  UNL     1      28.075   8.463  47.877  1.00  0.00     0.051 A 
HETATM    5  N1  UNL     1      27.484   8.063  49.017  1.00  0.00    -0.245 NA
HETATM    6  C6  UNL     1      27.221   8.967  50.026  1.00  0.00     0.233 A 
HETATM    7  N2  UNL     1      27.603  10.260  49.782  1.00  0.00    -0.242 NA
HETATM    8  C7  UNL     1      28.191  10.481  48.563  1.00  0.00     0.083 A 
HETATM    9  C8  UNL     1      28.898  11.723  48.347  1.00  0.00     0.233 C 
HETATM   10  O2  UNL     1      30.227  11.690  48.752  1.00  0.00    -0.349 OA
HETATM   11  C9  UNL     1      30.932  10.577  48.803  1.00  0.00     0.339 C 
HETATM   12  O3  UNL     1      30.531   9.552  49.653  1.00  0.00    -0.365 OA
HETATM   13  C10 UNL     1      31.371   8.488  49.615  1.00  0.00     0.199 C 
HETATM   14  C11 UNL     1      31.510   7.583  48.464  1.00  0.00     0.131 C 
HETATM   15  C14 UNL     1      30.444   6.492  48.479  1.00  0.00    -0.003 C 
HETATM   16  C15 UNL     1      29.272   6.385  47.883  1.00  0.00    -0.022 C 
HETATM   17  C16 UNL     1      28.581   7.363  46.945  1.00  0.00     0.087 C 
ENDROOT
BRANCH  14  18
HETATM   18  N3  UNL     1      32.727   6.735  48.746  1.00  0.00    -0.351 N 
HETATM   19  C12 UNL     1      33.899   6.637  47.906  1.00  0.00     0.214 C 
HETATM   20  C13 UNL     1      34.986   5.756  48.412  1.00  0.00     0.117 C 
HETATM   21  O4  UNL     1      33.663   7.359  46.934  1.00  0.00    -0.274 OA
HETATM   22  H12 UNL     1      32.580   6.207  49.659  1.00  0.00     0.163 HD
ENDBRANCH  14  18
BRANCH   1  23
HETATM   23  O1  UNL     1      29.094  12.564  45.657  1.00  0.00    -0.357 OA
HETATM   24  C1  UNL     1      30.413  12.825  45.189  1.00  0.00     0.209 C 
ENDBRANCH   1  23
TORSDOF 2
ENDMDL
MODEL 8
REMARK VINA RESULT:      -6.1      8.996     11.760
REMARK  2 active torsions:
REMARK  status: ('A' for Active; 'I' for Inactive)
REMARK    1  A    between atoms: O1_2  and  C2_3 
REMARK    2  A    between atoms: C11_16  and  N3_17 
REMARK       I    between atoms: N3_17  and  C12_18 
ROOT
HETATM    1  C2  UNL     1      23.252   1.675  52.816  1.00  0.00     0.081 C 
HETATM    2  C3  UNL     1      22.751   1.960  51.587  1.00  0.00     0.051 C 
HETATM    3  C4  UNL     1      23.695   2.593  50.728  1.00  0.00     0.019 A 
HETATM    4  C5  UNL     1      24.065   3.041  49.502  1.00  0.00     0.051 A 
HETATM    5  N1  UNL     1      25.250   3.491  49.054  1.00  0.00    -0.245 NA
HETATM    6  C6  UNL     1      26.340   3.560  49.898  1.00  0.00     0.233 A 
HETATM    7  N2  UNL     1      26.122   3.150  51.187  1.00  0.00    -0.242 NA
HETATM    8  C7  UNL     1      24.849   2.722  51.462  1.00  0.00     0.083 A 
HETATM    9  C8  UNL     1      24.448   2.572  52.842  1.00  0.00     0.233 C 
HETATM   10  O2  UNL     1      23.958   3.739  53.415  1.00  0.00    -0.349 OA
HETATM   11  C9  UNL     1      23.398   4.702  52.709  1.00  0.00     0.339 C 
HETATM   12  O3  UNL     1      24.145   5.358  51.737  1.00  0.00    -0.365 OA
HETATM   13  C10 UNL     1      23.441   6.340  51.118  1.00  0.00     0.199 C 
HETATM   14  C11 UNL     1      22.315   6.101  50.203  1.00  0.00     0.131 C 
HETATM   15  C14 UNL     1      22.798   5.823  48.784  1.00  0.00    -0.003 C 
HETATM   16  C15 UNL     1      23.022   4.702  48.123  1.00  0.00    -0.022 C 
HETATM   17  C16 UNL     1      22.858   3.265  48.592  1.00  0.00     0.087 C 
ENDROOT
BRANCH  14  18
HETATM   18  N3  UNL     1      21.669   7.447  49.978  1.00  0.00    -0.351 N 
HETATM   19  C12 UNL     1      20.256   7.681  49.778  1.00  0.00     0.214 C 
HETATM   20  C13 UNL     1      19.855   9.103  49.607  1.00  0.00     0.117 C 
HETATM   21  O4  UNL     1      19.735   6.564  49.806  1.00  0.00    -0.274 OA
HETATM   22  H12 UNL     1      22.422   8.199  49.977  1.00  0.00     0.163 HD
ENDBRANCH  14  18
BRANCH   1  23
HETATM   23  O1  UNL     1      22.358   0.730  53.314  1.00  0.00    -0.357 OA
HETATM   24  C1  UNL     1      20.976   1.050  53.194  1.00  0.00     0.209 C 
ENDBRANCH   1  23
TORSDOF 2
ENDMDL
MODEL 9
REMARK VINA RESULT:      -6.0     22.826     24.358
REMARK  2 active torsions:
REMARK  status: ('A' for Active; 'I' for Inactive)
REMARK    1  A    between atoms: O1_2  and  C2_3 
REMARK    2  A    between atoms: C11_16  and  N3_17 
REMARK       I    between atoms: N3_17  and  C12_18 
ROOT
HETATM    1  C2  UNL     1      37.335   0.160  69.523  1.00  0.00     0.081 C 
HETATM    2  C3  UNL     1      38.118  -0.826  70.032  1.00  0.00     0.051 C 
HETATM    3  C4  UNL     1      39.359  -0.968  69.347  1.00  0.00     0.019 A 
HETATM    4  C5  UNL     1      40.603  -1.500  69.251  1.00  0.00     0.051 A 
HETATM    5  N1  UNL     1      41.620  -1.208  68.420  1.00  0.00    -0.245 NA
HETATM    6  C6  UNL     1      41.483  -0.226  67.461  1.00  0.00     0.233 A 
HETATM    7  N2  UNL     1      40.266   0.403  67.422  1.00  0.00    -0.242 NA
HETATM    8  C7  UNL     1      39.351  -0.027  68.347  1.00  0.00     0.083 A 
HETATM    9  C8  UNL     1      37.964   0.348  68.180  1.00  0.00     0.233 C 
HETATM   10  O2  UNL     1      37.242  -0.517  67.367  1.00  0.00    -0.349 OA
HETATM   11  C9  UNL     1      37.563  -1.786  67.210  1.00  0.00     0.339 C 
HETATM   12  O3  UNL     1      38.796  -2.115  66.657  1.00  0.00    -0.365 OA
HETATM   13  C10 UNL     1      38.967  -3.455  66.533  1.00  0.00     0.199 C 
HETATM   14  C11 UNL     1      39.142  -4.376  67.667  1.00  0.00     0.131 C 
HETATM   15  C14 UNL     1      40.596  -4.431  68.123  1.00  0.00    -0.003 C 
HETATM   16  C15 UNL     1      41.253  -3.802  69.080  1.00  0.00    -0.022 C 
HETATM   17  C16 UNL     1      40.740  -2.777  70.079  1.00  0.00     0.087 C 
ENDROOT
BRANCH  14  18
HETATM   18  N3  UNL     1      39.017  -5.768  67.094  1.00  0.00    -0.351 N 
HETATM   19  C12 UNL     1      37.885  -6.651  67.266  1.00  0.00     0.214 C 
HETATM   20  C13 UNL     1      37.982  -7.967  66.578  1.00  0.00     0.117 C 
HETATM   21  O4  UNL     1      37.095  -6.031  67.982  1.00  0.00    -0.274 OA
HETATM   22  H12 UNL     1      39.903  -6.004  66.554  1.00  0.00     0.163 HD
ENDBRANCH  14  18
BRANCH   1  23
HETATM   23  O1  UNL     1      36.421   0.402  70.546  1.00  0.00    -0.357 OA
HETATM   24  C1  UNL     1      35.972  -0.740  71.269  1.00  0.00     0.209 C 
ENDBRANCH   1  23
TORSDOF 2
ENDMDL
