MODEL 1
REMARK VINA RESULT:      -7.4      0.000      0.000
REMARK  4 active torsions:
REMARK  status: ('A' for Active; 'I' for Inactive)
REMARK    1  A    between atoms: C1_2  and  C2_3 
REMARK       I    between atoms: C1_2  and  N2_11 
REMARK    2  A    between atoms: C2_3  and  P1_4 
REMARK    3  A    between atoms: N2_11  and  S1_12 
REMARK    4  A    between atoms: S1_12  and  C7_15 
ROOT
HETATM    1  O1  UNL     1      25.108   2.016  51.692  1.00  0.00    -0.272 OA
HETATM    2  C1  UNL     1      26.054   2.684  51.173  1.00  0.00     0.235 C 
HETATM    3  N2  UNL     1      27.281   2.843  51.875  1.00  0.00    -0.250 N 
HETATM    4  H7  UNL     1      28.074   3.391  51.462  1.00  0.00     0.181 HD
ENDROOT
BRANCH   3   5
HETATM    5  S1  UNL     1      27.395   2.095  53.422  1.00  0.00     0.265 S 
HETATM    6  O2  UNL     1      28.538   2.741  54.152  1.00  0.00    -0.200 OA
HETATM    7  O3  UNL     1      26.084   2.362  54.131  1.00  0.00    -0.200 OA
BRANCH   5   8
HETATM    8  C7  UNL     1      27.672   0.386  53.236  1.00  0.00     0.080 A 
HETATM    9  C8  UNL     1      26.747  -0.540  52.812  1.00  0.00     0.028 A 
HETATM   10  C9  UNL     1      27.058  -1.883  52.693  1.00  0.00     0.044 A 
HETATM   11  C10 UNL     1      28.332  -2.338  53.004  1.00  0.00     0.116 A 
HETATM   12  F1  UNL     1      28.674  -3.660  52.898  1.00  0.00    -0.206 F 
HETATM   13  C11 UNL     1      29.290  -1.431  53.434  1.00  0.00     0.044 A 
HETATM   14  C12 UNL     1      28.942  -0.101  53.540  1.00  0.00     0.028 A 
ENDBRANCH   5   8
ENDBRANCH   3   5
BRANCH   2  15
HETATM   15  C2  UNL     1      25.958   3.330  49.840  1.00  0.00     0.140 C 
BRANCH  15  16
HETATM   16  P1  UNL     1      24.461   4.323  49.676  1.00  0.00    -0.082 P 
HETATM   17  C3  UNL     1      24.084   5.102  51.044  1.00  0.00     0.008 A 
HETATM   18  C4  UNL     1      22.817   4.817  51.704  1.00  0.00     0.045 A 
HETATM   19  C5  UNL     1      21.900   3.958  51.297  1.00  0.00     0.125 A 
HETATM   20 CL1  UNL     1      20.384   3.633  52.107  1.00  0.00    -0.062 Cl
HETATM   21  N1  UNL     1      22.060   3.194  50.126  1.00  0.00    -0.248 NA
HETATM   22  C6  UNL     1      23.082   3.238  49.344  1.00  0.00     0.120 A 
HETATM   23  H3  UNL     1      24.566   5.267  48.634  1.00  0.00     0.063 HD
ENDBRANCH  15  16
ENDBRANCH   2  15
TORSDOF 4
ENDMDL
MODEL 2
REMARK VINA RESULT:      -7.4      4.423      7.130
REMARK  4 active torsions:
REMARK  status: ('A' for Active; 'I' for Inactive)
REMARK    1  A    between atoms: C1_2  and  C2_3 
REMARK       I    between atoms: C1_2  and  N2_11 
REMARK    2  A    between atoms: C2_3  and  P1_4 
REMARK    3  A    between atoms: N2_11  and  S1_12 
REMARK    4  A    between atoms: S1_12  and  C7_15 
ROOT
HETATM    1  O1  UNL     1      24.166   3.591  52.534  1.00  0.00    -0.272 OA
HETATM    2  C1  UNL     1      24.195   2.361  52.226  1.00  0.00     0.235 C 
HETATM    3  N2  UNL     1      23.874   1.951  50.903  1.00  0.00    -0.250 N 
HETATM    4  H7  UNL     1      23.893   0.939  50.629  1.00  0.00     0.181 HD
ENDROOT
BRANCH   3   5
HETATM    5  S1  UNL     1      23.459   3.192  49.783  1.00  0.00     0.265 S 
HETATM    6  O2  UNL     1      22.879   2.527  48.567  1.00  0.00    -0.200 OA
HETATM    7  O3  UNL     1      22.426   4.064  50.464  1.00  0.00    -0.200 OA
BRANCH   5   8
HETATM    8  C7  UNL     1      24.877   4.110  49.363  1.00  0.00     0.080 A 
HETATM    9  C8  UNL     1      26.173   3.646  49.379  1.00  0.00     0.028 A 
HETATM   10  C9  UNL     1      27.242   4.450  49.026  1.00  0.00     0.044 A 
HETATM   11  C10 UNL     1      27.033   5.768  48.641  1.00  0.00     0.116 A 
HETATM   12  F1  UNL     1      28.067   6.591  48.287  1.00  0.00    -0.206 F 
HETATM   13  C11 UNL     1      25.739   6.268  48.613  1.00  0.00     0.044 A 
HETATM   14  C12 UNL     1      24.699   5.436  48.972  1.00  0.00     0.028 A 
ENDBRANCH   5   8
ENDBRANCH   3   5
BRANCH   2  15
HETATM   15  C2  UNL     1      24.552   1.289  53.190  1.00  0.00     0.140 C 
BRANCH  15  16
HETATM   16  P1  UNL     1      26.106   1.633  54.038  1.00  0.00    -0.082 P 
HETATM   17  C3  UNL     1      27.324   1.911  53.008  1.00  0.00     0.008 A 
HETATM   18  C4  UNL     1      28.483   1.029  53.016  1.00  0.00     0.045 A 
HETATM   19  C5  UNL     1      28.663  -0.017  53.801  1.00  0.00     0.125 A 
HETATM   20 CL1  UNL     1      30.066  -1.062  53.793  1.00  0.00    -0.062 Cl
HETATM   21  N1  UNL     1      27.707  -0.405  54.759  1.00  0.00    -0.248 NA
HETATM   22  C6  UNL     1      26.586   0.190  54.972  1.00  0.00     0.120 A 
HETATM   23  H3  UNL     1      25.997   2.733  54.913  1.00  0.00     0.063 HD
ENDBRANCH  15  16
ENDBRANCH   2  15
TORSDOF 4
ENDMDL
MODEL 3
REMARK VINA RESULT:      -7.3      3.086      3.566
REMARK  4 active torsions:
REMARK  status: ('A' for Active; 'I' for Inactive)
REMARK    1  A    between atoms: C1_2  and  C2_3 
REMARK       I    between atoms: C1_2  and  N2_11 
REMARK    2  A    between atoms: C2_3  and  P1_4 
REMARK    3  A    between atoms: N2_11  and  S1_12 
REMARK    4  A    between atoms: S1_12  and  C7_15 
ROOT
HETATM    1  O1  UNL     1      25.562   2.656  53.329  1.00  0.00    -0.272 OA
HETATM    2  C1  UNL     1      26.132   2.134  52.324  1.00  0.00     0.235 C 
HETATM    3  N2  UNL     1      26.619   0.800  52.394  1.00  0.00    -0.250 N 
HETATM    4  H7  UNL     1      27.093   0.351  51.574  1.00  0.00     0.181 HD
ENDROOT
BRANCH   3   5
HETATM    5  S1  UNL     1      26.390  -0.033  53.884  1.00  0.00     0.265 S 
HETATM    6  O2  UNL     1      27.292  -1.236  53.872  1.00  0.00    -0.200 OA
HETATM    7  O3  UNL     1      26.790   0.926  54.985  1.00  0.00    -0.200 OA
BRANCH   5   8
HETATM    8  C7  UNL     1      24.725  -0.516  54.045  1.00  0.00     0.080 A 
HETATM    9  C8  UNL     1      23.754  -0.400  53.076  1.00  0.00     0.028 A 
HETATM   10  C9  UNL     1      22.452  -0.812  53.293  1.00  0.00     0.044 A 
HETATM   11  C10 UNL     1      22.084  -1.362  54.514  1.00  0.00     0.116 A 
HETATM   12  F1  UNL     1      20.804  -1.780  54.762  1.00  0.00    -0.206 F 
HETATM   13  C11 UNL     1      23.038  -1.495  55.513  1.00  0.00     0.044 A 
HETATM   14  C12 UNL     1      24.326  -1.072  55.258  1.00  0.00     0.028 A 
ENDBRANCH   5   8
ENDBRANCH   3   5
BRANCH   2  15
HETATM   15  C2  UNL     1      26.331   2.851  51.038  1.00  0.00     0.140 C 
BRANCH  15  16
HETATM   16  P1  UNL     1      24.772   3.434  50.342  1.00  0.00    -0.082 P 
HETATM   17  C3  UNL     1      24.148   4.673  51.177  1.00  0.00     0.008 A 
HETATM   18  C4  UNL     1      22.845   4.524  51.809  1.00  0.00     0.045 A 
HETATM   19  C5  UNL     1      22.079   3.449  51.778  1.00  0.00     0.125 A 
HETATM   20 CL1  UNL     1      20.515   3.294  52.546  1.00  0.00    -0.062 Cl
HETATM   21  N1  UNL     1      22.463   2.278  51.096  1.00  0.00    -0.248 NA
HETATM   22  C6  UNL     1      23.566   2.124  50.449  1.00  0.00     0.120 A 
HETATM   23  H3  UNL     1      24.910   3.825  48.994  1.00  0.00     0.063 HD
ENDBRANCH  15  16
ENDBRANCH   2  15
TORSDOF 4
ENDMDL
MODEL 4
REMARK VINA RESULT:      -7.2      4.481      6.544
REMARK  4 active torsions:
REMARK  status: ('A' for Active; 'I' for Inactive)
REMARK    1  A    between atoms: C1_2  and  C2_3 
REMARK       I    between atoms: C1_2  and  N2_11 
REMARK    2  A    between atoms: C2_3  and  P1_4 
REMARK    3  A    between atoms: N2_11  and  S1_12 
REMARK    4  A    between atoms: S1_12  and  C7_15 
ROOT
HETATM    1  O1  UNL     1      24.367   3.033  53.218  1.00  0.00    -0.272 OA
HETATM    2  C1  UNL     1      25.005   2.613  52.205  1.00  0.00     0.235 C 
HETATM    3  N2  UNL     1      24.298   2.172  51.052  1.00  0.00    -0.250 N 
HETATM    4  H7  UNL     1      24.808   1.822  50.205  1.00  0.00     0.181 HD
ENDROOT
BRANCH   3   5
HETATM    5  S1  UNL     1      22.579   2.244  51.119  1.00  0.00     0.265 S 
HETATM    6  O2  UNL     1      22.202   3.639  51.535  1.00  0.00    -0.200 OA
HETATM    7  O3  UNL     1      22.076   1.946  49.722  1.00  0.00    -0.200 OA
BRANCH   5   8
HETATM    8  C7  UNL     1      21.980   1.079  52.265  1.00  0.00     0.080 A 
HETATM    9  C8  UNL     1      20.861   1.224  53.054  1.00  0.00     0.028 A 
HETATM   10  C9  UNL     1      20.459   0.241  53.940  1.00  0.00     0.044 A 
HETATM   11  C10 UNL     1      21.184  -0.938  54.058  1.00  0.00     0.116 A 
HETATM   12  F1  UNL     1      20.815  -1.931  54.924  1.00  0.00    -0.206 F 
HETATM   13  C11 UNL     1      22.317  -1.117  53.277  1.00  0.00     0.044 A 
HETATM   14  C12 UNL     1      22.686  -0.114  52.405  1.00  0.00     0.028 A 
ENDBRANCH   5   8
ENDBRANCH   3   5
BRANCH   2  15
HETATM   15  C2  UNL     1      26.487   2.550  52.145  1.00  0.00     0.140 C 
BRANCH  15  16
HETATM   16  P1  UNL     1      27.184   1.681  53.564  1.00  0.00    -0.082 P 
HETATM   17  C3  UNL     1      28.790   1.509  53.455  1.00  0.00     0.008 A 
HETATM   18  C4  UNL     1      29.365   0.172  53.414  1.00  0.00     0.045 A 
HETATM   19  C5  UNL     1      28.698  -0.967  53.458  1.00  0.00     0.125 A 
HETATM   20 CL1  UNL     1      29.412  -2.563  53.407  1.00  0.00    -0.062 Cl
HETATM   21  N1  UNL     1      27.295  -1.007  53.555  1.00  0.00    -0.248 NA
HETATM   22  C6  UNL     1      26.524   0.023  53.608  1.00  0.00     0.120 A 
HETATM   23  H3  UNL     1      26.884   2.329  54.779  1.00  0.00     0.063 HD
ENDBRANCH  15  16
ENDBRANCH   2  15
TORSDOF 4
ENDMDL
MODEL 5
REMARK VINA RESULT:      -7.2      3.821      4.513
REMARK  4 active torsions:
REMARK  status: ('A' for Active; 'I' for Inactive)
REMARK    1  A    between atoms: C1_2  and  C2_3 
REMARK       I    between atoms: C1_2  and  N2_11 
REMARK    2  A    between atoms: C2_3  and  P1_4 
REMARK    3  A    between atoms: N2_11  and  S1_12 
REMARK    4  A    between atoms: S1_12  and  C7_15 
ROOT
HETATM    1  O1  UNL     1      26.448   0.119  51.501  1.00  0.00    -0.272 OA
HETATM    2  C1  UNL     1      26.516   1.176  52.199  1.00  0.00     0.235 C 
HETATM    3  N2  UNL     1      26.186   1.138  53.582  1.00  0.00    -0.250 N 
HETATM    4  H7  UNL     1      26.237   2.001  54.176  1.00  0.00     0.181 HD
ENDROOT
BRANCH   3   5
HETATM    5  S1  UNL     1      25.706  -0.386  54.225  1.00  0.00     0.265 S 
HETATM    6  O2  UNL     1      26.472  -1.449  53.488  1.00  0.00    -0.200 OA
HETATM    7  O3  UNL     1      26.078  -0.376  55.692  1.00  0.00    -0.200 OA
BRANCH   5   8
HETATM    8  C7  UNL     1      23.992  -0.607  54.012  1.00  0.00     0.080 A 
HETATM    9  C8  UNL     1      23.251  -0.179  52.934  1.00  0.00     0.028 A 
HETATM   10  C9  UNL     1      21.889  -0.400  52.849  1.00  0.00     0.044 A 
HETATM   11  C10 UNL     1      21.221  -1.069  53.867  1.00  0.00     0.116 A 
HETATM   12  F1  UNL     1      19.874  -1.304  53.815  1.00  0.00    -0.206 F 
HETATM   13  C11 UNL     1      21.937  -1.514  54.969  1.00  0.00     0.044 A 
HETATM   14  C12 UNL     1      23.295  -1.275  55.016  1.00  0.00     0.028 A 
ENDBRANCH   5   8
ENDBRANCH   3   5
BRANCH   2  15
HETATM   15  C2  UNL     1      26.929   2.491  51.647  1.00  0.00     0.140 C 
BRANCH  15  16
HETATM   16  P1  UNL     1      25.701   3.163  50.510  1.00  0.00    -0.082 P 
HETATM   17  C3  UNL     1      26.270   4.415  49.656  1.00  0.00     0.008 A 
HETATM   18  C4  UNL     1      25.636   5.719  49.789  1.00  0.00     0.045 A 
HETATM   19  C5  UNL     1      24.605   6.012  50.561  1.00  0.00     0.125 A 
HETATM   20 CL1  UNL     1      23.860   7.588  50.705  1.00  0.00    -0.062 Cl
HETATM   21  N1  UNL     1      23.982   5.045  51.373  1.00  0.00    -0.248 NA
HETATM   22  C6  UNL     1      24.332   3.809  51.456  1.00  0.00     0.120 A 
HETATM   23  H3  UNL     1      25.222   2.187  49.613  1.00  0.00     0.063 HD
ENDBRANCH  15  16
ENDBRANCH   2  15
TORSDOF 4
ENDMDL
MODEL 6
REMARK VINA RESULT:      -7.2      2.861      3.433
REMARK  4 active torsions:
REMARK  status: ('A' for Active; 'I' for Inactive)
REMARK    1  A    between atoms: C1_2  and  C2_3 
REMARK       I    between atoms: C1_2  and  N2_11 
REMARK    2  A    between atoms: C2_3  and  P1_4 
REMARK    3  A    between atoms: N2_11  and  S1_12 
REMARK    4  A    between atoms: S1_12  and  C7_15 
ROOT
HETATM    1  O1  UNL     1      25.071   2.032  51.160  1.00  0.00    -0.272 OA
HETATM    2  C1  UNL     1      24.596   2.055  52.336  1.00  0.00     0.235 C 
HETATM    3  N2  UNL     1      25.470   2.043  53.457  1.00  0.00    -0.250 N 
HETATM    4  H7  UNL     1      25.096   2.062  54.437  1.00  0.00     0.181 HD
ENDROOT
BRANCH   3   5
HETATM    5  S1  UNL     1      27.160   1.996  53.125  1.00  0.00     0.265 S 
HETATM    6  O2  UNL     1      27.373   2.633  51.781  1.00  0.00    -0.200 OA
HETATM    7  O3  UNL     1      27.839   2.799  54.214  1.00  0.00    -0.200 OA
BRANCH   5   8
HETATM    8  C7  UNL     1      27.718   0.348  53.119  1.00  0.00     0.080 A 
HETATM    9  C8  UNL     1      28.972  -0.082  53.492  1.00  0.00     0.028 A 
HETATM   10  C9  UNL     1      29.329  -1.417  53.456  1.00  0.00     0.044 A 
HETATM   11  C10 UNL     1      28.418  -2.376  53.033  1.00  0.00     0.116 A 
HETATM   12  F1  UNL     1      28.738  -3.706  52.984  1.00  0.00    -0.206 F 
HETATM   13  C11 UNL     1      27.145  -1.979  52.650  1.00  0.00     0.044 A 
HETATM   14  C12 UNL     1      26.826  -0.638  52.701  1.00  0.00     0.028 A 
ENDBRANCH   5   8
ENDBRANCH   3   5
BRANCH   2  15
HETATM   15  C2  UNL     1      23.140   2.095  52.624  1.00  0.00     0.140 C 
BRANCH  15  16
HETATM   16  P1  UNL     1      22.332   0.528  52.240  1.00  0.00    -0.082 P 
HETATM   17  C3  UNL     1      21.309   0.651  50.991  1.00  0.00     0.008 A 
HETATM   18  C4  UNL     1      19.895   0.371  51.195  1.00  0.00     0.045 A 
HETATM   19  C5  UNL     1      19.325   0.012  52.331  1.00  0.00     0.125 A 
HETATM   20 CL1  UNL     1      17.622  -0.321  52.551  1.00  0.00    -0.062 Cl
HETATM   21  N1  UNL     1      20.063  -0.145  53.519  1.00  0.00    -0.248 NA
HETATM   22  C6  UNL     1      21.332   0.038  53.635  1.00  0.00     0.120 A 
HETATM   23  H3  UNL     1      23.264  -0.491  51.959  1.00  0.00     0.063 HD
ENDBRANCH  15  16
ENDBRANCH   2  15
TORSDOF 4
ENDMDL
MODEL 7
REMARK VINA RESULT:      -7.1      3.724      4.296
REMARK  4 active torsions:
REMARK  status: ('A' for Active; 'I' for Inactive)
REMARK    1  A    between atoms: C1_2  and  C2_3 
REMARK       I    between atoms: C1_2  and  N2_11 
REMARK    2  A    between atoms: C2_3  and  P1_4 
REMARK    3  A    between atoms: N2_11  and  S1_12 
REMARK    4  A    between atoms: S1_12  and  C7_15 
ROOT
HETATM    1  O1  UNL     1      23.247   2.967  51.591  1.00  0.00    -0.272 OA
HETATM    2  C1  UNL     1      23.207   1.705  51.705  1.00  0.00     0.235 C 
HETATM    3  N2  UNL     1      24.353   0.994  52.156  1.00  0.00    -0.250 N 
HETATM    4  H7  UNL     1      24.339  -0.049  52.258  1.00  0.00     0.181 HD
ENDROOT
BRANCH   3   5
HETATM    5  S1  UNL     1      25.752   1.929  52.525  1.00  0.00     0.265 S 
HETATM    6  O2  UNL     1      26.069   2.763  51.315  1.00  0.00    -0.200 OA
HETATM    7  O3  UNL     1      25.390   2.808  53.703  1.00  0.00    -0.200 OA
BRANCH   5   8
HETATM    8  C7  UNL     1      27.084   0.877  52.910  1.00  0.00     0.080 A 
HETATM    9  C8  UNL     1      28.307   1.271  53.406  1.00  0.00     0.028 A 
HETATM   10  C9  UNL     1      29.311   0.362  53.685  1.00  0.00     0.044 A 
HETATM   11  C10 UNL     1      29.108  -0.995  53.469  1.00  0.00     0.116 A 
HETATM   12  F1  UNL     1      30.080  -1.922  53.734  1.00  0.00    -0.206 F 
HETATM   13  C11 UNL     1      27.888  -1.427  52.971  1.00  0.00     0.044 A 
HETATM   14  C12 UNL     1      26.912  -0.490  52.705  1.00  0.00     0.028 A 
ENDBRANCH   5   8
ENDBRANCH   3   5
BRANCH   2  15
HETATM   15  C2  UNL     1      22.002   0.897  51.389  1.00  0.00     0.140 C 
BRANCH  15  16
HETATM   16  P1  UNL     1      20.835   0.855  52.763  1.00  0.00    -0.082 P 
HETATM   17  C3  UNL     1      21.155  -0.338  53.809  1.00  0.00     0.008 A 
HETATM   18  C4  UNL     1      20.162  -1.381  54.030  1.00  0.00     0.045 A 
HETATM   19  C5  UNL     1      18.979  -1.469  53.449  1.00  0.00     0.125 A 
HETATM   20 CL1  UNL     1      17.802  -2.732  53.731  1.00  0.00    -0.062 Cl
HETATM   21  N1  UNL     1      18.534  -0.516  52.513  1.00  0.00    -0.248 NA
HETATM   22  C6  UNL     1      19.204   0.513  52.126  1.00  0.00     0.120 A 
HETATM   23  H3  UNL     1      20.807   2.076  53.469  1.00  0.00     0.063 HD
ENDBRANCH  15  16
ENDBRANCH   2  15
TORSDOF 4
ENDMDL
MODEL 8
REMARK VINA RESULT:      -7.1      7.182      8.206
REMARK  4 active torsions:
REMARK  status: ('A' for Active; 'I' for Inactive)
REMARK    1  A    between atoms: C1_2  and  C2_3 
REMARK       I    between atoms: C1_2  and  N2_11 
REMARK    2  A    between atoms: C2_3  and  P1_4 
REMARK    3  A    between atoms: N2_11  and  S1_12 
REMARK    4  A    between atoms: S1_12  and  C7_15 
ROOT
HETATM    1  O1  UNL     1      31.828   6.972  49.736  1.00  0.00    -0.272 OA
HETATM    2  C1  UNL     1      31.264   7.578  48.776  1.00  0.00     0.235 C 
HETATM    3  N2  UNL     1      31.940   7.730  47.534  1.00  0.00    -0.250 N 
HETATM    4  H7  UNL     1      31.490   8.228  46.729  1.00  0.00     0.181 HD
ENDROOT
BRANCH   3   5
HETATM    5  S1  UNL     1      33.522   7.059  47.424  1.00  0.00     0.265 S 
HETATM    6  O2  UNL     1      34.156   7.599  46.173  1.00  0.00    -0.200 OA
HETATM    7  O3  UNL     1      34.278   7.520  48.652  1.00  0.00    -0.200 OA
BRANCH   5   8
HETATM    8  C7  UNL     1      33.427   5.321  47.362  1.00  0.00     0.080 A 
HETATM    9  C8  UNL     1      34.356   4.443  47.871  1.00  0.00     0.028 A 
HETATM   10  C9  UNL     1      34.196   3.072  47.776  1.00  0.00     0.044 A 
HETATM   11  C10 UNL     1      33.076   2.538  47.153  1.00  0.00     0.116 A 
HETATM   12  F1  UNL     1      32.886   1.187  47.041  1.00  0.00    -0.206 F 
HETATM   13  C11 UNL     1      32.119   3.395  46.628  1.00  0.00     0.044 A 
HETATM   14  C12 UNL     1      32.314   4.755  46.743  1.00  0.00     0.028 A 
ENDBRANCH   5   8
ENDBRANCH   3   5
BRANCH   2  15
HETATM   15  C2  UNL     1      29.900   8.158  48.869  1.00  0.00     0.140 C 
BRANCH  15  16
HETATM   16  P1  UNL     1      28.703   7.231  47.889  1.00  0.00    -0.082 P 
HETATM   17  C3  UNL     1      27.180   7.473  48.382  1.00  0.00     0.008 A 
HETATM   18  C4  UNL     1      26.398   6.346  48.870  1.00  0.00     0.045 A 
HETATM   19  C5  UNL     1      26.805   5.093  48.959  1.00  0.00     0.125 A 
HETATM   20 CL1  UNL     1      25.846   3.754  49.548  1.00  0.00    -0.062 Cl
HETATM   21  N1  UNL     1      28.100   4.700  48.573  1.00  0.00    -0.248 NA
HETATM   22  C6  UNL     1      29.007   5.486  48.106  1.00  0.00     0.120 A 
HETATM   23  H3  UNL     1      28.786   7.546  46.517  1.00  0.00     0.063 HD
ENDBRANCH  15  16
ENDBRANCH   2  15
TORSDOF 4
ENDMDL
MODEL 9
REMARK VINA RESULT:      -7.0      4.136      6.016
REMARK  4 active torsions:
REMARK  status: ('A' for Active; 'I' for Inactive)
REMARK    1  A    between atoms: C1_2  and  C2_3 
REMARK       I    between atoms: C1_2  and  N2_11 
REMARK    2  A    between atoms: C2_3  and  P1_4 
REMARK    3  A    between atoms: N2_11  and  S1_12 
REMARK    4  A    between atoms: S1_12  and  C7_15 
ROOT
HETATM    1  O1  UNL     1      23.856   3.229  52.639  1.00  0.00    -0.272 OA
HETATM    2  C1  UNL     1      24.354   2.866  51.530  1.00  0.00     0.235 C 
HETATM    3  N2  UNL     1      23.522   2.292  50.530  1.00  0.00    -0.250 N 
HETATM    4  H7  UNL     1      23.915   1.986  49.607  1.00  0.00     0.181 HD
ENDROOT
BRANCH   3   5
HETATM    5  S1  UNL     1      21.850   2.127  50.911  1.00  0.00     0.265 S 
HETATM    6  O2  UNL     1      21.337   3.488  51.290  1.00  0.00    -0.200 OA
HETATM    7  O3  UNL     1      21.166   1.625  49.657  1.00  0.00    -0.200 OA
BRANCH   5   8
HETATM    8  C7  UNL     1      21.649   1.007  52.228  1.00  0.00     0.080 A 
HETATM    9  C8  UNL     1      20.869   1.206  53.345  1.00  0.00     0.028 A 
HETATM   10  C9  UNL     1      20.768   0.256  54.346  1.00  0.00     0.044 A 
HETATM   11  C10 UNL     1      21.462  -0.943  54.247  1.00  0.00     0.116 A 
HETATM   12  F1  UNL     1      21.385  -1.904  55.219  1.00  0.00    -0.206 F 
HETATM   13  C11 UNL     1      22.256  -1.177  53.134  1.00  0.00     0.044 A 
HETATM   14  C12 UNL     1      22.331  -0.206  52.158  1.00  0.00     0.028 A 
ENDBRANCH   5   8
ENDBRANCH   3   5
BRANCH   2  15
HETATM   15  C2  UNL     1      25.795   3.007  51.200  1.00  0.00     0.140 C 
BRANCH  15  16
HETATM   16  P1  UNL     1      26.806   1.780  52.051  1.00  0.00    -0.082 P 
HETATM   17  C3  UNL     1      26.198   0.285  51.926  1.00  0.00     0.008 A 
HETATM   18  C4  UNL     1      25.804  -0.430  53.132  1.00  0.00     0.045 A 
HETATM   19  C5  UNL     1      25.890   0.021  54.370  1.00  0.00     0.125 A 
HETATM   20 CL1  UNL     1      25.410  -0.857  55.805  1.00  0.00    -0.062 Cl
HETATM   21  N1  UNL     1      26.397   1.300  54.666  1.00  0.00    -0.248 NA
HETATM   22  C6  UNL     1      26.819   2.151  53.796  1.00  0.00     0.120 A 
HETATM   23  H3  UNL     1      28.132   1.766  51.572  1.00  0.00     0.063 HD
ENDBRANCH  15  16
ENDBRANCH   2  15
TORSDOF 4
ENDMDL
