MODEL 1
REMARK VINA RESULT:      -7.9      0.000      0.000
REMARK  8 active torsions:
REMARK  status: ('A' for Active; 'I' for Inactive)
REMARK    1  A    between atoms: C2_2  and  C3_3 
REMARK    2  A    between atoms: C4_4  and  C5_5 
REMARK    3  A    between atoms: C6_6  and  C7_7 
REMARK    4  A    between atoms: C7_7  and  C8_8 
REMARK    5  A    between atoms: C8_8  and  O1_9 
REMARK    6  A    between atoms: O1_9  and  C9_10 
REMARK    7  A    between atoms: C12_13  and  C13_14 
REMARK    8  A    between atoms: C18_20  and  N2_21 
ROOT
HETATM    1  C9  UNL     1      24.640   4.148  50.344  1.00  0.00     0.090 A 
HETATM    2  C10 UNL     1      25.712   3.501  49.796  1.00  0.00     0.039 A 
HETATM    3  C11 UNL     1      26.507   2.579  50.461  1.00  0.00     0.015 A 
HETATM    4  C12 UNL     1      26.117   2.356  51.769  1.00  0.00    -0.021 A 
HETATM    5  C21 UNL     1      25.032   2.993  52.366  1.00  0.00     0.039 A 
HETATM    6  C22 UNL     1      24.272   3.909  51.645  1.00  0.00     0.068 A 
HETATM    7 CL1  UNL     1      22.915   4.697  52.415  1.00  0.00    -0.081 Cl
ENDROOT
BRANCH   4   8
HETATM    8  C13 UNL     1      26.835   1.439  52.577  1.00  0.00     0.008 C 
HETATM    9  C14 UNL     1      26.355   0.156  52.682  1.00  0.00    -0.039 C 
HETATM   10  C15 UNL     1      27.050  -1.183  52.747  1.00  0.00     0.064 C 
HETATM   11  C20 UNL     1      24.839   0.144  52.836  1.00  0.00     0.066 C 
HETATM   12  C16 UNL     1      26.963  -0.842  54.085  1.00  0.00     0.142 C 
HETATM   13  N1  UNL     1      27.978  -0.115  54.895  1.00  0.00    -0.345 N 
HETATM   14  O2  UNL     1      25.724  -1.264  54.685  1.00  0.00    -0.335 OA
HETATM   15  C17 UNL     1      28.669   1.091  54.360  1.00  0.00     0.120 C 
HETATM   16  H15 UNL     1      28.058  -0.580  55.810  1.00  0.00     0.167 HD
HETATM   17  C18 UNL     1      28.089   1.806  53.337  1.00  0.00     0.053 C 
HETATM   18  C19 UNL     1      24.495  -0.834  53.993  1.00  0.00     0.182 C 
BRANCH  17  19
HETATM   19  N2  UNL     1      28.737   2.980  52.997  1.00  0.00    -0.397 N 
HETATM   20  H17 UNL     1      29.784   2.831  53.004  1.00  0.00     0.156 HD
HETATM   21  H18 UNL     1      29.208   3.836  52.749  1.00  0.00     0.156 HD
ENDBRANCH  17  19
ENDBRANCH   4   8
BRANCH   1  22
HETATM   22  O1  UNL     1      23.862   5.066  49.651  1.00  0.00    -0.349 OA
BRANCH  22  23
HETATM   23  C8  UNL     1      23.157   4.642  48.485  1.00  0.00     0.179 C 
BRANCH  23  24
HETATM   24  C7  UNL     1      21.768   4.137  48.861  1.00  0.00     0.054 C 
BRANCH  24  25
HETATM   25  C6  UNL     1      21.762   2.632  48.798  1.00  0.00    -0.025 C 
HETATM   26  C5  UNL     1      21.711   1.951  49.925  1.00  0.00    -0.004 C 
BRANCH  26  27
HETATM   27  C4  UNL     1      21.668   0.796  50.769  1.00  0.00    -0.000 C 
HETATM   28  C3  UNL     1      21.480   0.156  51.896  1.00  0.00    -0.001 C 
BRANCH  28  29
HETATM   29  C2  UNL     1      21.075   0.930  53.079  1.00  0.00    -0.010 C 
HETATM   30  C1  UNL     1      20.873   0.267  54.223  1.00  0.00     0.011 C 
ENDBRANCH  28  29
ENDBRANCH  26  27
ENDBRANCH  24  25
ENDBRANCH  23  24
ENDBRANCH  22  23
ENDBRANCH   1  22
TORSDOF 8
ENDMDL
MODEL 2
REMARK VINA RESULT:      -7.8      1.959      4.153
REMARK  8 active torsions:
REMARK  status: ('A' for Active; 'I' for Inactive)
REMARK    1  A    between atoms: C2_2  and  C3_3 
REMARK    2  A    between atoms: C4_4  and  C5_5 
REMARK    3  A    between atoms: C6_6  and  C7_7 
REMARK    4  A    between atoms: C7_7  and  C8_8 
REMARK    5  A    between atoms: C8_8  and  O1_9 
REMARK    6  A    between atoms: O1_9  and  C9_10 
REMARK    7  A    between atoms: C12_13  and  C13_14 
REMARK    8  A    between atoms: C18_20  and  N2_21 
ROOT
HETATM    1  C9  UNL     1      22.633   3.730  51.107  1.00  0.00     0.090 A 
HETATM    2  C10 UNL     1      23.151   3.981  52.346  1.00  0.00     0.039 A 
HETATM    3  C11 UNL     1      24.137   3.224  52.963  1.00  0.00     0.015 A 
HETATM    4  C12 UNL     1      24.571   2.156  52.197  1.00  0.00    -0.021 A 
HETATM    5  C21 UNL     1      24.069   1.864  50.932  1.00  0.00     0.039 A 
HETATM    6  C22 UNL     1      23.080   2.663  50.368  1.00  0.00     0.068 A 
HETATM    7 CL1  UNL     1      22.465   2.278  48.778  1.00  0.00    -0.081 Cl
ENDROOT
BRANCH   4   8
HETATM    8  C13 UNL     1      25.576   1.289  52.695  1.00  0.00     0.008 C 
HETATM    9  C14 UNL     1      25.220   0.002  53.015  1.00  0.00    -0.039 C 
HETATM   10  C15 UNL     1      25.935  -1.318  52.849  1.00  0.00     0.064 C 
HETATM   11  C20 UNL     1      23.879  -0.037  53.739  1.00  0.00     0.066 C 
HETATM   12  C16 UNL     1      26.354  -0.924  54.107  1.00  0.00     0.142 C 
HETATM   13  N1  UNL     1      27.574  -0.141  54.444  1.00  0.00    -0.345 N 
HETATM   14  O2  UNL     1      25.455  -1.347  55.149  1.00  0.00    -0.335 OA
HETATM   15  C17 UNL     1      27.964   1.056  53.649  1.00  0.00     0.120 C 
HETATM   16  H15 UNL     1      28.015  -0.565  55.272  1.00  0.00     0.167 HD
HETATM   17  C18 UNL     1      27.011   1.715  52.904  1.00  0.00     0.053 C 
HETATM   18  C19 UNL     1      24.040  -0.973  54.969  1.00  0.00     0.182 C 
BRANCH  17  19
HETATM   19  N2  UNL     1      27.437   2.887  52.307  1.00  0.00    -0.397 N 
HETATM   20  H17 UNL     1      27.709   3.593  53.046  1.00  0.00     0.156 HD
HETATM   21  H18 UNL     1      27.748   3.741  51.870  1.00  0.00     0.156 HD
ENDBRANCH  17  19
ENDBRANCH   4   8
BRANCH   1  22
HETATM   22  O1  UNL     1      21.645   4.508  50.517  1.00  0.00    -0.349 OA
BRANCH  22  23
HETATM   23  C8  UNL     1      21.925   5.874  50.212  1.00  0.00     0.179 C 
BRANCH  23  24
HETATM   24  C7  UNL     1      22.492   5.995  48.801  1.00  0.00     0.054 C 
BRANCH  24  25
HETATM   25  C6  UNL     1      23.961   6.316  48.891  1.00  0.00    -0.025 C 
HETATM   26  C5  UNL     1      24.822   5.321  48.968  1.00  0.00    -0.004 C 
BRANCH  26  27
HETATM   27  C4  UNL     1      26.102   4.687  49.065  1.00  0.00    -0.000 C 
HETATM   28  C3  UNL     1      27.399   4.603  48.911  1.00  0.00    -0.001 C 
BRANCH  28  29
HETATM   29  C2  UNL     1      28.104   5.738  48.296  1.00  0.00    -0.010 C 
HETATM   30  C1  UNL     1      29.441   5.697  48.252  1.00  0.00     0.011 C 
ENDBRANCH  28  29
ENDBRANCH  26  27
ENDBRANCH  24  25
ENDBRANCH  23  24
ENDBRANCH  22  23
ENDBRANCH   1  22
TORSDOF 8
ENDMDL
MODEL 3
REMARK VINA RESULT:      -7.5      2.212      4.591
REMARK  8 active torsions:
REMARK  status: ('A' for Active; 'I' for Inactive)
REMARK    1  A    between atoms: C2_2  and  C3_3 
REMARK    2  A    between atoms: C4_4  and  C5_5 
REMARK    3  A    between atoms: C6_6  and  C7_7 
REMARK    4  A    between atoms: C7_7  and  C8_8 
REMARK    5  A    between atoms: C8_8  and  O1_9 
REMARK    6  A    between atoms: O1_9  and  C9_10 
REMARK    7  A    between atoms: C12_13  and  C13_14 
REMARK    8  A    between atoms: C18_20  and  N2_21 
ROOT
HETATM    1  C9  UNL     1      20.829   1.910  50.648  1.00  0.00     0.090 A 
HETATM    2  C10 UNL     1      21.137   0.578  50.657  1.00  0.00     0.039 A 
HETATM    3  C11 UNL     1      21.992  -0.033  51.563  1.00  0.00     0.015 A 
HETATM    4  C12 UNL     1      22.527   0.842  52.492  1.00  0.00    -0.021 A 
HETATM    5  C21 UNL     1      22.240   2.204  52.519  1.00  0.00     0.039 A 
HETATM    6  C22 UNL     1      21.374   2.757  51.581  1.00  0.00     0.068 A 
HETATM    7 CL1  UNL     1      21.028   4.469  51.632  1.00  0.00    -0.081 Cl
ENDROOT
BRANCH   4   8
HETATM    8  C13 UNL     1      23.420   0.364  53.484  1.00  0.00     0.008 C 
HETATM    9  C14 UNL     1      24.738   0.740  53.402  1.00  0.00    -0.039 C 
HETATM   10  C15 UNL     1      25.754   1.104  54.458  1.00  0.00     0.064 C 
HETATM   11  C20 UNL     1      25.240   0.688  51.964  1.00  0.00     0.066 C 
HETATM   12  C16 UNL     1      25.943  -0.261  54.341  1.00  0.00     0.142 C 
HETATM   13  N1  UNL     1      25.285  -1.331  55.140  1.00  0.00    -0.345 N 
HETATM   14  O2  UNL     1      26.886  -0.604  53.309  1.00  0.00    -0.335 OA
HETATM   15  C17 UNL     1      23.824  -1.290  55.425  1.00  0.00     0.120 C 
HETATM   16  H15 UNL     1      25.996  -2.030  55.396  1.00  0.00     0.167 HD
HETATM   17  C18 UNL     1      22.996  -0.547  54.613  1.00  0.00     0.053 C 
HETATM   18  C19 UNL     1      26.615  -0.035  51.976  1.00  0.00     0.182 C 
BRANCH  17  19
HETATM   19  N2  UNL     1      21.645  -0.676  54.876  1.00  0.00    -0.397 N 
HETATM   20  H17 UNL     1      21.090  -0.030  54.248  1.00  0.00     0.156 HD
HETATM   21  H18 UNL     1      20.659  -0.771  55.068  1.00  0.00     0.156 HD
ENDBRANCH  17  19
ENDBRANCH   4   8
BRANCH   1  22
HETATM   22  O1  UNL     1      19.969   2.491  49.726  1.00  0.00    -0.349 OA
BRANCH  22  23
HETATM   23  C8  UNL     1      20.329   2.495  48.344  1.00  0.00     0.179 C 
BRANCH  23  24
HETATM   24  C7  UNL     1      21.409   3.540  48.082  1.00  0.00     0.054 C 
BRANCH  24  25
HETATM   25  C6  UNL     1      22.754   2.863  48.086  1.00  0.00    -0.025 C 
HETATM   26  C5  UNL     1      23.684   3.307  48.907  1.00  0.00    -0.004 C 
BRANCH  26  27
HETATM   27  C4  UNL     1      24.964   3.366  49.544  1.00  0.00    -0.000 C 
HETATM   28  C3  UNL     1      26.160   3.854  49.762  1.00  0.00    -0.001 C 
BRANCH  28  29
HETATM   29  C2  UNL     1      26.592   5.020  48.976  1.00  0.00    -0.010 C 
HETATM   30  C1  UNL     1      27.860   5.053  48.550  1.00  0.00     0.011 C 
ENDBRANCH  28  29
ENDBRANCH  26  27
ENDBRANCH  24  25
ENDBRANCH  23  24
ENDBRANCH  22  23
ENDBRANCH   1  22
TORSDOF 8
ENDMDL
MODEL 4
REMARK VINA RESULT:      -7.5      1.610      2.122
REMARK  8 active torsions:
REMARK  status: ('A' for Active; 'I' for Inactive)
REMARK    1  A    between atoms: C2_2  and  C3_3 
REMARK    2  A    between atoms: C4_4  and  C5_5 
REMARK    3  A    between atoms: C6_6  and  C7_7 
REMARK    4  A    between atoms: C7_7  and  C8_8 
REMARK    5  A    between atoms: C8_8  and  O1_9 
REMARK    6  A    between atoms: O1_9  and  C9_10 
REMARK    7  A    between atoms: C12_13  and  C13_14 
REMARK    8  A    between atoms: C18_20  and  N2_21 
ROOT
HETATM    1  C9  UNL     1      23.573   4.506  51.356  1.00  0.00     0.090 A 
HETATM    2  C10 UNL     1      23.664   4.333  52.709  1.00  0.00     0.039 A 
HETATM    3  C11 UNL     1      24.439   3.367  53.334  1.00  0.00     0.015 A 
HETATM    4  C12 UNL     1      25.138   2.564  52.451  1.00  0.00    -0.021 A 
HETATM    5  C21 UNL     1      25.074   2.706  51.067  1.00  0.00     0.039 A 
HETATM    6  C22 UNL     1      24.277   3.696  50.501  1.00  0.00     0.068 A 
HETATM    7 CL1  UNL     1      24.211   3.857  48.761  1.00  0.00    -0.081 Cl
ENDROOT
BRANCH   4   8
HETATM    8  C13 UNL     1      25.974   1.529  52.942  1.00  0.00     0.008 C 
HETATM    9  C14 UNL     1      25.466   0.254  52.985  1.00  0.00    -0.039 C 
HETATM   10  C15 UNL     1      26.090  -1.094  52.711  1.00  0.00     0.064 C 
HETATM   11  C20 UNL     1      24.025   0.248  53.482  1.00  0.00     0.066 C 
HETATM   12  C16 UNL     1      26.325  -0.943  54.065  1.00  0.00     0.142 C 
HETATM   13  N1  UNL     1      27.532  -0.355  54.708  1.00  0.00    -0.345 N 
HETATM   14  O2  UNL     1      25.235  -1.421  54.875  1.00  0.00    -0.335 OA
HETATM   15  C17 UNL     1      28.144   0.901  54.192  1.00  0.00     0.120 C 
HETATM   16  H15 UNL     1      27.794  -0.945  55.510  1.00  0.00     0.167 HD
HETATM   17  C18 UNL     1      27.384   1.763  53.433  1.00  0.00     0.053 C 
HETATM   18  C19 UNL     1      23.904  -0.875  54.549  1.00  0.00     0.182 C 
BRANCH  17  19
HETATM   19  N2  UNL     1      27.997   2.960  53.111  1.00  0.00    -0.397 N 
HETATM   20  H17 UNL     1      27.270   3.719  52.991  1.00  0.00     0.156 HD
HETATM   21  H18 UNL     1      28.445   3.832  52.877  1.00  0.00     0.156 HD
ENDBRANCH  17  19
ENDBRANCH   4   8
BRANCH   1  22
HETATM   22  O1  UNL     1      22.788   5.484  50.760  1.00  0.00    -0.349 OA
BRANCH  22  23
HETATM   23  C8  UNL     1      21.395   5.540  51.066  1.00  0.00     0.179 C 
BRANCH  23  24
HETATM   24  C7  UNL     1      20.703   4.255  50.622  1.00  0.00     0.054 C 
BRANCH  24  25
HETATM   25  C6  UNL     1      19.965   3.667  51.795  1.00  0.00    -0.025 C 
HETATM   26  C5  UNL     1      20.465   2.601  52.388  1.00  0.00    -0.004 C 
BRANCH  26  27
HETATM   27  C4  UNL     1      20.544   1.533  53.337  1.00  0.00    -0.000 C 
HETATM   28  C3  UNL     1      20.368   0.306  53.760  1.00  0.00    -0.001 C 
BRANCH  28  29
HETATM   29  C2  UNL     1      19.732  -0.662  52.852  1.00  0.00    -0.010 C 
HETATM   30  C1  UNL     1      18.465  -0.439  52.488  1.00  0.00     0.011 C 
ENDBRANCH  28  29
ENDBRANCH  26  27
ENDBRANCH  24  25
ENDBRANCH  23  24
ENDBRANCH  22  23
ENDBRANCH   1  22
TORSDOF 8
ENDMDL
MODEL 5
REMARK VINA RESULT:      -7.5      2.635      5.103
REMARK  8 active torsions:
REMARK  status: ('A' for Active; 'I' for Inactive)
REMARK    1  A    between atoms: C2_2  and  C3_3 
REMARK    2  A    between atoms: C4_4  and  C5_5 
REMARK    3  A    between atoms: C6_6  and  C7_7 
REMARK    4  A    between atoms: C7_7  and  C8_8 
REMARK    5  A    between atoms: C8_8  and  O1_9 
REMARK    6  A    between atoms: O1_9  and  C9_10 
REMARK    7  A    between atoms: C12_13  and  C13_14 
REMARK    8  A    between atoms: C18_20  and  N2_21 
ROOT
HETATM    1  C9  UNL     1      24.638   4.245  50.287  1.00  0.00     0.090 A 
HETATM    2  C10 UNL     1      25.673   3.533  49.748  1.00  0.00     0.039 A 
HETATM    3  C11 UNL     1      26.415   2.575  50.425  1.00  0.00     0.015 A 
HETATM    4  C12 UNL     1      26.012   2.391  51.735  1.00  0.00    -0.021 A 
HETATM    5  C21 UNL     1      24.964   3.095  52.323  1.00  0.00     0.039 A 
HETATM    6  C22 UNL     1      24.258   4.043  51.590  1.00  0.00     0.068 A 
HETATM    7 CL1  UNL     1      22.947   4.915  52.348  1.00  0.00    -0.081 Cl
ENDROOT
BRANCH   4   8
HETATM    8  C13 UNL     1      26.677   1.444  52.555  1.00  0.00     0.008 C 
HETATM    9  C14 UNL     1      26.134   0.188  52.662  1.00  0.00    -0.039 C 
HETATM   10  C15 UNL     1      26.763  -1.183  52.742  1.00  0.00     0.064 C 
HETATM   11  C20 UNL     1      24.618   0.250  52.802  1.00  0.00     0.066 C 
HETATM   12  C16 UNL     1      26.680  -0.831  54.077  1.00  0.00     0.142 C 
HETATM   13  N1  UNL     1      27.721  -0.148  54.893  1.00  0.00    -0.345 N 
HETATM   14  O2  UNL     1      25.416  -1.188  54.668  1.00  0.00    -0.335 OA
HETATM   15  C17 UNL     1      28.475   1.019  54.358  1.00  0.00     0.120 C 
HETATM   16  H15 UNL     1      27.770  -0.611  55.811  1.00  0.00     0.167 HD
HETATM   17  C18 UNL     1      27.940   1.755  53.325  1.00  0.00     0.053 C 
HETATM   18  C19 UNL     1      24.216  -0.703  53.961  1.00  0.00     0.182 C 
BRANCH  17  19
HETATM   19  N2  UNL     1      28.648   2.894  52.985  1.00  0.00    -0.397 N 
HETATM   20  H17 UNL     1      29.389   3.091  53.713  1.00  0.00     0.156 HD
HETATM   21  H18 UNL     1      29.163   3.724  52.736  1.00  0.00     0.156 HD
ENDBRANCH  17  19
ENDBRANCH   4   8
BRANCH   1  22
HETATM   22  O1  UNL     1      23.915   5.197  49.581  1.00  0.00    -0.349 OA
BRANCH  22  23
HETATM   23  C8  UNL     1      24.394   6.541  49.533  1.00  0.00     0.179 C 
BRANCH  23  24
HETATM   24  C7  UNL     1      25.290   6.739  48.314  1.00  0.00     0.054 C 
BRANCH  24  25
HETATM   25  C6  UNL     1      26.705   6.961  48.779  1.00  0.00    -0.025 C 
HETATM   26  C5  UNL     1      27.645   6.135  48.364  1.00  0.00    -0.004 C 
BRANCH  26  27
HETATM   27  C4  UNL     1      28.962   5.591  48.237  1.00  0.00    -0.000 C 
HETATM   28  C3  UNL     1      30.223   5.605  47.883  1.00  0.00    -0.001 C 
BRANCH  28  29
HETATM   29  C2  UNL     1      30.748   6.806  47.217  1.00  0.00    -0.010 C 
HETATM   30  C1  UNL     1      31.733   7.479  47.823  1.00  0.00     0.011 C 
ENDBRANCH  28  29
ENDBRANCH  26  27
ENDBRANCH  24  25
ENDBRANCH  23  24
ENDBRANCH  22  23
ENDBRANCH   1  22
TORSDOF 8
ENDMDL
MODEL 6
REMARK VINA RESULT:      -7.3      3.165      6.334
REMARK  8 active torsions:
REMARK  status: ('A' for Active; 'I' for Inactive)
REMARK    1  A    between atoms: C2_2  and  C3_3 
REMARK    2  A    between atoms: C4_4  and  C5_5 
REMARK    3  A    between atoms: C6_6  and  C7_7 
REMARK    4  A    between atoms: C7_7  and  C8_8 
REMARK    5  A    between atoms: C8_8  and  O1_9 
REMARK    6  A    between atoms: O1_9  and  C9_10 
REMARK    7  A    between atoms: C12_13  and  C13_14 
REMARK    8  A    between atoms: C18_20  and  N2_21 
ROOT
HETATM    1  C9  UNL     1      26.138   2.718  51.923  1.00  0.00     0.090 A 
HETATM    2  C10 UNL     1      25.216   2.595  52.925  1.00  0.00     0.039 A 
HETATM    3  C11 UNL     1      23.865   2.881  52.799  1.00  0.00     0.015 A 
HETATM    4  C12 UNL     1      23.509   3.317  51.535  1.00  0.00    -0.021 A 
HETATM    5  C21 UNL     1      24.416   3.457  50.487  1.00  0.00     0.039 A 
HETATM    6  C22 UNL     1      25.759   3.153  50.677  1.00  0.00     0.068 A 
HETATM    7 CL1  UNL     1      26.880   3.336  49.348  1.00  0.00    -0.081 Cl
ENDROOT
BRANCH   4   8
HETATM    8  C13 UNL     1      22.160   3.650  51.253  1.00  0.00     0.008 C 
HETATM    9  C14 UNL     1      21.269   2.624  51.055  1.00  0.00    -0.039 C 
HETATM   10  C15 UNL     1      19.823   2.448  51.453  1.00  0.00     0.064 C 
HETATM   11  C20 UNL     1      21.880   1.517  50.204  1.00  0.00     0.066 C 
HETATM   12  C16 UNL     1      19.705   3.039  50.207  1.00  0.00     0.142 C 
HETATM   13  N1  UNL     1      19.595   4.493  49.909  1.00  0.00    -0.345 N 
HETATM   14  O2  UNL     1      19.706   2.078  49.135  1.00  0.00    -0.335 OA
HETATM   15  C17 UNL     1      20.470   5.486  50.591  1.00  0.00     0.120 C 
HETATM   16  H15 UNL     1      18.871   4.624  49.189  1.00  0.00     0.167 HD
HETATM   17  C18 UNL     1      21.660   5.073  51.146  1.00  0.00     0.053 C 
HETATM   18  C19 UNL     1      20.837   1.132  49.120  1.00  0.00     0.182 C 
BRANCH  17  19
HETATM   19  N2  UNL     1      22.463   6.085  51.639  1.00  0.00    -0.397 N 
HETATM   20  H17 UNL     1      22.898   5.788  52.557  1.00  0.00     0.156 HD
HETATM   21  H18 UNL     1      23.048   6.824  51.998  1.00  0.00     0.156 HD
ENDBRANCH  17  19
ENDBRANCH   4   8
BRANCH   1  22
HETATM   22  O1  UNL     1      27.486   2.422  52.081  1.00  0.00    -0.349 OA
BRANCH  22  23
HETATM   23  C8  UNL     1      27.972   2.059  53.373  1.00  0.00     0.179 C 
BRANCH  23  24
HETATM   24  C7  UNL     1      28.827   0.799  53.282  1.00  0.00     0.054 C 
BRANCH  24  25
HETATM   25  C6  UNL     1      27.948  -0.404  53.500  1.00  0.00    -0.025 C 
HETATM   26  C5  UNL     1      26.768  -0.234  54.062  1.00  0.00    -0.004 C 
BRANCH  26  27
HETATM   27  C4  UNL     1      25.489  -0.604  54.586  1.00  0.00    -0.000 C 
HETATM   28  C3  UNL     1      24.200  -0.825  54.524  1.00  0.00    -0.001 C 
BRANCH  28  29
HETATM   29  C2  UNL     1      23.516  -0.614  53.239  1.00  0.00    -0.010 C 
HETATM   30  C1  UNL     1      22.186  -0.752  53.207  1.00  0.00     0.011 C 
ENDBRANCH  28  29
ENDBRANCH  26  27
ENDBRANCH  24  25
ENDBRANCH  23  24
ENDBRANCH  22  23
ENDBRANCH   1  22
TORSDOF 8
ENDMDL
MODEL 7
REMARK VINA RESULT:      -7.3      3.713      6.558
REMARK  8 active torsions:
REMARK  status: ('A' for Active; 'I' for Inactive)
REMARK    1  A    between atoms: C2_2  and  C3_3 
REMARK    2  A    between atoms: C4_4  and  C5_5 
REMARK    3  A    between atoms: C6_6  and  C7_7 
REMARK    4  A    between atoms: C7_7  and  C8_8 
REMARK    5  A    between atoms: C8_8  and  O1_9 
REMARK    6  A    between atoms: O1_9  and  C9_10 
REMARK    7  A    between atoms: C12_13  and  C13_14 
REMARK    8  A    between atoms: C18_20  and  N2_21 
ROOT
HETATM    1  C9  UNL     1      23.999   3.777  49.341  1.00  0.00     0.090 A 
HETATM    2  C10 UNL     1      23.671   4.868  48.586  1.00  0.00     0.039 A 
HETATM    3  C11 UNL     1      24.456   6.004  48.450  1.00  0.00     0.015 A 
HETATM    4  C12 UNL     1      25.640   5.944  49.164  1.00  0.00    -0.021 A 
HETATM    5  C21 UNL     1      26.013   4.853  49.944  1.00  0.00     0.039 A 
HETATM    6  C22 UNL     1      25.180   3.742  50.039  1.00  0.00     0.068 A 
HETATM    7 CL1  UNL     1      25.668   2.384  51.025  1.00  0.00    -0.081 Cl
ENDROOT
BRANCH   4   8
HETATM    8  C13 UNL     1      26.547   7.033  49.124  1.00  0.00     0.008 C 
HETATM    9  C14 UNL     1      27.597   6.967  48.241  1.00  0.00    -0.039 C 
HETATM   10  C15 UNL     1      28.265   8.015  47.382  1.00  0.00     0.064 C 
HETATM   11  C20 UNL     1      28.217   5.575  48.221  1.00  0.00     0.066 C 
HETATM   12  C16 UNL     1      29.007   8.088  48.548  1.00  0.00     0.142 C 
HETATM   13  N1  UNL     1      28.769   8.986  49.711  1.00  0.00    -0.345 N 
HETATM   14  O2  UNL     1      30.104   7.157  48.566  1.00  0.00    -0.335 OA
HETATM   15  C17 UNL     1      27.398   9.192  50.256  1.00  0.00     0.120 C 
HETATM   16  H15 UNL     1      29.674   9.367  50.019  1.00  0.00     0.167 HD
HETATM   17  C18 UNL     1      26.424   8.250  50.012  1.00  0.00     0.053 C 
HETATM   18  C19 UNL     1      29.758   5.749  48.297  1.00  0.00     0.182 C 
BRANCH  17  19
HETATM   19  N2  UNL     1      25.224   8.460  50.667  1.00  0.00    -0.397 N 
HETATM   20  H17 UNL     1      24.556   7.666  50.464  1.00  0.00     0.156 HD
HETATM   21  H18 UNL     1      24.350   8.615  51.146  1.00  0.00     0.156 HD
ENDBRANCH  17  19
ENDBRANCH   4   8
BRANCH   1  22
HETATM   22  O1  UNL     1      23.191   2.653  49.456  1.00  0.00    -0.349 OA
BRANCH  22  23
HETATM   23  C8  UNL     1      21.902   2.782  50.056  1.00  0.00     0.179 C 
BRANCH  23  24
HETATM   24  C7  UNL     1      22.001   2.593  51.567  1.00  0.00     0.054 C 
BRANCH  24  25
HETATM   25  C6  UNL     1      22.203   1.131  51.864  1.00  0.00    -0.025 C 
HETATM   26  C5  UNL     1      23.183   0.778  52.671  1.00  0.00    -0.004 C 
BRANCH  26  27
HETATM   27  C4  UNL     1      24.025  -0.105  53.420  1.00  0.00    -0.000 C 
HETATM   28  C3  UNL     1      25.126  -0.768  53.668  1.00  0.00    -0.001 C 
BRANCH  28  29
HETATM   29  C2  UNL     1      26.247  -0.639  52.724  1.00  0.00    -0.010 C 
HETATM   30  C1  UNL     1      27.247  -1.523  52.814  1.00  0.00     0.011 C 
ENDBRANCH  28  29
ENDBRANCH  26  27
ENDBRANCH  24  25
ENDBRANCH  23  24
ENDBRANCH  22  23
ENDBRANCH   1  22
TORSDOF 8
ENDMDL
MODEL 8
REMARK VINA RESULT:      -7.2      2.017      2.739
REMARK  8 active torsions:
REMARK  status: ('A' for Active; 'I' for Inactive)
REMARK    1  A    between atoms: C2_2  and  C3_3 
REMARK    2  A    between atoms: C4_4  and  C5_5 
REMARK    3  A    between atoms: C6_6  and  C7_7 
REMARK    4  A    between atoms: C7_7  and  C8_8 
REMARK    5  A    between atoms: C8_8  and  O1_9 
REMARK    6  A    between atoms: O1_9  and  C9_10 
REMARK    7  A    between atoms: C12_13  and  C13_14 
REMARK    8  A    between atoms: C18_20  and  N2_21 
ROOT
HETATM    1  C9  UNL     1      21.550   2.611  51.184  1.00  0.00     0.090 A 
HETATM    2  C10 UNL     1      21.979   1.364  50.826  1.00  0.00     0.039 A 
HETATM    3  C11 UNL     1      23.216   0.827  51.150  1.00  0.00     0.015 A 
HETATM    4  C12 UNL     1      24.012   1.683  51.890  1.00  0.00    -0.021 A 
HETATM    5  C21 UNL     1      23.614   2.961  52.276  1.00  0.00     0.039 A 
HETATM    6  C22 UNL     1      22.359   3.441  51.919  1.00  0.00     0.068 A 
HETATM    7 CL1  UNL     1      21.881   5.048  52.413  1.00  0.00    -0.081 Cl
ENDROOT
BRANCH   4   8
HETATM    8  C13 UNL     1      25.308   1.274  52.296  1.00  0.00     0.008 C 
HETATM    9  C14 UNL     1      25.444   0.032  52.866  1.00  0.00    -0.039 C 
HETATM   10  C15 UNL     1      26.522  -1.020  52.754  1.00  0.00     0.064 C 
HETATM   11  C20 UNL     1      24.312  -0.255  53.844  1.00  0.00     0.066 C 
HETATM   12  C16 UNL     1      26.966  -0.272  53.830  1.00  0.00     0.142 C 
HETATM   13  N1  UNL     1      27.896   0.889  53.794  1.00  0.00    -0.345 N 
HETATM   14  O2  UNL     1      26.417  -0.722  55.082  1.00  0.00    -0.335 OA
HETATM   15  C17 UNL     1      27.751   1.960  52.770  1.00  0.00     0.120 C 
HETATM   16  H15 UNL     1      28.568   0.792  54.568  1.00  0.00     0.167 HD
HETATM   17  C18 UNL     1      26.537   2.140  52.145  1.00  0.00     0.053 C 
HETATM   18  C19 UNL     1      24.948  -0.831  55.139  1.00  0.00     0.182 C 
BRANCH  17  19
HETATM   19  N2  UNL     1      26.462   3.239  51.309  1.00  0.00    -0.397 N 
HETATM   20  H17 UNL     1      26.030   2.963  50.385  1.00  0.00     0.156 HD
HETATM   21  H18 UNL     1      26.408   4.041  50.701  1.00  0.00     0.156 HD
ENDBRANCH  17  19
ENDBRANCH   4   8
BRANCH   1  22
HETATM   22  O1  UNL     1      20.303   3.119  50.844  1.00  0.00    -0.349 OA
BRANCH  22  23
HETATM   23  C8  UNL     1      19.609   2.570  49.724  1.00  0.00     0.179 C 
BRANCH  23  24
HETATM   24  C7  UNL     1      18.115   2.480  50.021  1.00  0.00     0.054 C 
BRANCH  24  25
HETATM   25  C6  UNL     1      17.769   1.053  50.355  1.00  0.00    -0.025 C 
HETATM   26  C5  UNL     1      18.256   0.525  51.459  1.00  0.00    -0.004 C 
BRANCH  26  27
HETATM   27  C4  UNL     1      18.488  -0.479  52.453  1.00  0.00    -0.000 C 
HETATM   28  C3  UNL     1      19.194  -1.120  53.350  1.00  0.00    -0.001 C 
BRANCH  28  29
HETATM   29  C2  UNL     1      20.572  -0.674  53.603  1.00  0.00    -0.010 C 
HETATM   30  C1  UNL     1      20.747   0.459  54.293  1.00  0.00     0.011 C 
ENDBRANCH  28  29
ENDBRANCH  26  27
ENDBRANCH  24  25
ENDBRANCH  23  24
ENDBRANCH  22  23
ENDBRANCH   1  22
TORSDOF 8
ENDMDL
MODEL 9
REMARK VINA RESULT:      -7.1      2.920      5.953
REMARK  8 active torsions:
REMARK  status: ('A' for Active; 'I' for Inactive)
REMARK    1  A    between atoms: C2_2  and  C3_3 
REMARK    2  A    between atoms: C4_4  and  C5_5 
REMARK    3  A    between atoms: C6_6  and  C7_7 
REMARK    4  A    between atoms: C7_7  and  C8_8 
REMARK    5  A    between atoms: C8_8  and  O1_9 
REMARK    6  A    between atoms: O1_9  and  C9_10 
REMARK    7  A    between atoms: C12_13  and  C13_14 
REMARK    8  A    between atoms: C18_20  and  N2_21 
ROOT
HETATM    1  C9  UNL     1      24.123   0.560  52.761  1.00  0.00     0.090 A 
HETATM    2  C10 UNL     1      23.220   0.915  51.798  1.00  0.00     0.039 A 
HETATM    3  C11 UNL     1      23.187   2.144  51.155  1.00  0.00     0.015 A 
HETATM    4  C12 UNL     1      24.175   3.015  51.580  1.00  0.00    -0.021 A 
HETATM    5  C21 UNL     1      25.114   2.694  52.557  1.00  0.00     0.039 A 
HETATM    6  C22 UNL     1      25.094   1.443  53.164  1.00  0.00     0.068 A 
HETATM    7 CL1  UNL     1      26.282   1.062  54.389  1.00  0.00    -0.081 Cl
ENDROOT
BRANCH   4   8
HETATM    8  C13 UNL     1      24.268   4.311  51.014  1.00  0.00     0.008 C 
HETATM    9  C14 UNL     1      24.827   4.433  49.766  1.00  0.00    -0.039 C 
HETATM   10  C15 UNL     1      24.492   5.317  48.588  1.00  0.00     0.064 C 
HETATM   11  C20 UNL     1      26.059   3.547  49.622  1.00  0.00     0.066 C 
HETATM   12  C16 UNL     1      25.404   6.096  49.276  1.00  0.00     0.142 C 
HETATM   13  N1  UNL     1      25.108   7.122  50.313  1.00  0.00    -0.345 N 
HETATM   14  O2  UNL     1      26.766   5.819  48.900  1.00  0.00    -0.335 OA
HETATM   15  C17 UNL     1      24.115   6.861  51.392  1.00  0.00     0.120 C 
HETATM   16  H15 UNL     1      25.700   7.945  50.135  1.00  0.00     0.167 HD
HETATM   17  C18 UNL     1      23.798   5.562  51.721  1.00  0.00     0.053 C 
HETATM   18  C19 UNL     1      27.180   4.406  48.975  1.00  0.00     0.182 C 
BRANCH  17  19
HETATM   19  N2  UNL     1      22.970   5.418  52.819  1.00  0.00    -0.397 N 
HETATM   20  H17 UNL     1      21.980   5.222  52.504  1.00  0.00     0.156 HD
HETATM   21  H18 UNL     1      22.368   5.313  53.621  1.00  0.00     0.156 HD
ENDBRANCH  17  19
ENDBRANCH   4   8
BRANCH   1  22
HETATM   22  O1  UNL     1      24.129  -0.680  53.386  1.00  0.00    -0.349 OA
BRANCH  22  23
HETATM   23  C8  UNL     1      23.471  -0.829  54.644  1.00  0.00     0.179 C 
BRANCH  23  24
HETATM   24  C7  UNL     1      22.178  -1.620  54.472  1.00  0.00     0.054 C 
BRANCH  24  25
HETATM   25  C6  UNL     1      21.016  -0.663  54.474  1.00  0.00    -0.025 C 
HETATM   26  C5  UNL     1      20.482  -0.312  53.321  1.00  0.00    -0.004 C 
BRANCH  26  27
HETATM   27  C4  UNL     1      19.584   0.358  52.431  1.00  0.00    -0.000 C 
HETATM   28  C3  UNL     1      18.501   0.476  51.705  1.00  0.00    -0.001 C 
BRANCH  28  29
HETATM   29  C2  UNL     1      17.550  -0.646  51.682  1.00  0.00    -0.010 C 
HETATM   30  C1  UNL     1      16.856  -0.902  52.796  1.00  0.00     0.011 C 
ENDBRANCH  28  29
ENDBRANCH  26  27
ENDBRANCH  24  25
ENDBRANCH  23  24
ENDBRANCH  22  23
ENDBRANCH   1  22
TORSDOF 8
ENDMDL
