MODEL 1
REMARK VINA RESULT:      -8.4      0.000      0.000
REMARK  5 active torsions:
REMARK  status: ('A' for Active; 'I' for Inactive)
REMARK    1  A    between atoms: N1_1  and  C1_2 
REMARK    2  A    between atoms: C10_13  and  O1_14 
REMARK    3  A    between atoms: O1_14  and  C11_15 
REMARK    4  A    between atoms: C11_15  and  C12_16 
REMARK    5  A    between atoms: C15_20  and  P1_21 
ROOT
HETATM    1  C1  UNL     1      21.178  -0.801  54.093  1.00  0.00     0.135 A 
HETATM    2  N2  UNL     1      22.026  -1.366  54.959  1.00  0.00    -0.204 NA
HETATM    3  C2  UNL     1      23.317  -1.268  55.070  1.00  0.00     0.181 A 
HETATM    4  N3  UNL     1      23.177  -0.573  54.169  1.00  0.00    -0.371 NA
HETATM    5  C3  UNL     1      23.035   0.167  53.209  1.00  0.00     0.189 A 
HETATM    6  C4  UNL     1      21.588   0.061  53.081  1.00  0.00     0.046 A 
HETATM    7  C5  UNL     1      20.326   0.532  52.260  1.00  0.00     0.061 C 
HETATM    8  C6  UNL     1      20.953   1.343  51.132  1.00  0.00     0.005 A 
HETATM    9  C7  UNL     1      21.684   0.983  50.108  1.00  0.00     0.015 A 
HETATM   10  C8  UNL     1      22.608   1.784  51.023  1.00  0.00    -0.002 A 
HETATM   11  C9  UNL     1      22.335   2.440  52.206  1.00  0.00     0.034 C 
HETATM   12  C10 UNL     1      20.905   2.776  51.553  1.00  0.00     0.137 C 
HETATM   13  C16 UNL     1      24.121   1.837  51.344  1.00  0.00     0.137 C 
HETATM   14  N4  UNL     1      24.179   0.869  52.531  1.00  0.00    -0.350 N 
HETATM   15  C17 UNL     1      25.606   0.772  52.880  1.00  0.00     0.087 C 
HETATM   16  C18 UNL     1      25.719   0.916  54.411  1.00  0.00     0.030 C 
HETATM   17  C19 UNL     1      25.731  -0.524  54.594  1.00  0.00    -0.003 C 
HETATM   18  C20 UNL     1      24.701  -1.267  55.321  1.00  0.00     0.099 C 
HETATM   19  C21 UNL     1      25.838  -0.703  53.102  1.00  0.00     0.030 C 
ENDROOT
BRANCH  12  20
HETATM   20  O1  UNL     1      21.026   3.658  50.552  1.00  0.00    -0.382 OA
BRANCH  20  21
HETATM   21  C11 UNL     1      20.755   4.974  50.794  1.00  0.00     0.200 C 
BRANCH  21  22
HETATM   22  C12 UNL     1      21.918   5.858  51.144  1.00  0.00     0.153 C 
HETATM   23  O2  UNL     1      23.130   5.441  50.665  1.00  0.00    -0.383 OA
HETATM   24  C13 UNL     1      23.961   6.532  50.826  1.00  0.00     0.169 C 
HETATM   25  C14 UNL     1      23.160   7.762  50.480  1.00  0.00     0.037 C 
HETATM   26  C15 UNL     1      21.738   7.296  50.815  1.00  0.00     0.042 C 
BRANCH  26  27
HETATM   27  P1  UNL     1      20.684   7.670  49.366  1.00  0.00    -0.134 P 
HETATM   28  H16 UNL     1      20.685   9.089  49.085  1.00  0.00     0.055 HD
HETATM   29  H17 UNL     1      20.894   6.843  48.221  1.00  0.00     0.055 HD
ENDBRANCH  26  27
ENDBRANCH  21  22
ENDBRANCH  20  21
ENDBRANCH  12  20
BRANCH   1  30
HETATM   30  N1  UNL     1      19.775  -1.093  54.207  1.00  0.00    -0.383 N 
HETATM   31  H1  UNL     1      19.271  -0.632  54.997  1.00  0.00     0.157 HD
HETATM   32  H2  UNL     1      19.500  -1.757  53.430  1.00  0.00     0.157 HD
ENDBRANCH   1  30
TORSDOF 5
ENDMDL
MODEL 2
REMARK VINA RESULT:      -8.2      2.305      3.304
REMARK  5 active torsions:
REMARK  status: ('A' for Active; 'I' for Inactive)
REMARK    1  A    between atoms: N1_1  and  C1_2 
REMARK    2  A    between atoms: C10_13  and  O1_14 
REMARK    3  A    between atoms: O1_14  and  C11_15 
REMARK    4  A    between atoms: C11_15  and  C12_16 
REMARK    5  A    between atoms: C15_20  and  P1_21 
ROOT
HETATM    1  C1  UNL     1      21.970  -0.971  54.176  1.00  0.00     0.135 A 
HETATM    2  N2  UNL     1      23.076  -1.271  54.864  1.00  0.00    -0.204 NA
HETATM    3  C2  UNL     1      24.303  -0.866  54.718  1.00  0.00     0.181 A 
HETATM    4  N3  UNL     1      23.832  -0.276  53.857  1.00  0.00    -0.371 NA
HETATM    5  C3  UNL     1      23.339   0.356  52.937  1.00  0.00     0.189 A 
HETATM    6  C4  UNL     1      21.962  -0.094  53.095  1.00  0.00     0.046 A 
HETATM    7  C5  UNL     1      20.493   0.020  52.533  1.00  0.00     0.061 C 
HETATM    8  C6  UNL     1      20.682   0.892  51.297  1.00  0.00     0.005 A 
HETATM    9  C7  UNL     1      21.272   0.657  50.153  1.00  0.00     0.015 A 
HETATM   10  C8  UNL     1      22.130   1.704  50.862  1.00  0.00    -0.002 A 
HETATM   11  C9  UNL     1      21.934   2.342  52.071  1.00  0.00     0.034 C 
HETATM   12  C10 UNL     1      20.370   2.295  51.708  1.00  0.00     0.137 C 
HETATM   13  C16 UNL     1      23.618   2.128  50.881  1.00  0.00     0.137 C 
HETATM   14  N4  UNL     1      24.130   1.268  52.041  1.00  0.00    -0.350 N 
HETATM   15  C17 UNL     1      25.578   1.529  52.105  1.00  0.00     0.087 C 
HETATM   16  C18 UNL     1      25.938   1.780  53.583  1.00  0.00     0.030 C 
HETATM   17  C19 UNL     1      26.332   0.396  53.772  1.00  0.00    -0.003 C 
HETATM   18  C20 UNL     1      25.668  -0.527  54.694  1.00  0.00     0.099 C 
HETATM   19  C21 UNL     1      26.197   0.165  52.290  1.00  0.00     0.030 C 
ENDROOT
BRANCH  12  20
HETATM   20  O1  UNL     1      20.083   3.124  50.694  1.00  0.00    -0.382 OA
BRANCH  20  21
HETATM   21  C11 UNL     1      19.071   4.028  50.845  1.00  0.00     0.200 C 
BRANCH  21  22
HETATM   22  C12 UNL     1      17.726   3.488  51.238  1.00  0.00     0.153 C 
HETATM   23  O2  UNL     1      17.088   4.181  52.230  1.00  0.00    -0.383 OA
HETATM   24  C13 UNL     1      15.788   3.718  52.197  1.00  0.00     0.169 C 
HETATM   25  C14 UNL     1      15.409   3.544  50.748  1.00  0.00     0.037 C 
HETATM   26  C15 UNL     1      16.778   3.277  50.112  1.00  0.00     0.042 C 
BRANCH  26  27
HETATM   27  P1  UNL     1      16.950   4.411  48.686  1.00  0.00    -0.134 P 
HETATM   28  H16 UNL     1      16.570   5.758  49.055  1.00  0.00     0.055 HD
HETATM   29  H17 UNL     1      18.183   4.322  47.972  1.00  0.00     0.055 HD
ENDBRANCH  26  27
ENDBRANCH  21  22
ENDBRANCH  20  21
ENDBRANCH  12  20
BRANCH   1  30
HETATM   30  N1  UNL     1      20.726  -1.578  54.565  1.00  0.00    -0.383 N 
HETATM   31  H1  UNL     1      20.588  -2.572  54.278  1.00  0.00     0.157 HD
HETATM   32  H2  UNL     1      20.152  -0.865  55.098  1.00  0.00     0.157 HD
ENDBRANCH   1  30
TORSDOF 5
ENDMDL
MODEL 3
REMARK VINA RESULT:      -7.9      2.134      3.879
REMARK  5 active torsions:
REMARK  status: ('A' for Active; 'I' for Inactive)
REMARK    1  A    between atoms: N1_1  and  C1_2 
REMARK    2  A    between atoms: C10_13  and  O1_14 
REMARK    3  A    between atoms: O1_14  and  C11_15 
REMARK    4  A    between atoms: C11_15  and  C12_16 
REMARK    5  A    between atoms: C15_20  and  P1_21 
ROOT
HETATM    1  C1  UNL     1      25.235   0.551  53.168  1.00  0.00     0.135 A 
HETATM    2  N2  UNL     1      24.812  -0.534  53.827  1.00  0.00    -0.204 NA
HETATM    3  C2  UNL     1      23.614  -0.917  54.151  1.00  0.00     0.181 A 
HETATM    4  N3  UNL     1      23.335   0.057  53.617  1.00  0.00    -0.371 NA
HETATM    5  C3  UNL     1      23.030   1.093  53.049  1.00  0.00     0.189 A 
HETATM    6  C4  UNL     1      24.371   1.528  52.683  1.00  0.00     0.046 A 
HETATM    7  C5  UNL     1      25.214   2.651  51.964  1.00  0.00     0.061 C 
HETATM    8  C6  UNL     1      24.152   3.687  51.618  1.00  0.00     0.005 A 
HETATM    9  C7  UNL     1      23.438   4.483  52.374  1.00  0.00     0.015 A 
HETATM   10  C8  UNL     1      22.457   3.471  51.785  1.00  0.00    -0.002 A 
HETATM   11  C9  UNL     1      22.671   2.449  50.882  1.00  0.00     0.034 C 
HETATM   12  C10 UNL     1      23.745   3.433  50.202  1.00  0.00     0.137 C 
HETATM   13  C16 UNL     1      21.109   2.830  52.190  1.00  0.00     0.137 C 
HETATM   14  N4  UNL     1      21.611   1.569  52.901  1.00  0.00    -0.350 N 
HETATM   15  C17 UNL     1      20.401   0.904  53.411  1.00  0.00     0.087 C 
HETATM   16  C18 UNL     1      20.507  -0.591  53.051  1.00  0.00     0.030 C 
HETATM   17  C19 UNL     1      21.052  -0.915  54.357  1.00  0.00    -0.003 C 
HETATM   18  C20 UNL     1      22.390  -1.468  54.573  1.00  0.00     0.099 C 
HETATM   19  C21 UNL     1      20.763   0.489  54.816  1.00  0.00     0.030 C 
ENDROOT
BRANCH  12  20
HETATM   20  O1  UNL     1      23.142   4.466  49.599  1.00  0.00    -0.382 OA
BRANCH  20  21
HETATM   21  C11 UNL     1      23.795   5.117  48.593  1.00  0.00     0.200 C 
BRANCH  21  22
HETATM   22  C12 UNL     1      24.303   6.498  48.889  1.00  0.00     0.153 C 
HETATM   23  O2  UNL     1      23.956   6.994  50.117  1.00  0.00    -0.383 OA
HETATM   24  C13 UNL     1      24.772   8.095  50.290  1.00  0.00     0.169 C 
HETATM   25  C14 UNL     1      26.132   7.737  49.747  1.00  0.00     0.037 C 
HETATM   26  C15 UNL     1      25.764   6.690  48.689  1.00  0.00     0.042 C 
BRANCH  26  27
HETATM   27  P1  UNL     1      26.820   5.223  48.979  1.00  0.00    -0.134 P 
HETATM   28  H16 UNL     1      26.020   4.018  49.025  1.00  0.00     0.055 HD
HETATM   29  H17 UNL     1      27.983   5.127  48.157  1.00  0.00     0.055 HD
ENDBRANCH  26  27
ENDBRANCH  21  22
ENDBRANCH  20  21
ENDBRANCH  12  20
BRANCH   1  30
HETATM   30  N1  UNL     1      26.645   0.721  52.947  1.00  0.00    -0.383 N 
HETATM   31  H1  UNL     1      27.256   0.649  53.790  1.00  0.00     0.157 HD
HETATM   32  H2  UNL     1      26.809   0.898  51.916  1.00  0.00     0.157 HD
ENDBRANCH   1  30
TORSDOF 5
ENDMDL
MODEL 4
REMARK VINA RESULT:      -7.9      1.817      2.455
REMARK  5 active torsions:
REMARK  status: ('A' for Active; 'I' for Inactive)
REMARK    1  A    between atoms: N1_1  and  C1_2 
REMARK    2  A    between atoms: C10_13  and  O1_14 
REMARK    3  A    between atoms: O1_14  and  C11_15 
REMARK    4  A    between atoms: C11_15  and  C12_16 
REMARK    5  A    between atoms: C15_20  and  P1_21 
ROOT
HETATM    1  C1  UNL     1      22.141   0.591  52.904  1.00  0.00     0.135 A 
HETATM    2  N2  UNL     1      22.749  -0.295  53.700  1.00  0.00    -0.204 NA
HETATM    3  C2  UNL     1      24.011  -0.522  53.910  1.00  0.00     0.181 A 
HETATM    4  N3  UNL     1      24.122   0.328  53.150  1.00  0.00    -0.371 NA
HETATM    5  C3  UNL     1      24.248   1.233  52.341  1.00  0.00     0.189 A 
HETATM    6  C4  UNL     1      22.835   1.492  52.102  1.00  0.00     0.046 A 
HETATM    7  C5  UNL     1      21.801   2.378  51.307  1.00  0.00     0.061 C 
HETATM    8  C6  UNL     1      22.705   3.200  50.396  1.00  0.00     0.005 A 
HETATM    9  C7  UNL     1      23.444   2.858  49.371  1.00  0.00     0.015 A 
HETATM   10  C8  UNL     1      24.419   3.253  50.479  1.00  0.00    -0.002 A 
HETATM   11  C9  UNL     1      24.172   3.744  51.745  1.00  0.00     0.034 C 
HETATM   12  C10 UNL     1      22.928   4.511  51.078  1.00  0.00     0.137 C 
HETATM   13  C16 UNL     1      25.863   2.894  50.900  1.00  0.00     0.137 C 
HETATM   14  N4  UNL     1      25.583   1.752  51.883  1.00  0.00    -0.350 N 
HETATM   15  C17 UNL     1      26.909   1.266  52.298  1.00  0.00     0.087 C 
HETATM   16  C18 UNL     1      26.888   1.117  53.832  1.00  0.00     0.030 C 
HETATM   17  C19 UNL     1      26.566  -0.295  53.739  1.00  0.00    -0.003 C 
HETATM   18  C20 UNL     1      25.327  -0.889  54.245  1.00  0.00     0.099 C 
HETATM   19  C21 UNL     1      26.789  -0.238  52.251  1.00  0.00     0.030 C 
ENDROOT
BRANCH  12  20
HETATM   20  O1  UNL     1      23.343   5.497  50.272  1.00  0.00    -0.382 OA
BRANCH  20  21
HETATM   21  C11 UNL     1      23.659   6.708  50.818  1.00  0.00     0.200 C 
BRANCH  21  22
HETATM   22  C12 UNL     1      24.974   7.314  50.419  1.00  0.00     0.153 C 
HETATM   23  O2  UNL     1      25.826   6.473  49.755  1.00  0.00    -0.383 OA
HETATM   24  C13 UNL     1      26.792   7.304  49.226  1.00  0.00     0.169 C 
HETATM   25  C14 UNL     1      26.097   8.551  48.739  1.00  0.00     0.037 C 
HETATM   26  C15 UNL     1      24.878   8.593  49.667  1.00  0.00     0.042 C 
BRANCH  26  27
HETATM   27  P1  UNL     1      23.395   8.802  48.614  1.00  0.00    -0.134 P 
HETATM   28  H16 UNL     1      23.111   7.585  47.884  1.00  0.00     0.055 HD
HETATM   29  H17 UNL     1      22.260   9.383  49.255  1.00  0.00     0.055 HD
ENDBRANCH  26  27
ENDBRANCH  21  22
ENDBRANCH  20  21
ENDBRANCH  12  20
BRANCH   1  30
HETATM   30  N1  UNL     1      20.705   0.621  52.872  1.00  0.00    -0.383 N 
HETATM   31  H1  UNL     1      20.239  -0.162  52.362  1.00  0.00     0.157 HD
HETATM   32  H2  UNL     1      20.369   1.477  53.397  1.00  0.00     0.157 HD
ENDBRANCH   1  30
TORSDOF 5
ENDMDL
MODEL 5
REMARK VINA RESULT:      -7.7      2.604      5.222
REMARK  5 active torsions:
REMARK  status: ('A' for Active; 'I' for Inactive)
REMARK    1  A    between atoms: N1_1  and  C1_2 
REMARK    2  A    between atoms: C10_13  and  O1_14 
REMARK    3  A    between atoms: O1_14  and  C11_15 
REMARK    4  A    between atoms: C11_15  and  C12_16 
REMARK    5  A    between atoms: C15_20  and  P1_21 
ROOT
HETATM    1  C1  UNL     1      26.082   3.228  51.029  1.00  0.00     0.135 A 
HETATM    2  N2  UNL     1      27.176   2.572  51.431  1.00  0.00    -0.204 NA
HETATM    3  C2  UNL     1      27.308   1.528  52.194  1.00  0.00     0.181 A 
HETATM    4  N3  UNL     1      26.166   1.608  52.223  1.00  0.00    -0.371 NA
HETATM    5  C3  UNL     1      24.948   1.688  52.259  1.00  0.00     0.189 A 
HETATM    6  C4  UNL     1      24.794   2.857  51.404  1.00  0.00     0.046 A 
HETATM    7  C5  UNL     1      23.759   3.849  50.746  1.00  0.00     0.061 C 
HETATM    8  C6  UNL     1      22.437   3.394  51.354  1.00  0.00     0.005 A 
HETATM    9  C7  UNL     1      21.975   3.467  52.576  1.00  0.00     0.015 A 
HETATM   10  C8  UNL     1      22.211   1.983  52.305  1.00  0.00    -0.002 A 
HETATM   11  C9  UNL     1      22.639   1.347  51.156  1.00  0.00     0.034 C 
HETATM   12  C10 UNL     1      21.803   2.469  50.366  1.00  0.00     0.137 C 
HETATM   13  C16 UNL     1      22.551   0.718  53.130  1.00  0.00     0.137 C 
HETATM   14  N4  UNL     1      24.080   0.735  53.033  1.00  0.00    -0.350 N 
HETATM   15  C17 UNL     1      24.531  -0.395  53.862  1.00  0.00     0.087 C 
HETATM   16  C18 UNL     1      25.590  -1.170  53.051  1.00  0.00     0.030 C 
HETATM   17  C19 UNL     1      26.676  -0.458  53.698  1.00  0.00    -0.003 C 
HETATM   18  C20 UNL     1      27.619   0.415  52.996  1.00  0.00     0.099 C 
HETATM   19  C21 UNL     1      25.690   0.159  54.654  1.00  0.00     0.030 C 
ENDROOT
BRANCH  12  20
HETATM   20  O1  UNL     1      20.485   2.295  50.528  1.00  0.00    -0.382 OA
BRANCH  20  21
HETATM   21  C11 UNL     1      19.840   1.371  49.758  1.00  0.00     0.200 C 
BRANCH  21  22
HETATM   22  C12 UNL     1      19.069   0.301  50.476  1.00  0.00     0.153 C 
HETATM   23  O2  UNL     1      19.192   0.311  51.839  1.00  0.00    -0.383 OA
HETATM   24  C13 UNL     1      18.183  -0.518  52.286  1.00  0.00     0.169 C 
HETATM   25  C14 UNL     1      16.971  -0.254  51.427  1.00  0.00     0.037 C 
HETATM   26  C15 UNL     1      17.627   0.219  50.124  1.00  0.00     0.042 C 
BRANCH  26  27
HETATM   27  P1  UNL     1      16.820   1.791  49.645  1.00  0.00    -0.134 P 
HETATM   28  H16 UNL     1      15.836   2.182  50.631  1.00  0.00     0.055 HD
HETATM   29  H17 UNL     1      17.701   2.840  49.244  1.00  0.00     0.055 HD
ENDBRANCH  26  27
ENDBRANCH  21  22
ENDBRANCH  20  21
ENDBRANCH  12  20
BRANCH   1  30
HETATM   30  N1  UNL     1      26.235   4.369  50.170  1.00  0.00    -0.383 N 
HETATM   31  H1  UNL     1      27.172   4.831  50.179  1.00  0.00     0.157 HD
HETATM   32  H2  UNL     1      25.322   4.540  49.662  1.00  0.00     0.157 HD
ENDBRANCH   1  30
TORSDOF 5
ENDMDL
MODEL 6
REMARK VINA RESULT:      -7.7      3.082      4.068
REMARK  5 active torsions:
REMARK  status: ('A' for Active; 'I' for Inactive)
REMARK    1  A    between atoms: N1_1  and  C1_2 
REMARK    2  A    between atoms: C10_13  and  O1_14 
REMARK    3  A    between atoms: O1_14  and  C11_15 
REMARK    4  A    between atoms: C11_15  and  C12_16 
REMARK    5  A    between atoms: C15_20  and  P1_21 
ROOT
HETATM    1  C1  UNL     1      20.990  -0.881  53.754  1.00  0.00     0.135 A 
HETATM    2  N2  UNL     1      22.162  -1.139  54.345  1.00  0.00    -0.204 NA
HETATM    3  C2  UNL     1      23.335  -0.607  54.174  1.00  0.00     0.181 A 
HETATM    4  N3  UNL     1      22.759   0.016  53.405  1.00  0.00    -0.371 NA
HETATM    5  C3  UNL     1      22.152   0.684  52.583  1.00  0.00     0.189 A 
HETATM    6  C4  UNL     1      20.835   0.091  52.770  1.00  0.00     0.046 A 
HETATM    7  C5  UNL     1      19.327   0.118  52.306  1.00  0.00     0.061 C 
HETATM    8  C6  UNL     1      19.357   1.120  51.157  1.00  0.00     0.005 A 
HETATM    9  C7  UNL     1      19.891   1.053  49.964  1.00  0.00     0.015 A 
HETATM   10  C8  UNL     1      20.696   2.104  50.727  1.00  0.00    -0.002 A 
HETATM   11  C9  UNL     1      20.523   2.600  52.003  1.00  0.00     0.034 C 
HETATM   12  C10 UNL     1      18.948   2.440  51.725  1.00  0.00     0.137 C 
HETATM   13  C16 UNL     1      22.138   2.664  50.706  1.00  0.00     0.137 C 
HETATM   14  N4  UNL     1      22.799   1.749  51.742  1.00  0.00    -0.350 N 
HETATM   15  C17 UNL     1      24.219   2.139  51.752  1.00  0.00     0.087 C 
HETATM   16  C18 UNL     1      24.650   2.281  53.225  1.00  0.00     0.030 C 
HETATM   17  C19 UNL     1      25.177   0.929  53.250  1.00  0.00    -0.003 C 
HETATM   18  C20 UNL     1      24.659  -0.138  54.109  1.00  0.00     0.099 C 
HETATM   19  C21 UNL     1      24.968   0.829  51.763  1.00  0.00     0.030 C 
ENDROOT
BRANCH  12  20
HETATM   20  O1  UNL     1      18.524   3.331  50.818  1.00  0.00    -0.382 OA
BRANCH  20  21
HETATM   21  C11 UNL     1      17.602   4.267  51.193  1.00  0.00     0.200 C 
BRANCH  21  22
HETATM   22  C12 UNL     1      16.394   3.776  51.937  1.00  0.00     0.153 C 
HETATM   23  O2  UNL     1      15.947   4.605  52.930  1.00  0.00    -0.383 OA
HETATM   24  C13 UNL     1      14.691   4.125  53.244  1.00  0.00     0.169 C 
HETATM   25  C14 UNL     1      14.026   3.727  51.950  1.00  0.00     0.037 C 
HETATM   26  C15 UNL     1      15.242   3.383  51.083  1.00  0.00     0.042 C 
BRANCH  26  27
HETATM   27  P1  UNL     1      15.062   4.289  49.503  1.00  0.00    -0.134 P 
HETATM   28  H16 UNL     1      14.708   5.671  49.743  1.00  0.00     0.055 HD
HETATM   29  H17 UNL     1      16.121   4.107  48.563  1.00  0.00     0.055 HD
ENDBRANCH  26  27
ENDBRANCH  21  22
ENDBRANCH  20  21
ENDBRANCH  12  20
BRANCH   1  30
HETATM   30  N1  UNL     1      19.834  -1.638  54.148  1.00  0.00    -0.383 N 
HETATM   31  H1  UNL     1      18.962  -1.466  53.601  1.00  0.00     0.157 HD
HETATM   32  H2  UNL     1      20.096  -2.261  54.964  1.00  0.00     0.157 HD
ENDBRANCH   1  30
TORSDOF 5
ENDMDL
MODEL 7
REMARK VINA RESULT:      -7.6      9.043     11.695
REMARK  5 active torsions:
REMARK  status: ('A' for Active; 'I' for Inactive)
REMARK    1  A    between atoms: N1_1  and  C1_2 
REMARK    2  A    between atoms: C10_13  and  O1_14 
REMARK    3  A    between atoms: O1_14  and  C11_15 
REMARK    4  A    between atoms: C11_15  and  C12_16 
REMARK    5  A    between atoms: C15_20  and  P1_21 
ROOT
HETATM    1  C1  UNL     1      32.432   6.756  44.291  1.00  0.00     0.135 A 
HETATM    2  N2  UNL     1      33.398   5.948  43.843  1.00  0.00    -0.204 NA
HETATM    3  C2  UNL     1      34.087   5.028  44.451  1.00  0.00     0.181 A 
HETATM    4  N3  UNL     1      33.435   5.356  45.334  1.00  0.00    -0.371 NA
HETATM    5  C3  UNL     1      32.745   5.700  46.280  1.00  0.00     0.189 A 
HETATM    6  C4  UNL     1      31.971   6.732  45.604  1.00  0.00     0.046 A 
HETATM    7  C5  UNL     1      30.834   7.812  45.772  1.00  0.00     0.061 C 
HETATM    8  C6  UNL     1      30.541   7.750  47.266  1.00  0.00     0.005 A 
HETATM    9  C7  UNL     1      31.254   8.106  48.304  1.00  0.00     0.015 A 
HETATM   10  C8  UNL     1      31.167   6.582  48.356  1.00  0.00    -0.002 A 
HETATM   11  C9  UNL     1      30.489   5.703  47.535  1.00  0.00     0.034 C 
HETATM   12  C10 UNL     1      29.364   6.846  47.438  1.00  0.00     0.137 C 
HETATM   13  C16 UNL     1      32.025   5.413  48.897  1.00  0.00     0.137 C 
HETATM   14  N4  UNL     1      32.852   5.085  47.648  1.00  0.00    -0.350 N 
HETATM   15  C17 UNL     1      33.780   4.023  48.068  1.00  0.00     0.087 C 
HETATM   16  C18 UNL     1      33.747   2.925  46.987  1.00  0.00     0.030 C 
HETATM   17  C19 UNL     1      34.915   3.476  46.324  1.00  0.00    -0.003 C 
HETATM   18  C20 UNL     1      34.910   4.008  44.960  1.00  0.00     0.099 C 
HETATM   19  C21 UNL     1      35.107   4.428  47.475  1.00  0.00     0.030 C 
ENDROOT
BRANCH  12  20
HETATM   20  O1  UNL     1      28.715   6.987  48.601  1.00  0.00    -0.382 OA
BRANCH  20  21
HETATM   21  C11 UNL     1      27.354   6.879  48.616  1.00  0.00     0.200 C 
BRANCH  21  22
HETATM   22  C12 UNL     1      26.778   5.493  48.635  1.00  0.00     0.153 C 
HETATM   23  O2  UNL     1      27.533   4.558  49.292  1.00  0.00    -0.383 OA
HETATM   24  C13 UNL     1      26.687   3.480  49.454  1.00  0.00     0.169 C 
HETATM   25  C14 UNL     1      25.322   4.025  49.792  1.00  0.00     0.037 C 
HETATM   26  C15 UNL     1      25.374   5.399  49.113  1.00  0.00     0.042 C 
BRANCH  26  27
HETATM   27  P1  UNL     1      24.856   6.642  50.352  1.00  0.00    -0.134 P 
HETATM   28  H16 UNL     1      24.755   6.043  51.666  1.00  0.00     0.055 HD
HETATM   29  H17 UNL     1      25.570   7.878  50.322  1.00  0.00     0.055 HD
ENDBRANCH  26  27
ENDBRANCH  21  22
ENDBRANCH  20  21
ENDBRANCH  12  20
BRANCH   1  30
HETATM   30  N1  UNL     1      31.836   7.694  43.380  1.00  0.00    -0.383 N 
HETATM   31  H1  UNL     1      32.409   7.957  42.548  1.00  0.00     0.157 HD
HETATM   32  H2  UNL     1      30.876   7.959  43.742  1.00  0.00     0.157 HD
ENDBRANCH   1  30
TORSDOF 5
ENDMDL
MODEL 8
REMARK VINA RESULT:      -7.3      1.802      2.432
REMARK  5 active torsions:
REMARK  status: ('A' for Active; 'I' for Inactive)
REMARK    1  A    between atoms: N1_1  and  C1_2 
REMARK    2  A    between atoms: C10_13  and  O1_14 
REMARK    3  A    between atoms: O1_14  and  C11_15 
REMARK    4  A    between atoms: C11_15  and  C12_16 
REMARK    5  A    between atoms: C15_20  and  P1_21 
ROOT
HETATM    1  C1  UNL     1      22.124   0.566  52.789  1.00  0.00     0.135 A 
HETATM    2  N2  UNL     1      22.721  -0.319  53.595  1.00  0.00    -0.204 NA
HETATM    3  C2  UNL     1      23.979  -0.536  53.834  1.00  0.00     0.181 A 
HETATM    4  N3  UNL     1      24.101   0.318  53.081  1.00  0.00    -0.371 NA
HETATM    5  C3  UNL     1      24.238   1.228  52.278  1.00  0.00     0.189 A 
HETATM    6  C4  UNL     1      22.829   1.476  52.007  1.00  0.00     0.046 A 
HETATM    7  C5  UNL     1      21.806   2.356  51.190  1.00  0.00     0.061 C 
HETATM    8  C6  UNL     1      22.725   3.189  50.304  1.00  0.00     0.005 A 
HETATM    9  C7  UNL     1      23.491   2.857  49.296  1.00  0.00     0.015 A 
HETATM   10  C8  UNL     1      24.435   3.257  50.428  1.00  0.00    -0.002 A 
HETATM   11  C9  UNL     1      24.154   3.740  51.690  1.00  0.00     0.034 C 
HETATM   12  C10 UNL     1      22.920   4.499  50.996  1.00  0.00     0.137 C 
HETATM   13  C16 UNL     1      25.873   2.909  50.882  1.00  0.00     0.137 C 
HETATM   14  N4  UNL     1      25.579   1.760  51.854  1.00  0.00    -0.350 N 
HETATM   15  C17 UNL     1      26.899   1.284  52.298  1.00  0.00     0.087 C 
HETATM   16  C18 UNL     1      26.843   1.129  53.832  1.00  0.00     0.030 C 
HETATM   17  C19 UNL     1      26.535  -0.286  53.725  1.00  0.00    -0.003 C 
HETATM   18  C20 UNL     1      25.290  -0.893  54.199  1.00  0.00     0.099 C 
HETATM   19  C21 UNL     1      26.793  -0.221  52.243  1.00  0.00     0.030 C 
ENDROOT
BRANCH  12  20
HETATM   20  O1  UNL     1      23.346   5.492  50.204  1.00  0.00    -0.382 OA
BRANCH  20  21
HETATM   21  C11 UNL     1      22.991   6.776  50.504  1.00  0.00     0.200 C 
BRANCH  21  22
HETATM   22  C12 UNL     1      21.796   7.339  49.789  1.00  0.00     0.153 C 
HETATM   23  O2  UNL     1      20.965   8.106  50.560  1.00  0.00    -0.383 OA
HETATM   24  C13 UNL     1      20.151   8.755  49.654  1.00  0.00     0.169 C 
HETATM   25  C14 UNL     1      21.010   9.150  48.479  1.00  0.00     0.037 C 
HETATM   26  C15 UNL     1      22.101   8.074  48.533  1.00  0.00     0.042 C 
BRANCH  26  27
HETATM   27  P1  UNL     1      23.717   8.929  48.467  1.00  0.00    -0.134 P 
HETATM   28  H16 UNL     1      23.983   9.616  49.713  1.00  0.00     0.055 HD
HETATM   29  H17 UNL     1      24.809   8.149  47.981  1.00  0.00     0.055 HD
ENDBRANCH  26  27
ENDBRANCH  21  22
ENDBRANCH  20  21
ENDBRANCH  12  20
BRANCH   1  30
HETATM   30  N1  UNL     1      20.688   0.583  52.722  1.00  0.00    -0.383 N 
HETATM   31  H1  UNL     1      20.261   0.157  51.870  1.00  0.00     0.157 HD
HETATM   32  H2  UNL     1      20.312   1.051  53.594  1.00  0.00     0.157 HD
ENDBRANCH   1  30
TORSDOF 5
ENDMDL
MODEL 9
REMARK VINA RESULT:      -7.3      2.073      3.893
REMARK  5 active torsions:
REMARK  status: ('A' for Active; 'I' for Inactive)
REMARK    1  A    between atoms: N1_1  and  C1_2 
REMARK    2  A    between atoms: C10_13  and  O1_14 
REMARK    3  A    between atoms: O1_14  and  C11_15 
REMARK    4  A    between atoms: C11_15  and  C12_16 
REMARK    5  A    between atoms: C15_20  and  P1_21 
ROOT
HETATM    1  C1  UNL     1      25.239   0.484  53.106  1.00  0.00     0.135 A 
HETATM    2  N2  UNL     1      24.774  -0.578  53.773  1.00  0.00    -0.204 NA
HETATM    3  C2  UNL     1      23.561  -0.916  54.092  1.00  0.00     0.181 A 
HETATM    4  N3  UNL     1      23.320   0.061  53.545  1.00  0.00    -0.371 NA
HETATM    5  C3  UNL     1      23.056   1.101  52.965  1.00  0.00     0.189 A 
HETATM    6  C4  UNL     1      24.414   1.485  52.604  1.00  0.00     0.046 A 
HETATM    7  C5  UNL     1      25.301   2.570  51.880  1.00  0.00     0.061 C 
HETATM    8  C6  UNL     1      24.278   3.639  51.515  1.00  0.00     0.005 A 
HETATM    9  C7  UNL     1      23.587   4.467  52.257  1.00  0.00     0.015 A 
HETATM   10  C8  UNL     1      22.576   3.484  51.671  1.00  0.00    -0.002 A 
HETATM   11  C9  UNL     1      22.761   2.446  50.780  1.00  0.00     0.034 C 
HETATM   12  C10 UNL     1      23.874   3.384  50.099  1.00  0.00     0.137 C 
HETATM   13  C16 UNL     1      21.203   2.894  52.072  1.00  0.00     0.137 C 
HETATM   14  N4  UNL     1      21.656   1.624  52.800  1.00  0.00    -0.350 N 
HETATM   15  C17 UNL     1      20.419   1.008  53.307  1.00  0.00     0.087 C 
HETATM   16  C18 UNL     1      20.476  -0.494  52.964  1.00  0.00     0.030 C 
HETATM   17  C19 UNL     1      20.999  -0.823  54.277  1.00  0.00    -0.003 C 
HETATM   18  C20 UNL     1      22.316  -1.419  54.510  1.00  0.00     0.099 C 
HETATM   19  C21 UNL     1      20.756   0.596  54.719  1.00  0.00     0.030 C 
ENDROOT
BRANCH  12  20
HETATM   20  O1  UNL     1      23.311   4.431  49.480  1.00  0.00    -0.382 OA
BRANCH  20  21
HETATM   21  C11 UNL     1      22.802   4.261  48.225  1.00  0.00     0.200 C 
BRANCH  21  22
HETATM   22  C12 UNL     1      21.387   4.710  47.996  1.00  0.00     0.153 C 
HETATM   23  O2  UNL     1      20.722   5.134  49.115  1.00  0.00    -0.383 OA
HETATM   24  C13 UNL     1      19.602   5.778  48.631  1.00  0.00     0.169 C 
HETATM   25  C14 UNL     1      20.022   6.556  47.409  1.00  0.00     0.037 C 
HETATM   26  C15 UNL     1      21.214   5.724  46.921  1.00  0.00     0.042 C 
BRANCH  26  27
HETATM   27  P1  UNL     1      22.614   6.873  46.659  1.00  0.00    -0.134 P 
HETATM   28  H16 UNL     1      23.873   6.216  46.938  1.00  0.00     0.055 HD
HETATM   29  H17 UNL     1      22.590   7.605  45.434  1.00  0.00     0.055 HD
ENDBRANCH  26  27
ENDBRANCH  21  22
ENDBRANCH  20  21
ENDBRANCH  12  20
BRANCH   1  30
HETATM   30  N1  UNL     1      26.656   0.602  52.894  1.00  0.00    -0.383 N 
HETATM   31  H1  UNL     1      27.254  -0.113  53.364  1.00  0.00     0.157 HD
HETATM   32  H2  UNL     1      26.839   1.437  52.269  1.00  0.00     0.157 HD
ENDBRANCH   1  30
TORSDOF 5
ENDMDL
