MODEL 1
REMARK VINA RESULT:      -8.3      0.000      0.000
REMARK  6 active torsions:
REMARK  status: ('A' for Active; 'I' for Inactive)
REMARK    1  A    between atoms: O1_2  and  C2_3 
REMARK    2  A    between atoms: C5_6  and  N1_7 
REMARK    3  A    between atoms: N1_7  and  C6_8 
REMARK    4  A    between atoms: C10_15  and  C11_16 
REMARK    5  A    between atoms: C11_16  and  N5_17 
REMARK    6  A    between atoms: C14_20  and  N6_21 
ROOT
HETATM    1  C6  UNL     1      22.261   0.511  52.440  1.00  0.00     0.159 A 
HETATM    2  N2  UNL     1      20.914   0.701  52.329  1.00  0.00    -0.220 NA
HETATM    3  C7  UNL     1      20.136   0.195  53.323  1.00  0.00     0.258 A 
HETATM    4  N3  UNL     1      20.686  -0.460  54.360  1.00  0.00    -0.161 NA
HETATM    5  N4  UNL     1      22.007  -0.651  54.479  1.00  0.00    -0.240 N 
HETATM    6  C8  UNL     1      22.856  -1.241  55.314  1.00  0.00     0.119 A 
HETATM    7  C9  UNL     1      24.160  -1.120  54.881  1.00  0.00     0.030 A 
HETATM    8  C10 UNL     1      24.131  -0.396  53.681  1.00  0.00    -0.007 A 
HETATM    9  C17 UNL     1      22.785  -0.158  53.512  1.00  0.00     0.112 A 
ENDROOT
BRANCH   1  10
HETATM   10  N1  UNL     1      22.848   1.072  51.247  1.00  0.00    -0.339 N 
HETATM   11  H6  UNL     1      23.109   0.762  50.287  1.00  0.00     0.167 HD
BRANCH  10  12
HETATM   12  C5  UNL     1      23.233   2.470  51.319  1.00  0.00     0.035 A 
HETATM   13  C4  UNL     1      22.753   3.412  52.244  1.00  0.00     0.032 A 
HETATM   14  C3  UNL     1      23.126   4.736  52.252  1.00  0.00     0.041 A 
HETATM   15  C2  UNL     1      24.019   5.205  51.316  1.00  0.00     0.090 A 
HETATM   16  C19 UNL     1      24.522   4.318  50.381  1.00  0.00     0.069 A 
HETATM   17  C18 UNL     1      24.126   2.998  50.402  1.00  0.00     0.056 A 
HETATM   18 CL1  UNL     1      25.666   4.877  49.174  1.00  0.00    -0.081 Cl
BRANCH  15  19
HETATM   19  O1  UNL     1      24.453   6.513  51.240  1.00  0.00    -0.354 OA
HETATM   20  C1  UNL     1      23.731   7.623  50.818  1.00  0.00     0.210 C 
ENDBRANCH  15  19
ENDBRANCH  10  12
ENDBRANCH   1  10
BRANCH   8  21
HETATM   21  C11 UNL     1      25.347   0.046  53.010  1.00  0.00     0.158 C 
BRANCH  21  22
HETATM   22  N5  UNL     1      26.385   0.572  53.860  1.00  0.00    -0.408 N 
HETATM   23  C12 UNL     1      26.656   1.957  53.618  1.00  0.00     0.119 C 
HETATM   24  C13 UNL     1      27.927   2.326  52.975  1.00  0.00     0.055 C 
HETATM   25  C14 UNL     1      29.077   1.525  53.530  1.00  0.00     0.221 C 
HETATM   26  C15 UNL     1      28.780   0.067  53.575  1.00  0.00     0.055 C 
HETATM   27  C16 UNL     1      27.463  -0.226  54.219  1.00  0.00     0.119 C 
BRANCH  25  28
HETATM   28  N6  UNL     1      29.494   2.082  54.787  1.00  0.00     0.083 N 
HETATM   29  H17 UNL     1      28.795   1.783  55.517  1.00  0.00     0.313 HD
HETATM   30  H18 UNL     1      29.453   3.132  54.769  1.00  0.00     0.313 HD
ENDBRANCH  25  28
ENDBRANCH  21  22
ENDBRANCH   8  21
TORSDOF 6
ENDMDL
MODEL 2
REMARK VINA RESULT:      -7.8      2.995      6.714
REMARK  6 active torsions:
REMARK  status: ('A' for Active; 'I' for Inactive)
REMARK    1  A    between atoms: O1_2  and  C2_3 
REMARK    2  A    between atoms: C5_6  and  N1_7 
REMARK    3  A    between atoms: N1_7  and  C6_8 
REMARK    4  A    between atoms: C10_15  and  C11_16 
REMARK    5  A    between atoms: C11_16  and  N5_17 
REMARK    6  A    between atoms: C14_20  and  N6_21 
ROOT
HETATM    1  C6  UNL     1      24.989   3.026  51.465  1.00  0.00     0.159 A 
HETATM    2  N2  UNL     1      26.236   3.356  51.017  1.00  0.00    -0.220 NA
HETATM    3  C7  UNL     1      26.365   3.611  49.687  1.00  0.00     0.258 A 
HETATM    4  N3  UNL     1      25.302   3.536  48.866  1.00  0.00    -0.161 NA
HETATM    5  N4  UNL     1      24.075   3.214  49.296  1.00  0.00    -0.240 N 
HETATM    6  C8  UNL     1      22.859   3.032  48.792  1.00  0.00     0.119 A 
HETATM    7  C9  UNL     1      21.953   2.672  49.767  1.00  0.00     0.030 A 
HETATM    8  C10 UNL     1      22.651   2.625  50.982  1.00  0.00    -0.007 A 
HETATM    9  C17 UNL     1      23.931   2.963  50.600  1.00  0.00     0.112 A 
ENDROOT
BRANCH   1  10
HETATM   10  N1  UNL     1      25.129   2.742  52.873  1.00  0.00    -0.339 N 
HETATM   11  H6  UNL     1      24.726   3.067  53.777  1.00  0.00     0.167 HD
BRANCH  10  12
HETATM   12  C5  UNL     1      26.107   1.730  53.228  1.00  0.00     0.035 A 
HETATM   13  C4  UNL     1      27.214   1.911  54.074  1.00  0.00     0.032 A 
HETATM   14  C3  UNL     1      28.132   0.928  54.356  1.00  0.00     0.041 A 
HETATM   15  C2  UNL     1      27.995  -0.323  53.797  1.00  0.00     0.090 A 
HETATM   16  C19 UNL     1      26.921  -0.555  52.956  1.00  0.00     0.069 A 
HETATM   17  C18 UNL     1      26.020   0.455  52.695  1.00  0.00     0.056 A 
HETATM   18 CL1  UNL     1      26.710  -2.137  52.227  1.00  0.00    -0.081 Cl
BRANCH  15  19
HETATM   19  O1  UNL     1      28.863  -1.374  54.016  1.00  0.00    -0.354 OA
HETATM   20  C1  UNL     1      30.204  -1.455  53.663  1.00  0.00     0.210 C 
ENDBRANCH  15  19
ENDBRANCH  10  12
ENDBRANCH   1  10
BRANCH   8  21
HETATM   21  C11 UNL     1      21.978   2.416  52.258  1.00  0.00     0.158 C 
BRANCH  21  22
HETATM   22  N5  UNL     1      21.500   1.080  52.511  1.00  0.00    -0.408 N 
HETATM   23  C12 UNL     1      20.422   1.042  53.451  1.00  0.00     0.119 C 
HETATM   24  C13 UNL     1      20.672   0.482  54.790  1.00  0.00     0.055 C 
HETATM   25  C14 UNL     1      21.514  -0.765  54.715  1.00  0.00     0.221 C 
HETATM   26  C15 UNL     1      22.719  -0.582  53.861  1.00  0.00     0.055 C 
HETATM   27  C16 UNL     1      22.388   0.014  52.530  1.00  0.00     0.119 C 
BRANCH  25  28
HETATM   28  N6  UNL     1      20.693  -1.884  54.345  1.00  0.00     0.083 N 
HETATM   29  H17 UNL     1      20.625  -2.521  55.182  1.00  0.00     0.313 HD
HETATM   30  H18 UNL     1      21.150  -2.456  53.590  1.00  0.00     0.313 HD
ENDBRANCH  25  28
ENDBRANCH  21  22
ENDBRANCH   8  21
TORSDOF 6
ENDMDL
MODEL 3
REMARK VINA RESULT:      -7.8      1.776      5.238
REMARK  6 active torsions:
REMARK  status: ('A' for Active; 'I' for Inactive)
REMARK    1  A    between atoms: O1_2  and  C2_3 
REMARK    2  A    between atoms: C5_6  and  N1_7 
REMARK    3  A    between atoms: N1_7  and  C6_8 
REMARK    4  A    between atoms: C10_15  and  C11_16 
REMARK    5  A    between atoms: C11_16  and  N5_17 
REMARK    6  A    between atoms: C14_20  and  N6_21 
ROOT
HETATM    1  C6  UNL     1      26.812   1.785  53.479  1.00  0.00     0.159 A 
HETATM    2  N2  UNL     1      27.849   2.534  53.956  1.00  0.00    -0.220 NA
HETATM    3  C7  UNL     1      29.037   1.895  54.140  1.00  0.00     0.258 A 
HETATM    4  N3  UNL     1      29.164   0.587  53.859  1.00  0.00    -0.161 NA
HETATM    5  N4  UNL     1      28.152  -0.156  53.391  1.00  0.00    -0.240 N 
HETATM    6  C8  UNL     1      27.922  -1.418  53.043  1.00  0.00     0.119 A 
HETATM    7  C9  UNL     1      26.617  -1.602  52.635  1.00  0.00     0.030 A 
HETATM    8  C10 UNL     1      25.975  -0.360  52.731  1.00  0.00    -0.007 A 
HETATM    9  C17 UNL     1      26.980   0.456  53.202  1.00  0.00     0.112 A 
ENDROOT
BRANCH   1  10
HETATM   10  N1  UNL     1      25.667   2.663  53.437  1.00  0.00    -0.339 N 
HETATM   11  H6  UNL     1      24.930   3.013  54.084  1.00  0.00     0.167 HD
BRANCH  10  12
HETATM   12  C5  UNL     1      25.371   3.268  52.151  1.00  0.00     0.035 A 
HETATM   13  C4  UNL     1      26.140   3.142  50.982  1.00  0.00     0.032 A 
HETATM   14  C3  UNL     1      25.834   3.762  49.793  1.00  0.00     0.041 A 
HETATM   15  C2  UNL     1      24.717   4.561  49.701  1.00  0.00     0.090 A 
HETATM   16  C19 UNL     1      23.925   4.719  50.825  1.00  0.00     0.069 A 
HETATM   17  C18 UNL     1      24.262   4.083  52.000  1.00  0.00     0.056 A 
HETATM   18 CL1  UNL     1      22.490   5.726  50.746  1.00  0.00    -0.081 Cl
BRANCH  15  19
HETATM   19  O1  UNL     1      24.327   5.226  48.556  1.00  0.00    -0.354 OA
HETATM   20  C1  UNL     1      24.664   6.516  48.167  1.00  0.00     0.210 C 
ENDBRANCH  15  19
ENDBRANCH  10  12
ENDBRANCH   1  10
BRANCH   8  21
HETATM   21  C11 UNL     1      24.618  -0.146  52.245  1.00  0.00     0.158 C 
BRANCH  21  22
HETATM   22  N5  UNL     1      23.642   0.232  53.236  1.00  0.00    -0.408 N 
HETATM   23  C12 UNL     1      23.404  -0.796  54.204  1.00  0.00     0.119 C 
HETATM   24  C13 UNL     1      22.115  -1.505  54.179  1.00  0.00     0.055 C 
HETATM   25  C14 UNL     1      20.969  -0.555  53.945  1.00  0.00     0.221 C 
HETATM   26  C15 UNL     1      21.220   0.360  52.798  1.00  0.00     0.055 C 
HETATM   27  C16 UNL     1      22.558   1.023  52.881  1.00  0.00     0.119 C 
BRANCH  25  28
HETATM   28  N6  UNL     1      20.634   0.115  55.171  1.00  0.00     0.083 N 
HETATM   29  H17 UNL     1      20.226   1.053  54.922  1.00  0.00     0.313 HD
HETATM   30  H18 UNL     1      21.495   0.322  55.737  1.00  0.00     0.313 HD
ENDBRANCH  25  28
ENDBRANCH  21  22
ENDBRANCH   8  21
TORSDOF 6
ENDMDL
MODEL 4
REMARK VINA RESULT:      -7.7      3.298      7.312
REMARK  6 active torsions:
REMARK  status: ('A' for Active; 'I' for Inactive)
REMARK    1  A    between atoms: O1_2  and  C2_3 
REMARK    2  A    between atoms: C5_6  and  N1_7 
REMARK    3  A    between atoms: N1_7  and  C6_8 
REMARK    4  A    between atoms: C10_15  and  C11_16 
REMARK    5  A    between atoms: C11_16  and  N5_17 
REMARK    6  A    between atoms: C14_20  and  N6_21 
ROOT
HETATM    1  C6  UNL     1      23.720   2.354  51.510  1.00  0.00     0.159 A 
HETATM    2  N2  UNL     1      24.694   3.305  51.418  1.00  0.00    -0.220 NA
HETATM    3  C7  UNL     1      24.870   3.891  50.202  1.00  0.00     0.258 A 
HETATM    4  N3  UNL     1      24.110   3.537  49.152  1.00  0.00    -0.161 NA
HETATM    5  N4  UNL     1      23.150   2.605  49.233  1.00  0.00    -0.240 N 
HETATM    6  C8  UNL     1      22.265   2.015  48.436  1.00  0.00     0.119 A 
HETATM    7  C9  UNL     1      21.523   1.070  49.112  1.00  0.00     0.030 A 
HETATM    8  C10 UNL     1      21.973   1.064  50.440  1.00  0.00    -0.007 A 
HETATM    9  C17 UNL     1      22.963   2.022  50.420  1.00  0.00     0.112 A 
ENDROOT
BRANCH   1  10
HETATM   10  N1  UNL     1      23.778   1.847  52.860  1.00  0.00    -0.339 N 
HETATM   11  H6  UNL     1      23.178   1.828  53.711  1.00  0.00     0.167 HD
BRANCH  10  12
HETATM   12  C5  UNL     1      25.002   1.162  53.235  1.00  0.00     0.035 A 
HETATM   13  C4  UNL     1      25.979   1.642  54.122  1.00  0.00     0.032 A 
HETATM   14  C3  UNL     1      27.139   0.968  54.422  1.00  0.00     0.041 A 
HETATM   15  C2  UNL     1      27.396  -0.252  53.839  1.00  0.00     0.090 A 
HETATM   16  C19 UNL     1      26.466  -0.770  52.956  1.00  0.00     0.069 A 
HETATM   17  C18 UNL     1      25.314  -0.067  52.679  1.00  0.00     0.056 A 
HETATM   18 CL1  UNL     1      26.756  -2.326  52.197  1.00  0.00    -0.081 Cl
BRANCH  15  19
HETATM   19  O1  UNL     1      28.530  -1.004  54.074  1.00  0.00    -0.354 OA
HETATM   20  C1  UNL     1      29.770  -0.884  53.458  1.00  0.00     0.210 C 
ENDBRANCH  15  19
ENDBRANCH  10  12
ENDBRANCH   1  10
BRANCH   8  21
HETATM   21  C11 UNL     1      21.315   0.285  51.481  1.00  0.00     0.158 C 
BRANCH  21  22
HETATM   22  N5  UNL     1      20.038   0.779  51.930  1.00  0.00    -0.408 N 
HETATM   23  C12 UNL     1      18.932   0.103  51.322  1.00  0.00     0.119 C 
HETATM   24  C13 UNL     1      18.113   0.832  50.341  1.00  0.00     0.055 C 
HETATM   25  C14 UNL     1      17.843   2.245  50.791  1.00  0.00     0.221 C 
HETATM   26  C15 UNL     1      19.081   2.941  51.236  1.00  0.00     0.055 C 
HETATM   27  C16 UNL     1      19.872   2.128  52.210  1.00  0.00     0.119 C 
BRANCH  25  28
HETATM   28  N6  UNL     1      16.782   2.253  51.759  1.00  0.00     0.083 N 
HETATM   29  H17 UNL     1      16.425   1.266  51.850  1.00  0.00     0.313 HD
HETATM   30  H18 UNL     1      15.964   2.820  51.420  1.00  0.00     0.313 HD
ENDBRANCH  25  28
ENDBRANCH  21  22
ENDBRANCH   8  21
TORSDOF 6
ENDMDL
MODEL 5
REMARK VINA RESULT:      -7.7      1.769      2.480
REMARK  6 active torsions:
REMARK  status: ('A' for Active; 'I' for Inactive)
REMARK    1  A    between atoms: O1_2  and  C2_3 
REMARK    2  A    between atoms: C5_6  and  N1_7 
REMARK    3  A    between atoms: N1_7  and  C6_8 
REMARK    4  A    between atoms: C10_15  and  C11_16 
REMARK    5  A    between atoms: C11_16  and  N5_17 
REMARK    6  A    between atoms: C14_20  and  N6_21 
ROOT
HETATM    1  C6  UNL     1      21.872   2.869  50.919  1.00  0.00     0.159 A 
HETATM    2  N2  UNL     1      20.818   3.658  50.557  1.00  0.00    -0.220 NA
HETATM    3  C7  UNL     1      19.694   3.572  51.319  1.00  0.00     0.258 A 
HETATM    4  N3  UNL     1      19.643   2.743  52.377  1.00  0.00    -0.161 NA
HETATM    5  N4  UNL     1      20.671   1.966  52.740  1.00  0.00    -0.240 N 
HETATM    6  C8  UNL     1      20.953   1.056  53.667  1.00  0.00     0.119 A 
HETATM    7  C9  UNL     1      22.232   0.561  53.521  1.00  0.00     0.030 A 
HETATM    8  C10 UNL     1      22.802   1.210  52.416  1.00  0.00    -0.007 A 
HETATM    9  C17 UNL     1      21.783   2.040  52.003  1.00  0.00     0.112 A 
ENDROOT
BRANCH   1  10
HETATM   10  N1  UNL     1      22.900   3.090  49.930  1.00  0.00    -0.339 N 
HETATM   11  H6  UNL     1      23.274   2.623  49.078  1.00  0.00     0.167 HD
BRANCH  10  12
HETATM   12  C5  UNL     1      23.709   4.283  50.104  1.00  0.00     0.035 A 
HETATM   13  C4  UNL     1      23.402   5.378  50.928  1.00  0.00     0.032 A 
HETATM   14  C3  UNL     1      24.187   6.501  51.036  1.00  0.00     0.041 A 
HETATM   15  C2  UNL     1      25.353   6.597  50.310  1.00  0.00     0.090 A 
HETATM   16  C19 UNL     1      25.703   5.545  49.482  1.00  0.00     0.069 A 
HETATM   17  C18 UNL     1      24.891   4.435  49.398  1.00  0.00     0.056 A 
HETATM   18 CL1  UNL     1      27.184   5.629  48.544  1.00  0.00    -0.081 Cl
BRANCH  15  19
HETATM   19  O1  UNL     1      26.207   7.681  50.348  1.00  0.00    -0.354 OA
HETATM   20  C1  UNL     1      25.934   8.989  49.971  1.00  0.00     0.210 C 
ENDBRANCH  15  19
ENDBRANCH  10  12
ENDBRANCH   1  10
BRANCH   8  21
HETATM   21  C11 UNL     1      24.203   1.039  52.051  1.00  0.00     0.158 C 
BRANCH  21  22
HETATM   22  N5  UNL     1      25.114   0.785  53.138  1.00  0.00    -0.408 N 
HETATM   23  C12 UNL     1      25.783   1.966  53.593  1.00  0.00     0.119 C 
HETATM   24  C13 UNL     1      27.220   2.116  53.312  1.00  0.00     0.055 C 
HETATM   25  C14 UNL     1      27.962   0.823  53.533  1.00  0.00     0.221 C 
HETATM   26  C15 UNL     1      27.295  -0.331  52.869  1.00  0.00     0.055 C 
HETATM   27  C16 UNL     1      25.835  -0.401  53.182  1.00  0.00     0.119 C 
BRANCH  25  28
HETATM   28  N6  UNL     1      28.205   0.636  54.937  1.00  0.00     0.083 N 
HETATM   29  H17 UNL     1      27.275   0.468  55.402  1.00  0.00     0.313 HD
HETATM   30  H18 UNL     1      28.587   1.512  55.375  1.00  0.00     0.313 HD
ENDBRANCH  25  28
ENDBRANCH  21  22
ENDBRANCH   8  21
TORSDOF 6
ENDMDL
MODEL 6
REMARK VINA RESULT:      -7.7      1.774      5.132
REMARK  6 active torsions:
REMARK  status: ('A' for Active; 'I' for Inactive)
REMARK    1  A    between atoms: O1_2  and  C2_3 
REMARK    2  A    between atoms: C5_6  and  N1_7 
REMARK    3  A    between atoms: N1_7  and  C6_8 
REMARK    4  A    between atoms: C10_15  and  C11_16 
REMARK    5  A    between atoms: C11_16  and  N5_17 
REMARK    6  A    between atoms: C14_20  and  N6_21 
ROOT
HETATM    1  C6  UNL     1      24.868   0.204  52.970  1.00  0.00     0.159 A 
HETATM    2  N2  UNL     1      26.174   0.303  53.355  1.00  0.00    -0.220 NA
HETATM    3  C7  UNL     1      26.492  -0.182  54.585  1.00  0.00     0.258 A 
HETATM    4  N3  UNL     1      25.550  -0.732  55.372  1.00  0.00    -0.161 NA
HETATM    5  N4  UNL     1      24.267  -0.835  55.003  1.00  0.00    -0.240 N 
HETATM    6  C8  UNL     1      23.118  -1.277  55.505  1.00  0.00     0.119 A 
HETATM    7  C9  UNL     1      22.073  -1.091  54.625  1.00  0.00     0.030 A 
HETATM    8  C10 UNL     1      22.604  -0.487  53.476  1.00  0.00    -0.007 A 
HETATM    9  C17 UNL     1      23.938  -0.365  53.796  1.00  0.00     0.112 A 
ENDROOT
BRANCH   1  10
HETATM   10  N1  UNL     1      24.779   0.840  51.678  1.00  0.00    -0.339 N 
HETATM   11  H6  UNL     1      24.943   0.599  50.678  1.00  0.00     0.167 HD
BRANCH  10  12
HETATM   12  C5  UNL     1      24.361   2.231  51.676  1.00  0.00     0.035 A 
HETATM   13  C4  UNL     1      24.165   3.036  52.810  1.00  0.00     0.032 A 
HETATM   14  C3  UNL     1      23.737   4.342  52.759  1.00  0.00     0.041 A 
HETATM   15  C2  UNL     1      23.475   4.932  51.543  1.00  0.00     0.090 A 
HETATM   16  C19 UNL     1      23.651   4.182  50.394  1.00  0.00     0.069 A 
HETATM   17  C18 UNL     1      24.080   2.875  50.483  1.00  0.00     0.056 A 
HETATM   18 CL1  UNL     1      23.330   4.901  48.825  1.00  0.00    -0.081 Cl
BRANCH  15  19
HETATM   19  O1  UNL     1      23.040   6.233  51.386  1.00  0.00    -0.354 OA
HETATM   20  C1  UNL     1      23.813   7.363  51.150  1.00  0.00     0.210 C 
ENDBRANCH  15  19
ENDBRANCH  10  12
ENDBRANCH   1  10
BRANCH   8  21
HETATM   21  C11 UNL     1      21.809  -0.271  52.273  1.00  0.00     0.158 C 
BRANCH  21  22
HETATM   22  N5  UNL     1      20.609   0.510  52.438  1.00  0.00    -0.408 N 
HETATM   23  C12 UNL     1      19.559   0.112  51.551  1.00  0.00     0.119 C 
HETATM   24  C13 UNL     1      19.188   1.013  50.447  1.00  0.00     0.055 C 
HETATM   25  C14 UNL     1      19.148   2.450  50.899  1.00  0.00     0.221 C 
HETATM   26  C15 UNL     1      20.368   2.836  51.660  1.00  0.00     0.055 C 
HETATM   27  C16 UNL     1      20.694   1.861  52.746  1.00  0.00     0.119 C 
BRANCH  25  28
HETATM   28  N6  UNL     1      17.916   2.708  51.590  1.00  0.00     0.083 N 
HETATM   29  H17 UNL     1      17.208   3.024  50.876  1.00  0.00     0.313 HD
HETATM   30  H18 UNL     1      18.018   3.510  52.262  1.00  0.00     0.313 HD
ENDBRANCH  25  28
ENDBRANCH  21  22
ENDBRANCH   8  21
TORSDOF 6
ENDMDL
MODEL 7
REMARK VINA RESULT:      -7.7      2.908      6.065
REMARK  6 active torsions:
REMARK  status: ('A' for Active; 'I' for Inactive)
REMARK    1  A    between atoms: O1_2  and  C2_3 
REMARK    2  A    between atoms: C5_6  and  N1_7 
REMARK    3  A    between atoms: N1_7  and  C6_8 
REMARK    4  A    between atoms: C10_15  and  C11_16 
REMARK    5  A    between atoms: C11_16  and  N5_17 
REMARK    6  A    between atoms: C14_20  and  N6_21 
ROOT
HETATM    1  C6  UNL     1      22.950   1.489  51.979  1.00  0.00     0.159 A 
HETATM    2  N2  UNL     1      22.025   0.651  52.532  1.00  0.00    -0.220 NA
HETATM    3  C7  UNL     1      21.034   0.203  51.714  1.00  0.00     0.258 A 
HETATM    4  N3  UNL     1      20.983   0.580  50.425  1.00  0.00    -0.161 NA
HETATM    5  N4  UNL     1      21.886   1.402  49.873  1.00  0.00    -0.240 N 
HETATM    6  C8  UNL     1      22.124   1.975  48.698  1.00  0.00     0.119 A 
HETATM    7  C9  UNL     1      23.247   2.775  48.741  1.00  0.00     0.030 A 
HETATM    8  C10 UNL     1      23.759   2.699  50.044  1.00  0.00    -0.007 A 
HETATM    9  C17 UNL     1      22.868   1.848  50.662  1.00  0.00     0.112 A 
ENDROOT
BRANCH   1  10
HETATM   10  N1  UNL     1      23.840   1.869  53.050  1.00  0.00    -0.339 N 
HETATM   11  H6  UNL     1      23.843   2.513  53.869  1.00  0.00     0.167 HD
BRANCH  10  12
HETATM   12  C5  UNL     1      25.142   1.228  53.058  1.00  0.00     0.035 A 
HETATM   13  C4  UNL     1      25.398  -0.127  52.788  1.00  0.00     0.032 A 
HETATM   14  C3  UNL     1      26.649  -0.695  52.838  1.00  0.00     0.041 A 
HETATM   15  C2  UNL     1      27.742   0.075  53.169  1.00  0.00     0.090 A 
HETATM   16  C19 UNL     1      27.544   1.416  53.445  1.00  0.00     0.069 A 
HETATM   17  C18 UNL     1      26.276   1.952  53.385  1.00  0.00     0.056 A 
HETATM   18 CL1  UNL     1      28.913   2.430  53.866  1.00  0.00    -0.081 Cl
BRANCH  15  19
HETATM   19  O1  UNL     1      29.035  -0.402  53.248  1.00  0.00    -0.354 OA
HETATM   20  C1  UNL     1      29.445  -1.721  53.397  1.00  0.00     0.210 C 
ENDBRANCH  15  19
ENDBRANCH  10  12
ENDBRANCH   1  10
BRANCH   8  21
HETATM   21  C11 UNL     1      25.029   3.307  50.418  1.00  0.00     0.158 C 
BRANCH  21  22
HETATM   22  N5  UNL     1      24.978   4.696  50.800  1.00  0.00    -0.408 N 
HETATM   23  C12 UNL     1      23.867   5.000  51.650  1.00  0.00     0.119 C 
HETATM   24  C13 UNL     1      22.761   5.805  51.106  1.00  0.00     0.055 C 
HETATM   25  C14 UNL     1      23.273   6.950  50.270  1.00  0.00     0.221 C 
HETATM   26  C15 UNL     1      24.296   6.513  49.281  1.00  0.00     0.055 C 
HETATM   27  C16 UNL     1      25.371   5.680  49.904  1.00  0.00     0.119 C 
BRANCH  25  28
HETATM   28  N6  UNL     1      23.700   8.023  51.125  1.00  0.00     0.083 N 
HETATM   29  H17 UNL     1      23.826   8.879  50.525  1.00  0.00     0.313 HD
HETATM   30  H18 UNL     1      24.646   7.825  51.538  1.00  0.00     0.313 HD
ENDBRANCH  25  28
ENDBRANCH  21  22
ENDBRANCH   8  21
TORSDOF 6
ENDMDL
MODEL 8
REMARK VINA RESULT:      -7.6      2.393      3.649
REMARK  6 active torsions:
REMARK  status: ('A' for Active; 'I' for Inactive)
REMARK    1  A    between atoms: O1_2  and  C2_3 
REMARK    2  A    between atoms: C5_6  and  N1_7 
REMARK    3  A    between atoms: N1_7  and  C6_8 
REMARK    4  A    between atoms: C10_15  and  C11_16 
REMARK    5  A    between atoms: C11_16  and  N5_17 
REMARK    6  A    between atoms: C14_20  and  N6_21 
ROOT
HETATM    1  C6  UNL     1      22.538   3.420  51.185  1.00  0.00     0.159 A 
HETATM    2  N2  UNL     1      21.832   4.250  50.362  1.00  0.00    -0.220 NA
HETATM    3  C7  UNL     1      20.766   3.710  49.711  1.00  0.00     0.258 A 
HETATM    4  N3  UNL     1      20.439   2.417  49.881  1.00  0.00    -0.161 NA
HETATM    5  N4  UNL     1      21.125   1.596  50.687  1.00  0.00    -0.240 N 
HETATM    6  C8  UNL     1      21.103   0.321  51.062  1.00  0.00     0.119 A 
HETATM    7  C9  UNL     1      22.125   0.032  51.942  1.00  0.00     0.030 A 
HETATM    8  C10 UNL     1      22.847   1.217  52.140  1.00  0.00    -0.007 A 
HETATM    9  C17 UNL     1      22.173   2.111  51.336  1.00  0.00     0.112 A 
ENDROOT
BRANCH   1  10
HETATM   10  N1  UNL     1      23.638   4.201  51.697  1.00  0.00    -0.339 N 
HETATM   11  H6  UNL     1      23.917   4.665  52.587  1.00  0.00     0.167 HD
BRANCH  10  12
HETATM   12  C5  UNL     1      24.710   4.488  50.760  1.00  0.00     0.035 A 
HETATM   13  C4  UNL     1      25.640   3.562  50.259  1.00  0.00     0.032 A 
HETATM   14  C3  UNL     1      26.659   3.889  49.396  1.00  0.00     0.041 A 
HETATM   15  C2  UNL     1      26.811   5.190  48.973  1.00  0.00     0.090 A 
HETATM   16  C19 UNL     1      25.921   6.143  49.437  1.00  0.00     0.069 A 
HETATM   17  C18 UNL     1      24.912   5.779  50.302  1.00  0.00     0.056 A 
HETATM   18 CL1  UNL     1      26.081   7.811  48.917  1.00  0.00    -0.081 Cl
BRANCH  15  19
HETATM   19  O1  UNL     1      27.800   5.618  48.111  1.00  0.00    -0.354 OA
HETATM   20  C1  UNL     1      29.174   5.462  48.251  1.00  0.00     0.210 C 
ENDBRANCH  15  19
ENDBRANCH  10  12
ENDBRANCH   1  10
BRANCH   8  21
HETATM   21  C11 UNL     1      23.917   1.322  53.124  1.00  0.00     0.158 C 
BRANCH  21  22
HETATM   22  N5  UNL     1      24.958   0.329  53.036  1.00  0.00    -0.408 N 
HETATM   23  C12 UNL     1      25.313  -0.221  54.309  1.00  0.00     0.119 C 
HETATM   24  C13 UNL     1      26.620   0.125  54.889  1.00  0.00     0.055 C 
HETATM   25  C14 UNL     1      27.708   0.104  53.845  1.00  0.00     0.221 C 
HETATM   26  C15 UNL     1      27.328   0.858  52.619  1.00  0.00     0.055 C 
HETATM   27  C16 UNL     1      25.978   0.469  52.106  1.00  0.00     0.119 C 
BRANCH  25  28
HETATM   28  N6  UNL     1      28.119  -1.251  53.600  1.00  0.00     0.083 N 
HETATM   29  H17 UNL     1      27.477  -1.652  52.867  1.00  0.00     0.313 HD
HETATM   30  H18 UNL     1      27.982  -1.849  54.454  1.00  0.00     0.313 HD
ENDBRANCH  25  28
ENDBRANCH  21  22
ENDBRANCH   8  21
TORSDOF 6
ENDMDL
MODEL 9
REMARK VINA RESULT:      -7.6      3.334      5.828
REMARK  6 active torsions:
REMARK  status: ('A' for Active; 'I' for Inactive)
REMARK    1  A    between atoms: O1_2  and  C2_3 
REMARK    2  A    between atoms: C5_6  and  N1_7 
REMARK    3  A    between atoms: N1_7  and  C6_8 
REMARK    4  A    between atoms: C10_15  and  C11_16 
REMARK    5  A    between atoms: C11_16  and  N5_17 
REMARK    6  A    between atoms: C14_20  and  N6_21 
ROOT
HETATM    1  C6  UNL     1      22.469   2.396  51.339  1.00  0.00     0.159 A 
HETATM    2  N2  UNL     1      21.706   1.612  52.155  1.00  0.00    -0.220 NA
HETATM    3  C7  UNL     1      20.584   2.176  52.678  1.00  0.00     0.258 A 
HETATM    4  N3  UNL     1      20.257   3.448  52.393  1.00  0.00    -0.161 NA
HETATM    5  N4  UNL     1      20.999   4.225  51.592  1.00  0.00    -0.240 N 
HETATM    6  C8  UNL     1      20.993   5.472  51.131  1.00  0.00     0.119 A 
HETATM    7  C9  UNL     1      22.081   5.719  50.320  1.00  0.00     0.030 A 
HETATM    8  C10 UNL     1      22.831   4.535  50.265  1.00  0.00    -0.007 A 
HETATM    9  C17 UNL     1      22.103   3.686  51.069  1.00  0.00     0.112 A 
ENDROOT
BRANCH   1  10
HETATM   10  N1  UNL     1      23.618   1.602  50.974  1.00  0.00    -0.339 N 
HETATM   11  H6  UNL     1      23.940   1.021  50.172  1.00  0.00     0.167 HD
BRANCH  10  12
HETATM   12  C5  UNL     1      24.678   1.518  51.963  1.00  0.00     0.035 A 
HETATM   13  C4  UNL     1      25.045   2.526  52.869  1.00  0.00     0.032 A 
HETATM   14  C3  UNL     1      26.079   2.410  53.768  1.00  0.00     0.041 A 
HETATM   15  C2  UNL     1      26.824   1.254  53.814  1.00  0.00     0.090 A 
HETATM   16  C19 UNL     1      26.504   0.228  52.941  1.00  0.00     0.069 A 
HETATM   17  C18 UNL     1      25.461   0.379  52.054  1.00  0.00     0.056 A 
HETATM   18 CL1  UNL     1      27.428  -1.264  52.973  1.00  0.00    -0.081 Cl
BRANCH  15  19
HETATM   19  O1  UNL     1      27.880   1.041  54.676  1.00  0.00    -0.354 OA
HETATM   20  C1  UNL     1      29.206   1.419  54.503  1.00  0.00     0.210 C 
ENDBRANCH  15  19
ENDBRANCH  10  12
ENDBRANCH   1  10
BRANCH   8  21
HETATM   21  C11 UNL     1      23.981   4.384  49.381  1.00  0.00     0.158 C 
BRANCH  21  22
HETATM   22  N5  UNL     1      25.139   5.176  49.707  1.00  0.00    -0.408 N 
HETATM   23  C12 UNL     1      25.078   6.501  49.168  1.00  0.00     0.119 C 
HETATM   24  C13 UNL     1      25.981   6.855  48.061  1.00  0.00     0.055 C 
HETATM   25  C14 UNL     1      27.368   6.308  48.286  1.00  0.00     0.221 C 
HETATM   26  C15 UNL     1      27.351   4.868  48.666  1.00  0.00     0.055 C 
HETATM   27  C16 UNL     1      26.392   4.584  49.777  1.00  0.00     0.119 C 
BRANCH  25  28
HETATM   28  N6  UNL     1      28.080   7.152  49.204  1.00  0.00     0.083 N 
HETATM   29  H17 UNL     1      28.900   6.602  49.574  1.00  0.00     0.313 HD
HETATM   30  H18 UNL     1      27.491   7.381  50.044  1.00  0.00     0.313 HD
ENDBRANCH  25  28
ENDBRANCH  21  22
ENDBRANCH   8  21
TORSDOF 6
ENDMDL
