MODEL 1
REMARK VINA RESULT:      -7.9      0.000      0.000
REMARK  8 active torsions:
REMARK  status: ('A' for Active; 'I' for Inactive)
REMARK    1  A    between atoms: C4_5  and  N1_6 
REMARK    2  A    between atoms: N1_6  and  C5_7 
REMARK    3  A    between atoms: C7_11  and  C8_12 
REMARK    4  A    between atoms: C8_12  and  N4_14 
REMARK    5  A    between atoms: N4_14  and  C9_15 
REMARK    6  A    between atoms: C9_15  and  C10_16 
REMARK    7  A    between atoms: C10_16  and  C11_17 
REMARK    8  A    between atoms: C11_17  and  N5_18 
ROOT
HETATM    1  C5  UNL     1      24.781   3.016  51.754  1.00  0.00     0.129 A 
HETATM    2  N2  UNL     1      24.029   4.044  52.066  1.00  0.00    -0.225 NA
HETATM    3  C6  UNL     1      23.871   5.255  51.346  1.00  0.00     0.230 A 
HETATM    4  N3  UNL     1      24.426   5.573  50.255  1.00  0.00    -0.267 NA
HETATM    5  C7  UNL     1      25.337   5.047  49.294  1.00  0.00     0.193 A 
HETATM    6  C16 UNL     1      25.843   3.706  49.616  1.00  0.00     0.011 A 
HETATM    7  C17 UNL     1      25.664   2.811  50.601  1.00  0.00     0.049 A 
ENDROOT
BRANCH   5   8
HETATM    8  C8  UNL     1      26.504   6.005  49.216  1.00  0.00     0.102 C 
HETATM    9  S1  UNL     1      26.236   7.614  49.465  1.00  0.00    -0.063 SA
BRANCH   8  10
HETATM   10  N4  UNL     1      27.830   5.591  48.931  1.00  0.00    -0.382 N 
HETATM   11  H6  UNL     1      28.049   4.617  49.298  1.00  0.00     0.160 HD
BRANCH  10  12
HETATM   12  C9  UNL     1      28.861   6.303  48.236  1.00  0.00     0.122 C 
BRANCH  12  13
HETATM   13  C10 UNL     1      30.064   5.371  47.984  1.00  0.00     0.039 C 
BRANCH  13  14
HETATM   14  C11 UNL     1      31.197   5.962  48.749  1.00  0.00     0.118 C 
BRANCH  14  15
HETATM   15  N5  UNL     1      32.462   5.343  48.645  1.00  0.00    -0.408 N 
HETATM   16  C12 UNL     1      33.590   6.227  48.665  1.00  0.00     0.143 C 
HETATM   17  C13 UNL     1      34.901   5.539  48.815  1.00  0.00     0.187 C 
HETATM   18  O1  UNL     1      34.900   4.244  48.305  1.00  0.00    -0.388 OA
HETATM   19  C14 UNL     1      33.983   4.084  47.283  1.00  0.00     0.187 C 
HETATM   20  C15 UNL     1      32.550   4.268  47.706  1.00  0.00     0.143 C 
ENDBRANCH  14  15
ENDBRANCH  13  14
ENDBRANCH  12  13
ENDBRANCH  10  12
ENDBRANCH   8  10
ENDBRANCH   5   8
BRANCH   1  21
HETATM   21  N1  UNL     1      24.680   1.966  52.733  1.00  0.00    -0.341 N 
HETATM   22  H3  UNL     1      23.733   1.900  53.213  1.00  0.00     0.167 HD
BRANCH  21  23
HETATM   23  C4  UNL     1      25.877   1.178  52.906  1.00  0.00     0.035 A 
HETATM   24  C3  UNL     1      26.059  -0.129  52.547  1.00  0.00     0.032 A 
HETATM   25  C2  UNL     1      27.266  -0.747  52.777  1.00  0.00     0.046 A 
HETATM   26  C1  UNL     1      28.336  -0.101  53.369  1.00  0.00     0.138 A 
HETATM   27  F1  UNL     1      29.512  -0.766  53.573  1.00  0.00    -0.204 F 
HETATM   28  C19 UNL     1      28.143   1.221  53.729  1.00  0.00     0.074 A 
HETATM   29  C18 UNL     1      26.919   1.863  53.501  1.00  0.00     0.056 A 
HETATM   30 CL1  UNL     1      29.470   2.102  54.493  1.00  0.00    -0.081 Cl
ENDBRANCH  21  23
ENDBRANCH   1  21
TORSDOF 8
ENDMDL
MODEL 2
REMARK VINA RESULT:      -7.8      4.492      5.786
REMARK  8 active torsions:
REMARK  status: ('A' for Active; 'I' for Inactive)
REMARK    1  A    between atoms: C4_5  and  N1_6 
REMARK    2  A    between atoms: N1_6  and  C5_7 
REMARK    3  A    between atoms: C7_11  and  C8_12 
REMARK    4  A    between atoms: C8_12  and  N4_14 
REMARK    5  A    between atoms: N4_14  and  C9_15 
REMARK    6  A    between atoms: C9_15  and  C10_16 
REMARK    7  A    between atoms: C10_16  and  C11_17 
REMARK    8  A    between atoms: C11_17  and  N5_18 
ROOT
HETATM    1  C5  UNL     1      22.183   3.207  50.475  1.00  0.00     0.129 A 
HETATM    2  N2  UNL     1      22.338   3.877  51.592  1.00  0.00    -0.225 NA
HETATM    3  C6  UNL     1      23.176   4.997  51.824  1.00  0.00     0.230 A 
HETATM    4  N3  UNL     1      23.935   5.569  50.990  1.00  0.00    -0.267 NA
HETATM    5  C7  UNL     1      24.332   5.476  49.625  1.00  0.00     0.193 A 
HETATM    6  C16 UNL     1      23.700   4.373  48.888  1.00  0.00     0.011 A 
HETATM    7  C17 UNL     1      22.812   3.403  49.165  1.00  0.00     0.049 A 
ENDROOT
BRANCH   5   8
HETATM    8  C8  UNL     1      25.830   5.279  49.609  1.00  0.00     0.102 C 
HETATM    9  S1  UNL     1      26.750   6.228  48.621  1.00  0.00    -0.063 SA
BRANCH   8  10
HETATM   10  N4  UNL     1      26.495   4.309  50.402  1.00  0.00    -0.382 N 
HETATM   11  H6  UNL     1      27.165   4.737  51.108  1.00  0.00     0.160 HD
BRANCH  10  12
HETATM   12  C9  UNL     1      26.371   2.881  50.361  1.00  0.00     0.122 C 
BRANCH  12  13
HETATM   13  C10 UNL     1      25.981   2.349  51.755  1.00  0.00     0.039 C 
BRANCH  13  14
HETATM   14  C11 UNL     1      26.492   0.951  51.810  1.00  0.00     0.118 C 
BRANCH  14  15
HETATM   15  N5  UNL     1      27.712   0.717  52.480  1.00  0.00    -0.408 N 
HETATM   16  C12 UNL     1      27.868  -0.590  53.046  1.00  0.00     0.143 C 
HETATM   17  C13 UNL     1      29.248  -0.892  53.514  1.00  0.00     0.187 C 
HETATM   18  O1  UNL     1      29.955   0.244  53.898  1.00  0.00    -0.388 OA
HETATM   19  C14 UNL     1      29.121   1.253  54.344  1.00  0.00     0.187 C 
HETATM   20  C15 UNL     1      28.188   1.791  53.294  1.00  0.00     0.143 C 
ENDBRANCH  14  15
ENDBRANCH  13  14
ENDBRANCH  12  13
ENDBRANCH  10  12
ENDBRANCH   8  10
ENDBRANCH   5   8
BRANCH   1  21
HETATM   21  N1  UNL     1      21.243   2.129  50.628  1.00  0.00    -0.341 N 
HETATM   22  H3  UNL     1      20.598   1.983  49.793  1.00  0.00     0.167 HD
BRANCH  21  23
HETATM   23  C4  UNL     1      21.324   1.424  51.884  1.00  0.00     0.035 A 
HETATM   24  C3  UNL     1      20.368   1.371  52.861  1.00  0.00     0.032 A 
HETATM   25  C2  UNL     1      20.593   0.650  54.010  1.00  0.00     0.046 A 
HETATM   26  C1  UNL     1      21.767  -0.043  54.240  1.00  0.00     0.138 A 
HETATM   27  F1  UNL     1      21.936  -0.743  55.401  1.00  0.00    -0.204 F 
HETATM   28  C19 UNL     1      22.730   0.015  53.247  1.00  0.00     0.074 A 
HETATM   29  C18 UNL     1      22.514   0.745  52.071  1.00  0.00     0.056 A 
HETATM   30 CL1  UNL     1      24.254  -0.847  53.480  1.00  0.00    -0.081 Cl
ENDBRANCH  21  23
ENDBRANCH   1  21
TORSDOF 8
ENDMDL
MODEL 3
REMARK VINA RESULT:      -7.8      5.689      7.433
REMARK  8 active torsions:
REMARK  status: ('A' for Active; 'I' for Inactive)
REMARK    1  A    between atoms: C4_5  and  N1_6 
REMARK    2  A    between atoms: N1_6  and  C5_7 
REMARK    3  A    between atoms: C7_11  and  C8_12 
REMARK    4  A    between atoms: C8_12  and  N4_14 
REMARK    5  A    between atoms: N4_14  and  C9_15 
REMARK    6  A    between atoms: C9_15  and  C10_16 
REMARK    7  A    between atoms: C10_16  and  C11_17 
REMARK    8  A    between atoms: C11_17  and  N5_18 
ROOT
HETATM    1  C5  UNL     1      20.735   3.441  50.936  1.00  0.00     0.129 A 
HETATM    2  N2  UNL     1      20.960   4.570  51.566  1.00  0.00    -0.225 NA
HETATM    3  C6  UNL     1      22.161   5.322  51.598  1.00  0.00     0.230 A 
HETATM    4  N3  UNL     1      23.250   5.047  51.018  1.00  0.00    -0.267 NA
HETATM    5  C7  UNL     1      23.822   4.054  50.172  1.00  0.00     0.193 A 
HETATM    6  C16 UNL     1      22.906   2.957  49.829  1.00  0.00     0.011 A 
HETATM    7  C17 UNL     1      21.631   2.634  50.102  1.00  0.00     0.049 A 
ENDROOT
BRANCH   5   8
HETATM    8  C8  UNL     1      25.018   3.483  50.899  1.00  0.00     0.102 C 
HETATM    9  S1  UNL     1      26.410   3.210  50.056  1.00  0.00    -0.063 SA
BRANCH   8  10
HETATM   10  N4  UNL     1      25.006   3.161  52.280  1.00  0.00    -0.382 N 
HETATM   11  H6  UNL     1      25.747   3.685  52.835  1.00  0.00     0.160 HD
BRANCH  10  12
HETATM   12  C9  UNL     1      24.148   2.252  52.981  1.00  0.00     0.122 C 
BRANCH  12  13
HETATM   13  C10 UNL     1      24.424   0.808  52.519  1.00  0.00     0.039 C 
BRANCH  13  14
HETATM   14  C11 UNL     1      24.748   0.044  53.756  1.00  0.00     0.118 C 
BRANCH  14  15
HETATM   15  N5  UNL     1      26.086  -0.362  53.954  1.00  0.00    -0.408 N 
HETATM   16  C12 UNL     1      26.982   0.657  54.415  1.00  0.00     0.143 C 
HETATM   17  C13 UNL     1      28.308   0.147  54.860  1.00  0.00     0.187 C 
HETATM   18  O1  UNL     1      28.684  -1.029  54.217  1.00  0.00    -0.388 OA
HETATM   19  C14 UNL     1      28.123  -1.141  52.958  1.00  0.00     0.187 C 
HETATM   20  C15 UNL     1      26.621  -1.237  52.959  1.00  0.00     0.143 C 
ENDBRANCH  14  15
ENDBRANCH  13  14
ENDBRANCH  12  13
ENDBRANCH  10  12
ENDBRANCH   8  10
ENDBRANCH   5   8
BRANCH   1  21
HETATM   21  N1  UNL     1      19.388   2.978  51.139  1.00  0.00    -0.341 N 
HETATM   22  H3  UNL     1      18.635   3.650  50.802  1.00  0.00     0.167 HD
BRANCH  21  23
HETATM   23  C4  UNL     1      19.277   1.683  51.767  1.00  0.00     0.035 A 
HETATM   24  C3  UNL     1      18.411   0.679  51.433  1.00  0.00     0.032 A 
HETATM   25  C2  UNL     1      18.427  -0.507  52.129  1.00  0.00     0.046 A 
HETATM   26  C1  UNL     1      19.296  -0.748  53.177  1.00  0.00     0.138 A 
HETATM   27  F1  UNL     1      19.268  -1.946  53.832  1.00  0.00    -0.204 F 
HETATM   28  C19 UNL     1      20.170   0.273  53.508  1.00  0.00     0.074 A 
HETATM   29  C18 UNL     1      20.165   1.487  52.809  1.00  0.00     0.056 A 
HETATM   30 CL1  UNL     1      21.305   0.031  54.840  1.00  0.00    -0.081 Cl
ENDBRANCH  21  23
ENDBRANCH   1  21
TORSDOF 8
ENDMDL
MODEL 4
REMARK VINA RESULT:      -7.7      5.309      7.995
REMARK  8 active torsions:
REMARK  status: ('A' for Active; 'I' for Inactive)
REMARK    1  A    between atoms: C4_5  and  N1_6 
REMARK    2  A    between atoms: N1_6  and  C5_7 
REMARK    3  A    between atoms: C7_11  and  C8_12 
REMARK    4  A    between atoms: C8_12  and  N4_14 
REMARK    5  A    between atoms: N4_14  and  C9_15 
REMARK    6  A    between atoms: C9_15  and  C10_16 
REMARK    7  A    between atoms: C10_16  and  C11_17 
REMARK    8  A    between atoms: C11_17  and  N5_18 
ROOT
HETATM    1  C5  UNL     1      25.400   3.006  52.315  1.00  0.00     0.129 A 
HETATM    2  N2  UNL     1      26.068   2.819  51.201  1.00  0.00    -0.225 NA
HETATM    3  C6  UNL     1      25.725   3.260  49.897  1.00  0.00     0.230 A 
HETATM    4  N3  UNL     1      24.704   3.925  49.561  1.00  0.00    -0.267 NA
HETATM    5  C7  UNL     1      23.539   4.511  50.134  1.00  0.00     0.193 A 
HETATM    6  C16 UNL     1      23.413   4.307  51.584  1.00  0.00     0.011 A 
HETATM    7  C17 UNL     1      24.132   3.703  52.546  1.00  0.00     0.049 A 
ENDROOT
BRANCH   5   8
HETATM    8  C8  UNL     1      22.343   3.890  49.448  1.00  0.00     0.102 C 
HETATM    9  S1  UNL     1      21.067   4.852  49.040  1.00  0.00    -0.063 SA
BRANCH   8  10
HETATM   10  N4  UNL     1      22.257   2.509  49.138  1.00  0.00    -0.382 N 
HETATM   11  H6  UNL     1      22.893   2.222  48.336  1.00  0.00     0.160 HD
BRANCH  10  12
HETATM   12  C9  UNL     1      21.446   1.501  49.756  1.00  0.00     0.122 C 
BRANCH  12  13
HETATM   13  C10 UNL     1      22.194   0.890  50.957  1.00  0.00     0.039 C 
BRANCH  13  14
HETATM   14  C11 UNL     1      21.376   1.227  52.155  1.00  0.00     0.118 C 
BRANCH  14  15
HETATM   15  N5  UNL     1      21.367   0.313  53.232  1.00  0.00    -0.408 N 
HETATM   16  C12 UNL     1      22.588  -0.406  53.445  1.00  0.00     0.143 C 
HETATM   17  C13 UNL     1      22.636  -1.159  54.728  1.00  0.00     0.187 C 
HETATM   18  O1  UNL     1      21.378  -1.551  55.179  1.00  0.00    -0.388 OA
HETATM   19  C14 UNL     1      20.479  -1.720  54.141  1.00  0.00     0.187 C 
HETATM   20  C15 UNL     1      20.173  -0.459  53.379  1.00  0.00     0.143 C 
ENDBRANCH  14  15
ENDBRANCH  13  14
ENDBRANCH  12  13
ENDBRANCH  10  12
ENDBRANCH   8  10
ENDBRANCH   5   8
BRANCH   1  21
HETATM   21  N1  UNL     1      26.068   2.409  53.441  1.00  0.00    -0.341 N 
HETATM   22  H3  UNL     1      26.166   3.049  54.286  1.00  0.00     0.167 HD
BRANCH  21  23
HETATM   23  C4  UNL     1      26.496   1.045  53.242  1.00  0.00     0.035 A 
HETATM   24  C3  UNL     1      25.721  -0.010  52.845  1.00  0.00     0.032 A 
HETATM   25  C2  UNL     1      26.277  -1.258  52.697  1.00  0.00     0.046 A 
HETATM   26  C1  UNL     1      27.615  -1.514  52.933  1.00  0.00     0.138 A 
HETATM   27  F1  UNL     1      28.113  -2.775  52.770  1.00  0.00    -0.204 F 
HETATM   28  C19 UNL     1      28.393  -0.441  53.334  1.00  0.00     0.074 A 
HETATM   29  C18 UNL     1      27.839   0.836  53.490  1.00  0.00     0.056 A 
HETATM   30 CL1  UNL     1      30.110  -0.701  53.656  1.00  0.00    -0.081 Cl
ENDBRANCH  21  23
ENDBRANCH   1  21
TORSDOF 8
ENDMDL
MODEL 5
REMARK VINA RESULT:      -7.6      3.711      5.237
REMARK  8 active torsions:
REMARK  status: ('A' for Active; 'I' for Inactive)
REMARK    1  A    between atoms: C4_5  and  N1_6 
REMARK    2  A    between atoms: N1_6  and  C5_7 
REMARK    3  A    between atoms: C7_11  and  C8_12 
REMARK    4  A    between atoms: C8_12  and  N4_14 
REMARK    5  A    between atoms: N4_14  and  C9_15 
REMARK    6  A    between atoms: C9_15  and  C10_16 
REMARK    7  A    between atoms: C10_16  and  C11_17 
REMARK    8  A    between atoms: C11_17  and  N5_18 
ROOT
HETATM    1  C5  UNL     1      23.560   0.377  53.056  1.00  0.00     0.129 A 
HETATM    2  N2  UNL     1      22.313  -0.016  53.172  1.00  0.00    -0.225 NA
HETATM    3  C6  UNL     1      21.228   0.271  52.306  1.00  0.00     0.230 A 
HETATM    4  N3  UNL     1      21.258   0.963  51.248  1.00  0.00    -0.267 NA
HETATM    5  C7  UNL     1      22.173   1.708  50.450  1.00  0.00     0.193 A 
HETATM    6  C16 UNL     1      23.546   1.731  50.972  1.00  0.00     0.011 A 
HETATM    7  C17 UNL     1      24.192   1.212  52.030  1.00  0.00     0.049 A 
ENDROOT
BRANCH   5   8
HETATM    8  C8  UNL     1      21.653   3.126  50.382  1.00  0.00     0.102 C 
HETATM    9  S1  UNL     1      20.938   3.649  48.990  1.00  0.00    -0.063 SA
BRANCH   8  10
HETATM   10  N4  UNL     1      21.753   4.043  51.459  1.00  0.00    -0.382 N 
HETATM   11  H6  UNL     1      21.492   3.613  52.396  1.00  0.00     0.160 HD
BRANCH  10  12
HETATM   12  C9  UNL     1      22.149   5.420  51.430  1.00  0.00     0.122 C 
BRANCH  12  13
HETATM   13  C10 UNL     1      23.654   5.539  51.743  1.00  0.00     0.039 C 
BRANCH  13  14
HETATM   14  C11 UNL     1      24.268   6.158  50.535  1.00  0.00     0.118 C 
BRANCH  14  15
HETATM   15  N5  UNL     1      25.501   5.643  50.080  1.00  0.00    -0.408 N 
HETATM   16  C12 UNL     1      25.959   6.150  48.820  1.00  0.00     0.143 C 
HETATM   17  C13 UNL     1      27.366   5.792  48.493  1.00  0.00     0.187 C 
HETATM   18  O1  UNL     1      27.775   4.597  49.079  1.00  0.00    -0.388 OA
HETATM   19  C14 UNL     1      26.719   3.731  49.296  1.00  0.00     0.187 C 
HETATM   20  C15 UNL     1      25.696   4.240  50.276  1.00  0.00     0.143 C 
ENDBRANCH  14  15
ENDBRANCH  13  14
ENDBRANCH  12  13
ENDBRANCH  10  12
ENDBRANCH   8  10
ENDBRANCH   5   8
BRANCH   1  21
HETATM   21  N1  UNL     1      24.375  -0.118  54.134  1.00  0.00    -0.341 N 
HETATM   22  H3  UNL     1      23.875  -0.186  55.071  1.00  0.00     0.167 HD
BRANCH  21  23
HETATM   23  C4  UNL     1      25.735  -0.438  53.770  1.00  0.00     0.035 A 
HETATM   24  C3  UNL     1      26.150  -1.458  52.958  1.00  0.00     0.032 A 
HETATM   25  C2  UNL     1      27.489  -1.636  52.702  1.00  0.00     0.046 A 
HETATM   26  C1  UNL     1      28.467  -0.817  53.236  1.00  0.00     0.138 A 
HETATM   27  F1  UNL     1      29.784  -1.042  52.946  1.00  0.00    -0.204 F 
HETATM   28  C19 UNL     1      28.039   0.212  54.056  1.00  0.00     0.074 A 
HETATM   29  C18 UNL     1      26.679   0.405  54.326  1.00  0.00     0.056 A 
HETATM   30 CL1  UNL     1      29.240   1.291  54.773  1.00  0.00    -0.081 Cl
ENDBRANCH  21  23
ENDBRANCH   1  21
TORSDOF 8
ENDMDL
MODEL 6
REMARK VINA RESULT:      -7.6      3.414      3.920
REMARK  8 active torsions:
REMARK  status: ('A' for Active; 'I' for Inactive)
REMARK    1  A    between atoms: C4_5  and  N1_6 
REMARK    2  A    between atoms: N1_6  and  C5_7 
REMARK    3  A    between atoms: C7_11  and  C8_12 
REMARK    4  A    between atoms: C8_12  and  N4_14 
REMARK    5  A    between atoms: N4_14  and  C9_15 
REMARK    6  A    between atoms: C9_15  and  C10_16 
REMARK    7  A    between atoms: C10_16  and  C11_17 
REMARK    8  A    between atoms: C11_17  and  N5_18 
ROOT
HETATM    1  C5  UNL     1      24.448   2.279  52.430  1.00  0.00     0.129 A 
HETATM    2  N2  UNL     1      23.884   3.250  53.109  1.00  0.00    -0.225 NA
HETATM    3  C6  UNL     1      23.593   4.565  52.665  1.00  0.00     0.230 A 
HETATM    4  N3  UNL     1      23.820   5.053  51.521  1.00  0.00    -0.267 NA
HETATM    5  C7  UNL     1      24.374   4.683  50.262  1.00  0.00     0.193 A 
HETATM    6  C16 UNL     1      24.872   3.302  50.205  1.00  0.00     0.011 A 
HETATM    7  C17 UNL     1      24.938   2.258  51.049  1.00  0.00     0.049 A 
ENDROOT
BRANCH   5   8
HETATM    8  C8  UNL     1      25.521   5.628  49.985  1.00  0.00     0.102 C 
HETATM    9  S1  UNL     1      26.735   5.137  48.980  1.00  0.00    -0.063 SA
BRANCH   8  10
HETATM   10  N4  UNL     1      25.615   6.924  50.552  1.00  0.00    -0.382 N 
HETATM   11  H6  UNL     1      26.194   6.946  51.444  1.00  0.00     0.160 HD
BRANCH  10  12
HETATM   12  C9  UNL     1      25.045   8.151  50.081  1.00  0.00     0.122 C 
BRANCH  12  13
HETATM   13  C10 UNL     1      26.090   8.934  49.261  1.00  0.00     0.039 C 
BRANCH  13  14
HETATM   14  C11 UNL     1      27.307   8.999  50.117  1.00  0.00     0.118 C 
BRANCH  14  15
HETATM   15  N5  UNL     1      28.379   9.812  49.687  1.00  0.00    -0.408 N 
HETATM   16  C12 UNL     1      28.018  10.942  48.885  1.00  0.00     0.143 C 
HETATM   17  C13 UNL     1      29.124  11.914  48.667  1.00  0.00     0.187 C 
HETATM   18  O1  UNL     1      30.385  11.324  48.711  1.00  0.00    -0.388 OA
HETATM   19  C14 UNL     1      30.354   9.993  48.340  1.00  0.00     0.187 C 
HETATM   20  C15 UNL     1      29.552   9.114  49.261  1.00  0.00     0.143 C 
ENDBRANCH  14  15
ENDBRANCH  13  14
ENDBRANCH  12  13
ENDBRANCH  10  12
ENDBRANCH   8  10
ENDBRANCH   5   8
BRANCH   1  21
HETATM   21  N1  UNL     1      24.577   1.084  53.221  1.00  0.00    -0.341 N 
HETATM   22  H3  UNL     1      23.682   0.776  53.706  1.00  0.00     0.167 HD
BRANCH  21  23
HETATM   23  C4  UNL     1      25.897   0.499  53.228  1.00  0.00     0.035 A 
HETATM   24  C3  UNL     1      26.248  -0.745  52.780  1.00  0.00     0.032 A 
HETATM   25  C2  UNL     1      27.556  -1.162  52.852  1.00  0.00     0.046 A 
HETATM   26  C1  UNL     1      28.565  -0.371  53.368  1.00  0.00     0.138 A 
HETATM   27  F1  UNL     1      29.848  -0.838  53.416  1.00  0.00    -0.204 F 
HETATM   28  C19 UNL     1      28.202   0.887  53.820  1.00  0.00     0.074 A 
HETATM   29  C18 UNL     1      26.874   1.324  53.752  1.00  0.00     0.056 A 
HETATM   30 CL1  UNL     1      29.445   1.946  54.494  1.00  0.00    -0.081 Cl
ENDBRANCH  21  23
ENDBRANCH   1  21
TORSDOF 8
ENDMDL
MODEL 7
REMARK VINA RESULT:      -7.4      5.314      7.746
REMARK  8 active torsions:
REMARK  status: ('A' for Active; 'I' for Inactive)
REMARK    1  A    between atoms: C4_5  and  N1_6 
REMARK    2  A    between atoms: N1_6  and  C5_7 
REMARK    3  A    between atoms: C7_11  and  C8_12 
REMARK    4  A    between atoms: C8_12  and  N4_14 
REMARK    5  A    between atoms: N4_14  and  C9_15 
REMARK    6  A    between atoms: C9_15  and  C10_16 
REMARK    7  A    between atoms: C10_16  and  C11_17 
REMARK    8  A    between atoms: C11_17  and  N5_18 
ROOT
HETATM    1  C5  UNL     1      23.265   4.240  51.328  1.00  0.00     0.129 A 
HETATM    2  N2  UNL     1      23.607   3.519  50.287  1.00  0.00    -0.225 NA
HETATM    3  C6  UNL     1      22.961   2.363  49.780  1.00  0.00     0.230 A 
HETATM    4  N3  UNL     1      21.921   1.808  50.236  1.00  0.00    -0.267 NA
HETATM    5  C7  UNL     1      20.972   1.953  51.289  1.00  0.00     0.193 A 
HETATM    6  C16 UNL     1      21.229   3.095  52.178  1.00  0.00     0.011 A 
HETATM    7  C17 UNL     1      22.145   4.075  52.260  1.00  0.00     0.049 A 
ENDROOT
BRANCH   5   8
HETATM    8  C8  UNL     1      21.012   0.681  52.104  1.00  0.00     0.102 C 
HETATM    9  S1  UNL     1      19.599   0.068  52.697  1.00  0.00    -0.063 SA
BRANCH   8  10
HETATM   10  N4  UNL     1      22.211  -0.018  52.396  1.00  0.00    -0.382 N 
HETATM   11  H6  UNL     1      22.337  -0.891  51.802  1.00  0.00     0.160 HD
BRANCH  10  12
HETATM   12  C9  UNL     1      23.226   0.305  53.355  1.00  0.00     0.122 C 
BRANCH  12  13
HETATM   13  C10 UNL     1      24.545   0.639  52.630  1.00  0.00     0.039 C 
BRANCH  13  14
HETATM   14  C11 UNL     1      25.112   1.815  53.347  1.00  0.00     0.118 C 
BRANCH  14  15
HETATM   15  N5  UNL     1      26.400   1.691  53.911  1.00  0.00    -0.408 N 
HETATM   16  C12 UNL     1      27.488   2.093  53.070  1.00  0.00     0.143 C 
HETATM   17  C13 UNL     1      28.796   2.197  53.772  1.00  0.00     0.187 C 
HETATM   18  O1  UNL     1      28.896   1.346  54.869  1.00  0.00    -0.388 OA
HETATM   19  C14 UNL     1      28.106   0.219  54.732  1.00  0.00     0.187 C 
HETATM   20  C15 UNL     1      26.630   0.504  54.675  1.00  0.00     0.143 C 
ENDBRANCH  14  15
ENDBRANCH  13  14
ENDBRANCH  12  13
ENDBRANCH  10  12
ENDBRANCH   8  10
ENDBRANCH   5   8
BRANCH   1  21
HETATM   21  N1  UNL     1      24.168   5.342  51.532  1.00  0.00    -0.341 N 
HETATM   22  H3  UNL     1      24.401   5.539  52.551  1.00  0.00     0.167 HD
BRANCH  21  23
HETATM   23  C4  UNL     1      24.608   5.999  50.324  1.00  0.00     0.035 A 
HETATM   24  C3  UNL     1      23.905   6.907  49.580  1.00  0.00     0.032 A 
HETATM   25  C2  UNL     1      24.463   7.451  48.448  1.00  0.00     0.046 A 
HETATM   26  C1  UNL     1      25.732   7.122  48.007  1.00  0.00     0.138 A 
HETATM   27  F1  UNL     1      26.235   7.695  46.874  1.00  0.00    -0.204 F 
HETATM   28  C19 UNL     1      26.436   6.204  48.766  1.00  0.00     0.074 A 
HETATM   29  C18 UNL     1      25.880   5.641  49.921  1.00  0.00     0.056 A 
HETATM   30 CL1  UNL     1      28.062   5.738  48.255  1.00  0.00    -0.081 Cl
ENDBRANCH  21  23
ENDBRANCH   1  21
TORSDOF 8
ENDMDL
MODEL 8
REMARK VINA RESULT:      -7.4      2.831      3.420
REMARK  8 active torsions:
REMARK  status: ('A' for Active; 'I' for Inactive)
REMARK    1  A    between atoms: C4_5  and  N1_6 
REMARK    2  A    between atoms: N1_6  and  C5_7 
REMARK    3  A    between atoms: C7_11  and  C8_12 
REMARK    4  A    between atoms: C8_12  and  N4_14 
REMARK    5  A    between atoms: N4_14  and  C9_15 
REMARK    6  A    between atoms: C9_15  and  C10_16 
REMARK    7  A    between atoms: C10_16  and  C11_17 
REMARK    8  A    between atoms: C11_17  and  N5_18 
ROOT
HETATM    1  C5  UNL     1      24.455   3.041  51.773  1.00  0.00     0.129 A 
HETATM    2  N2  UNL     1      23.798   4.036  52.320  1.00  0.00    -0.225 NA
HETATM    3  C6  UNL     1      23.650   5.357  51.825  1.00  0.00     0.230 A 
HETATM    4  N3  UNL     1      24.125   5.827  50.752  1.00  0.00    -0.267 NA
HETATM    5  C7  UNL     1      24.913   5.429  49.634  1.00  0.00     0.193 A 
HETATM    6  C16 UNL     1      25.364   4.031  49.682  1.00  0.00     0.011 A 
HETATM    7  C17 UNL     1      25.219   2.992  50.522  1.00  0.00     0.049 A 
ENDROOT
BRANCH   5   8
HETATM    8  C8  UNL     1      26.125   6.332  49.599  1.00  0.00     0.102 C 
HETATM    9  S1  UNL     1      27.338   6.000  48.531  1.00  0.00    -0.063 SA
BRANCH   8  10
HETATM   10  N4  UNL     1      26.280   7.458  50.447  1.00  0.00    -0.382 N 
HETATM   11  H6  UNL     1      26.479   7.192  51.457  1.00  0.00     0.160 HD
BRANCH  10  12
HETATM   12  C9  UNL     1      26.203   8.849  50.113  1.00  0.00     0.122 C 
BRANCH  12  13
HETATM   13  C10 UNL     1      27.604   9.487  50.197  1.00  0.00     0.039 C 
BRANCH  13  14
HETATM   14  C11 UNL     1      27.957   9.871  48.802  1.00  0.00     0.118 C 
BRANCH  14  15
HETATM   15  N5  UNL     1      29.294   9.699  48.384  1.00  0.00    -0.408 N 
HETATM   16  C12 UNL     1      29.475   8.977  47.160  1.00  0.00     0.143 C 
HETATM   17  C13 UNL     1      30.859   9.036  46.615  1.00  0.00     0.187 C 
HETATM   18  O1  UNL     1      31.827   9.209  47.601  1.00  0.00    -0.388 OA
HETATM   19  C14 UNL     1      31.428   8.696  48.822  1.00  0.00     0.187 C 
HETATM   20  C15 UNL     1      30.230   9.385  49.418  1.00  0.00     0.143 C 
ENDBRANCH  14  15
ENDBRANCH  13  14
ENDBRANCH  12  13
ENDBRANCH  10  12
ENDBRANCH   8  10
ENDBRANCH   5   8
BRANCH   1  21
HETATM   21  N1  UNL     1      24.378   1.848  52.574  1.00  0.00    -0.341 N 
HETATM   22  H3  UNL     1      23.387   1.525  52.790  1.00  0.00     0.167 HD
BRANCH  21  23
HETATM   23  C4  UNL     1      25.652   1.287  52.955  1.00  0.00     0.035 A 
HETATM   24  C3  UNL     1      26.673   1.929  53.600  1.00  0.00     0.032 A 
HETATM   25  C2  UNL     1      27.833   1.255  53.898  1.00  0.00     0.046 A 
HETATM   26  C1  UNL     1      28.031  -0.075  53.572  1.00  0.00     0.138 A 
HETATM   27  F1  UNL     1      29.206  -0.693  53.894  1.00  0.00    -0.204 F 
HETATM   28  C19 UNL     1      26.993  -0.717  52.920  1.00  0.00     0.074 A 
HETATM   29  C18 UNL     1      25.805  -0.043  52.609  1.00  0.00     0.056 A 
HETATM   30 CL1  UNL     1      27.184  -2.415  52.472  1.00  0.00    -0.081 Cl
ENDBRANCH  21  23
ENDBRANCH   1  21
TORSDOF 8
ENDMDL
MODEL 9
REMARK VINA RESULT:      -7.4      5.020      6.532
REMARK  8 active torsions:
REMARK  status: ('A' for Active; 'I' for Inactive)
REMARK    1  A    between atoms: C4_5  and  N1_6 
REMARK    2  A    between atoms: N1_6  and  C5_7 
REMARK    3  A    between atoms: C7_11  and  C8_12 
REMARK    4  A    between atoms: C8_12  and  N4_14 
REMARK    5  A    between atoms: N4_14  and  C9_15 
REMARK    6  A    between atoms: C9_15  and  C10_16 
REMARK    7  A    between atoms: C10_16  and  C11_17 
REMARK    8  A    between atoms: C11_17  and  N5_18 
ROOT
HETATM    1  C5  UNL     1      23.644   3.008  52.816  1.00  0.00     0.129 A 
HETATM    2  N2  UNL     1      23.079   4.147  52.492  1.00  0.00    -0.225 NA
HETATM    3  C6  UNL     1      21.712   4.385  52.198  1.00  0.00     0.230 A 
HETATM    4  N3  UNL     1      20.773   3.540  52.197  1.00  0.00    -0.267 NA
HETATM    5  C7  UNL     1      20.544   2.154  52.432  1.00  0.00     0.193 A 
HETATM    6  C16 UNL     1      21.753   1.396  52.788  1.00  0.00     0.011 A 
HETATM    7  C17 UNL     1      23.055   1.674  52.965  1.00  0.00     0.049 A 
ENDROOT
BRANCH   5   8
HETATM    8  C8  UNL     1      19.962   1.575  51.162  1.00  0.00     0.102 C 
HETATM    9  S1  UNL     1      18.674   0.549  51.269  1.00  0.00    -0.063 SA
BRANCH   8  10
HETATM   10  N4  UNL     1      20.471   1.866  49.872  1.00  0.00    -0.382 N 
HETATM   11  H6  UNL     1      20.190   2.830  49.521  1.00  0.00     0.160 HD
BRANCH  10  12
HETATM   12  C9  UNL     1      21.286   1.047  49.024  1.00  0.00     0.122 C 
BRANCH  12  13
HETATM   13  C10 UNL     1      22.227   1.934  48.184  1.00  0.00     0.039 C 
BRANCH  13  14
HETATM   14  C11 UNL     1      23.139   2.592  49.161  1.00  0.00     0.118 C 
BRANCH  14  15
HETATM   15  N5  UNL     1      23.646   3.869  48.840  1.00  0.00    -0.408 N 
HETATM   16  C12 UNL     1      24.869   4.234  49.491  1.00  0.00     0.143 C 
HETATM   17  C13 UNL     1      25.509   5.461  48.943  1.00  0.00     0.187 C 
HETATM   18  O1  UNL     1      24.595   6.351  48.385  1.00  0.00    -0.388 OA
HETATM   19  C14 UNL     1      23.342   6.245  48.960  1.00  0.00     0.187 C 
HETATM   20  C15 UNL     1      22.675   4.914  48.743  1.00  0.00     0.143 C 
ENDBRANCH  14  15
ENDBRANCH  13  14
ENDBRANCH  12  13
ENDBRANCH  10  12
ENDBRANCH   8  10
ENDBRANCH   5   8
BRANCH   1  21
HETATM   21  N1  UNL     1      25.057   3.162  53.043  1.00  0.00    -0.341 N 
HETATM   22  H3  UNL     1      25.357   4.149  53.303  1.00  0.00     0.167 HD
BRANCH  21  23
HETATM   23  C4  UNL     1      25.834   1.956  52.879  1.00  0.00     0.035 A 
HETATM   24  C3  UNL     1      25.827   1.114  51.801  1.00  0.00     0.032 A 
HETATM   25  C2  UNL     1      26.630  -0.001  51.791  1.00  0.00     0.046 A 
HETATM   26  C1  UNL     1      27.469  -0.329  52.841  1.00  0.00     0.138 A 
HETATM   27  F1  UNL     1      28.245  -1.451  52.776  1.00  0.00    -0.204 F 
HETATM   28  C19 UNL     1      27.470   0.529  53.928  1.00  0.00     0.074 A 
HETATM   29  C18 UNL     1      26.657   1.668  53.952  1.00  0.00     0.056 A 
HETATM   30 CL1  UNL     1      28.516   0.165  55.304  1.00  0.00    -0.081 Cl
ENDBRANCH  21  23
ENDBRANCH   1  21
TORSDOF 8
ENDMDL
