MODEL 1
REMARK VINA RESULT:      -8.0      0.000      0.000
REMARK  3 active torsions:
REMARK  status: ('A' for Active; 'I' for Inactive)
REMARK    1  A    between atoms: C1_2  and  O1_3 
REMARK    2  A    between atoms: O1_3  and  C2_4 
REMARK    3  A    between atoms: N4_18  and  C12_19 
ROOT
HETATM    1  C2  UNL     1      22.519   3.013  52.540  1.00  0.00     0.114 C 
HETATM    2  C3  UNL     1      22.367   4.284  52.173  1.00  0.00     0.216 C 
HETATM    3  O2  UNL     1      23.136   5.385  51.836  1.00  0.00    -0.374 OA
HETATM    4  C4  UNL     1      23.127   5.987  50.528  1.00  0.00     0.199 C 
HETATM    5  C5  UNL     1      24.534   6.599  50.398  1.00  0.00     0.295 C 
HETATM    6  N2  UNL     1      25.523   5.575  50.552  1.00  0.00     0.087 N 
HETATM    7  C6  UNL     1      25.519   4.650  49.452  1.00  0.00     0.296 C 
HETATM    8  C7  UNL     1      26.512   3.510  49.690  1.00  0.00     0.204 C 
HETATM    9  O3  UNL     1      26.154   2.807  50.873  1.00  0.00    -0.362 OA
HETATM   10  C8  UNL     1      26.775   1.637  51.272  1.00  0.00     0.131 C 
HETATM   11  C9  UNL     1      26.429   0.909  52.289  1.00  0.00     0.011 C 
HETATM   12  C10 UNL     1      25.419   0.892  53.366  1.00  0.00     0.077 C 
HETATM   13  C11 UNL     1      24.647  -0.376  53.425  1.00  0.00     0.124 C 
HETATM   14  N3  UNL     1      23.455  -0.509  52.969  1.00  0.00    -0.183 NA
HETATM   15  N4  UNL     1      22.637   0.595  52.637  1.00  0.00    -0.236 N 
HETATM   16  C17 UNL     1      23.291   1.816  52.869  1.00  0.00     0.088 C 
HETATM   17  C18 UNL     1      24.489   2.033  53.327  1.00  0.00     0.021 C 
HETATM   18  H8  UNL     1      26.462   6.035  50.593  1.00  0.00     0.316 HD
ENDROOT
BRANCH  15  19
HETATM   19  C12 UNL     1      21.322   0.429  52.131  1.00  0.00     0.042 A 
HETATM   20  C13 UNL     1      20.916   0.493  50.863  1.00  0.00     0.029 A 
HETATM   21  C14 UNL     1      19.491   0.274  50.694  1.00  0.00     0.022 A 
HETATM   22  C15 UNL     1      18.991   0.067  51.899  1.00  0.00     0.017 A 
HETATM   23 CL1  UNL     1      17.330  -0.255  52.342  1.00  0.00    -0.089 Cl
HETATM   24  C16 UNL     1      20.080   0.142  52.893  1.00  0.00     0.110 A 
ENDBRANCH  15  19
BRANCH   1  25
HETATM   25  O1  UNL     1      21.134   2.973  52.585  1.00  0.00    -0.304 OA
BRANCH  25  26
HETATM   26  C1  UNL     1      20.446   3.878  51.758  1.00  0.00     0.249 C 
HETATM   27  N1  UNL     1      19.149   3.820  51.696  1.00  0.00    -0.289 NA
HETATM   28  H1  UNL     1      18.595   3.131  52.233  1.00  0.00     0.188 HD
ENDBRANCH  25  26
ENDBRANCH   1  25
TORSDOF 3
ENDMDL
MODEL 2
REMARK VINA RESULT:      -7.9      3.058      6.215
REMARK  3 active torsions:
REMARK  status: ('A' for Active; 'I' for Inactive)
REMARK    1  A    between atoms: C1_2  and  O1_3 
REMARK    2  A    between atoms: O1_3  and  C2_4 
REMARK    3  A    between atoms: N4_18  and  C12_19 
ROOT
HETATM    1  C2  UNL     1      24.236   1.573  52.919  1.00  0.00     0.114 C 
HETATM    2  C3  UNL     1      23.164   0.996  53.460  1.00  0.00     0.216 C 
HETATM    3  O2  UNL     1      21.792   0.945  53.284  1.00  0.00    -0.374 OA
HETATM    4  C4  UNL     1      21.085  -0.253  52.911  1.00  0.00     0.199 C 
HETATM    5  C5  UNL     1      19.851   0.272  52.155  1.00  0.00     0.295 C 
HETATM    6  N2  UNL     1      20.269   1.064  51.038  1.00  0.00     0.087 N 
HETATM    7  C6  UNL     1      20.902   0.272  50.020  1.00  0.00     0.296 C 
HETATM    8  C7  UNL     1      21.430   1.153  48.886  1.00  0.00     0.204 C 
HETATM    9  O3  UNL     1      22.385   2.071  49.403  1.00  0.00    -0.362 OA
HETATM   10  C8  UNL     1      23.144   2.902  48.600  1.00  0.00     0.131 C 
HETATM   11  C9  UNL     1      24.090   3.690  49.011  1.00  0.00     0.011 C 
HETATM   12  C10 UNL     1      24.760   4.080  50.267  1.00  0.00     0.077 C 
HETATM   13  C11 UNL     1      26.236   3.921  50.220  1.00  0.00     0.124 C 
HETATM   14  N3  UNL     1      26.866   2.941  50.756  1.00  0.00    -0.183 NA
HETATM   15  N4  UNL     1      26.270   2.075  51.701  1.00  0.00    -0.236 N 
HETATM   16  C17 UNL     1      24.935   2.427  51.959  1.00  0.00     0.088 C 
HETATM   17  C18 UNL     1      24.229   3.399  51.460  1.00  0.00     0.021 C 
HETATM   18  H8  UNL     1      19.419   1.514  50.624  1.00  0.00     0.316 HD
ENDROOT
BRANCH  15  19
HETATM   19  C12 UNL     1      26.982   0.995  52.283  1.00  0.00     0.042 A 
HETATM   20  C13 UNL     1      27.887   1.041  53.261  1.00  0.00     0.029 A 
HETATM   21  C14 UNL     1      28.425  -0.259  53.619  1.00  0.00     0.022 A 
HETATM   22  C15 UNL     1      27.836  -1.146  52.836  1.00  0.00     0.017 A 
HETATM   23 CL1  UNL     1      28.070  -2.879  52.794  1.00  0.00    -0.089 Cl
HETATM   24  C16 UNL     1      26.891  -0.448  51.943  1.00  0.00     0.110 A 
ENDBRANCH  15  19
BRANCH   1  25
HETATM   25  O1  UNL     1      24.956   0.903  53.896  1.00  0.00    -0.304 OA
BRANCH  25  26
HETATM   26  C1  UNL     1      24.474  -0.359  54.285  1.00  0.00     0.249 C 
HETATM   27  N1  UNL     1      25.149  -1.055  55.151  1.00  0.00    -0.289 NA
HETATM   28  H1  UNL     1      26.033  -0.720  55.570  1.00  0.00     0.188 HD
ENDBRANCH  25  26
ENDBRANCH   1  25
TORSDOF 3
ENDMDL
MODEL 3
REMARK VINA RESULT:      -7.1      2.919      5.564
REMARK  3 active torsions:
REMARK  status: ('A' for Active; 'I' for Inactive)
REMARK    1  A    between atoms: C1_2  and  O1_3 
REMARK    2  A    between atoms: O1_3  and  C2_4 
REMARK    3  A    between atoms: N4_18  and  C12_19 
ROOT
HETATM    1  C2  UNL     1      23.766   2.465  50.080  1.00  0.00     0.114 C 
HETATM    2  C3  UNL     1      24.012   3.495  49.272  1.00  0.00     0.216 C 
HETATM    3  O2  UNL     1      23.330   4.386  48.461  1.00  0.00    -0.374 OA
HETATM    4  C4  UNL     1      23.279   5.804  48.709  1.00  0.00     0.199 C 
HETATM    5  C5  UNL     1      21.936   6.234  48.092  1.00  0.00     0.295 C 
HETATM    6  N2  UNL     1      20.867   5.504  48.705  1.00  0.00     0.087 N 
HETATM    7  C6  UNL     1      20.674   5.879  50.079  1.00  0.00     0.296 C 
HETATM    8  C7  UNL     1      19.597   5.015  50.738  1.00  0.00     0.204 C 
HETATM    9  O3  UNL     1      19.990   3.649  50.693  1.00  0.00    -0.362 OA
HETATM   10  C8  UNL     1      19.294   2.642  51.335  1.00  0.00     0.131 C 
HETATM   11  C9  UNL     1      19.657   1.397  51.403  1.00  0.00     0.011 C 
HETATM   12  C10 UNL     1      20.755   0.523  50.947  1.00  0.00     0.077 C 
HETATM   13  C11 UNL     1      21.397  -0.236  52.052  1.00  0.00     0.124 C 
HETATM   14  N3  UNL     1      22.521   0.084  52.580  1.00  0.00    -0.183 NA
HETATM   15  N4  UNL     1      23.413   1.002  51.979  1.00  0.00    -0.236 N 
HETATM   16  C17 UNL     1      22.910   1.497  50.764  1.00  0.00     0.088 C 
HETATM   17  C18 UNL     1      21.788   1.223  50.166  1.00  0.00     0.021 C 
HETATM   18  H8  UNL     1      19.987   5.717  48.179  1.00  0.00     0.316 HD
ENDROOT
BRANCH  15  19
HETATM   19  C12 UNL     1      24.652   1.347  52.579  1.00  0.00     0.042 A 
HETATM   20  C13 UNL     1      24.913   2.369  53.393  1.00  0.00     0.029 A 
HETATM   21  C14 UNL     1      26.297   2.430  53.828  1.00  0.00     0.022 A 
HETATM   22  C15 UNL     1      26.920   1.410  53.264  1.00  0.00     0.017 A 
HETATM   23 CL1  UNL     1      28.602   0.954  53.409  1.00  0.00    -0.089 Cl
HETATM   24  C16 UNL     1      25.956   0.650  52.444  1.00  0.00     0.110 A 
ENDBRANCH  15  19
BRANCH   1  25
HETATM   25  O1  UNL     1      25.138   2.430  50.276  1.00  0.00    -0.304 OA
BRANCH  25  26
HETATM   26  C1  UNL     1      25.834   3.640  50.103  1.00  0.00     0.249 C 
HETATM   27  N1  UNL     1      27.070   3.721  50.498  1.00  0.00    -0.289 NA
HETATM   28  H1  UNL     1      27.569   2.929  50.938  1.00  0.00     0.188 HD
ENDBRANCH  25  26
ENDBRANCH   1  25
TORSDOF 3
ENDMDL
MODEL 4
REMARK VINA RESULT:      -7.0     11.239     13.280
REMARK  3 active torsions:
REMARK  status: ('A' for Active; 'I' for Inactive)
REMARK    1  A    between atoms: C1_2  and  O1_3 
REMARK    2  A    between atoms: O1_3  and  C2_4 
REMARK    3  A    between atoms: N4_18  and  C12_19 
ROOT
HETATM    1  C2  UNL     1      33.679   7.042  47.157  1.00  0.00     0.114 C 
HETATM    2  C3  UNL     1      33.211   7.418  48.347  1.00  0.00     0.216 C 
HETATM    3  O2  UNL     1      32.497   8.456  48.919  1.00  0.00    -0.374 OA
HETATM    4  C4  UNL     1      31.192   8.292  49.507  1.00  0.00     0.199 C 
HETATM    5  C5  UNL     1      30.534   9.671  49.326  1.00  0.00     0.295 C 
HETATM    6  N2  UNL     1      30.499  10.012  47.936  1.00  0.00     0.087 N 
HETATM    7  C6  UNL     1      29.596   9.174  47.196  1.00  0.00     0.296 C 
HETATM    8  C7  UNL     1      29.654   9.490  45.700  1.00  0.00     0.204 C 
HETATM    9  O3  UNL     1      30.974   9.268  45.218  1.00  0.00    -0.362 OA
HETATM   10  C8  UNL     1      31.307   9.328  43.877  1.00  0.00     0.131 C 
HETATM   11  C9  UNL     1      32.471   9.046  43.376  1.00  0.00     0.011 C 
HETATM   12  C10 UNL     1      33.807   8.604  43.821  1.00  0.00     0.077 C 
HETATM   13  C11 UNL     1      34.285   7.384  43.118  1.00  0.00     0.124 C 
HETATM   14  N3  UNL     1      34.259   6.209  43.631  1.00  0.00    -0.183 NA
HETATM   15  N4  UNL     1      34.061   5.982  45.013  1.00  0.00    -0.236 N 
HETATM   16  C17 UNL     1      33.902   7.185  45.719  1.00  0.00     0.088 C 
HETATM   17  C18 UNL     1      33.915   8.408  45.276  1.00  0.00     0.021 C 
HETATM   18  H8  UNL     1      30.172  11.003  47.853  1.00  0.00     0.316 HD
ENDROOT
BRANCH  15  19
HETATM   19  C12 UNL     1      34.034   4.674  45.562  1.00  0.00     0.042 A 
HETATM   20  C13 UNL     1      35.068   3.901  45.891  1.00  0.00     0.029 A 
HETATM   21  C14 UNL     1      34.682   2.609  46.431  1.00  0.00     0.022 A 
HETATM   22  C15 UNL     1      33.362   2.577  46.438  1.00  0.00     0.017 A 
HETATM   23 CL1  UNL     1      32.312   1.285  46.976  1.00  0.00    -0.089 Cl
HETATM   24  C16 UNL     1      32.845   3.852  45.903  1.00  0.00     0.110 A 
ENDBRANCH  15  19
BRANCH   1  25
HETATM   25  O1  UNL     1      34.173   5.931  47.824  1.00  0.00    -0.304 OA
BRANCH  25  26
HETATM   26  C1  UNL     1      35.201   6.155  48.755  1.00  0.00     0.249 C 
HETATM   27  N1  UNL     1      35.584   5.179  49.524  1.00  0.00    -0.289 NA
HETATM   28  H1  UNL     1      35.162   4.236  49.480  1.00  0.00     0.188 HD
ENDBRANCH  25  26
ENDBRANCH   1  25
TORSDOF 3
ENDMDL
MODEL 5
REMARK VINA RESULT:      -7.0      9.414     12.479
REMARK  3 active torsions:
REMARK  status: ('A' for Active; 'I' for Inactive)
REMARK    1  A    between atoms: C1_2  and  O1_3 
REMARK    2  A    between atoms: O1_3  and  C2_4 
REMARK    3  A    between atoms: N4_18  and  C12_19 
ROOT
HETATM    1  C2  UNL     1      32.008   7.650  46.252  1.00  0.00     0.114 C 
HETATM    2  C3  UNL     1      32.533   8.701  45.623  1.00  0.00     0.216 C 
HETATM    3  O2  UNL     1      32.188   9.990  45.254  1.00  0.00    -0.374 OA
HETATM    4  C4  UNL     1      32.839  11.164  45.776  1.00  0.00     0.199 C 
HETATM    5  C5  UNL     1      31.749  12.248  45.704  1.00  0.00     0.295 C 
HETATM    6  N2  UNL     1      30.608  11.837  46.466  1.00  0.00     0.087 N 
HETATM    7  C6  UNL     1      30.880  11.810  47.876  1.00  0.00     0.296 C 
HETATM    8  C7  UNL     1      29.681  11.271  48.658  1.00  0.00     0.204 C 
HETATM    9  O3  UNL     1      29.389   9.947  48.228  1.00  0.00    -0.362 OA
HETATM   10  C8  UNL     1      28.451   9.142  48.848  1.00  0.00     0.131 C 
HETATM   11  C9  UNL     1      28.212   7.900  48.556  1.00  0.00     0.011 C 
HETATM   12  C10 UNL     1      28.678   6.857  47.621  1.00  0.00     0.077 C 
HETATM   13  C11 UNL     1      29.105   5.607  48.301  1.00  0.00     0.124 C 
HETATM   14  N3  UNL     1      30.331   5.287  48.503  1.00  0.00    -0.183 NA
HETATM   15  N4  UNL     1      31.405   5.927  47.845  1.00  0.00    -0.236 N 
HETATM   16  C17 UNL     1      30.957   6.928  46.967  1.00  0.00     0.088 C 
HETATM   17  C18 UNL     1      29.741   7.309  46.707  1.00  0.00     0.021 C 
HETATM   18  H8  UNL     1      29.838  12.525  46.292  1.00  0.00     0.316 HD
ENDROOT
BRANCH  15  19
HETATM   19  C12 UNL     1      32.756   5.561  48.083  1.00  0.00     0.042 A 
HETATM   20  C13 UNL     1      33.396   4.469  47.666  1.00  0.00     0.029 A 
HETATM   21  C14 UNL     1      34.782   4.407  48.092  1.00  0.00     0.022 A 
HETATM   22  C15 UNL     1      35.014   5.497  48.801  1.00  0.00     0.017 A 
HETATM   23 CL1  UNL     1      36.501   5.988  49.581  1.00  0.00    -0.089 Cl
HETATM   24  C16 UNL     1      33.781   6.308  48.856  1.00  0.00     0.110 A 
ENDBRANCH  15  19
BRANCH   1  25
HETATM   25  O1  UNL     1      33.221   7.030  45.999  1.00  0.00    -0.304 OA
BRANCH  25  26
HETATM   26  C1  UNL     1      33.494   6.689  44.663  1.00  0.00     0.249 C 
HETATM   27  N1  UNL     1      34.480   5.883  44.403  1.00  0.00    -0.289 NA
HETATM   28  H1  UNL     1      35.080   5.478  45.142  1.00  0.00     0.188 HD
ENDBRANCH  25  26
ENDBRANCH   1  25
TORSDOF 3
ENDMDL
MODEL 6
REMARK VINA RESULT:      -7.0      1.634      1.856
REMARK  3 active torsions:
REMARK  status: ('A' for Active; 'I' for Inactive)
REMARK    1  A    between atoms: C1_2  and  O1_3 
REMARK    2  A    between atoms: O1_3  and  C2_4 
REMARK    3  A    between atoms: N4_18  and  C12_19 
ROOT
HETATM    1  C2  UNL     1      22.523   4.544  51.638  1.00  0.00     0.114 C 
HETATM    2  C3  UNL     1      22.697   5.785  51.186  1.00  0.00     0.216 C 
HETATM    3  O2  UNL     1      23.720   6.681  50.929  1.00  0.00    -0.374 OA
HETATM    4  C4  UNL     1      24.041   7.161  49.609  1.00  0.00     0.199 C 
HETATM    5  C5  UNL     1      25.546   7.473  49.689  1.00  0.00     0.295 C 
HETATM    6  N2  UNL     1      26.265   6.292  50.061  1.00  0.00     0.087 N 
HETATM    7  C6  UNL     1      26.242   5.296  49.026  1.00  0.00     0.296 C 
HETATM    8  C7  UNL     1      26.928   4.008  49.487  1.00  0.00     0.204 C 
HETATM    9  O3  UNL     1      26.252   3.491  50.626  1.00  0.00    -0.362 OA
HETATM   10  C8  UNL     1      26.547   2.261  51.184  1.00  0.00     0.131 C 
HETATM   11  C9  UNL     1      25.903   1.702  52.164  1.00  0.00     0.011 C 
HETATM   12  C10 UNL     1      24.756   1.974  53.052  1.00  0.00     0.077 C 
HETATM   13  C11 UNL     1      23.739   0.891  53.044  1.00  0.00     0.124 C 
HETATM   14  N3  UNL     1      22.632   0.956  52.399  1.00  0.00    -0.183 NA
HETATM   15  N4  UNL     1      22.122   2.167  51.877  1.00  0.00    -0.236 N 
HETATM   16  C17 UNL     1      22.970   3.251  52.155  1.00  0.00     0.088 C 
HETATM   17  C18 UNL     1      24.101   3.268  52.798  1.00  0.00     0.021 C 
HETATM   18  H8  UNL     1      27.261   6.561  50.238  1.00  0.00     0.316 HD
ENDROOT
BRANCH  15  19
HETATM   19  C12 UNL     1      20.897   2.219  51.164  1.00  0.00     0.042 A 
HETATM   20  C13 UNL     1      20.707   2.111  49.849  1.00  0.00     0.029 A 
HETATM   21  C14 UNL     1      19.315   2.211  49.450  1.00  0.00     0.022 A 
HETATM   22  C15 UNL     1      18.612   2.387  50.554  1.00  0.00     0.017 A 
HETATM   23 CL1  UNL     1      16.881   2.574  50.719  1.00  0.00    -0.089 Cl
HETATM   24  C16 UNL     1      19.529   2.406  51.712  1.00  0.00     0.110 A 
ENDBRANCH  15  19
BRANCH   1  25
HETATM   25  O1  UNL     1      21.170   4.780  51.449  1.00  0.00    -0.304 OA
BRANCH  25  26
HETATM   26  C1  UNL     1      20.820   5.679  50.426  1.00  0.00     0.249 C 
HETATM   27  N1  UNL     1      19.591   5.711  50.005  1.00  0.00    -0.289 NA
HETATM   28  H1  UNL     1      18.852   5.099  50.391  1.00  0.00     0.188 HD
ENDBRANCH  25  26
ENDBRANCH   1  25
TORSDOF 3
ENDMDL
MODEL 7
REMARK VINA RESULT:      -6.9     10.073     12.745
REMARK  3 active torsions:
REMARK  status: ('A' for Active; 'I' for Inactive)
REMARK    1  A    between atoms: C1_2  and  O1_3 
REMARK    2  A    between atoms: O1_3  and  C2_4 
REMARK    3  A    between atoms: N4_18  and  C12_19 
ROOT
HETATM    1  C2  UNL     1      32.262   8.503  48.334  1.00  0.00     0.114 C 
HETATM    2  C3  UNL     1      31.259   8.609  49.205  1.00  0.00     0.216 C 
HETATM    3  O2  UNL     1      30.230   9.478  49.528  1.00  0.00    -0.374 OA
HETATM    4  C4  UNL     1      28.836   9.138  49.397  1.00  0.00     0.199 C 
HETATM    5  C5  UNL     1      28.153  10.494  49.145  1.00  0.00     0.295 C 
HETATM    6  N2  UNL     1      28.707  11.106  47.975  1.00  0.00     0.087 N 
HETATM    7  C6  UNL     1      28.361  10.393  46.777  1.00  0.00     0.296 C 
HETATM    8  C7  UNL     1      29.048  11.005  45.555  1.00  0.00     0.204 C 
HETATM    9  O3  UNL     1      30.459  10.947  45.724  1.00  0.00    -0.362 OA
HETATM   10  C8  UNL     1      31.354  11.290  44.727  1.00  0.00     0.131 C 
HETATM   11  C9  UNL     1      32.644  11.169  44.796  1.00  0.00     0.011 C 
HETATM   12  C10 UNL     1      33.679  10.708  45.743  1.00  0.00     0.077 C 
HETATM   13  C11 UNL     1      34.583   9.678  45.168  1.00  0.00     0.124 C 
HETATM   14  N3  UNL     1      34.486   8.424  45.417  1.00  0.00    -0.183 NA
HETATM   15  N4  UNL     1      33.715   7.915  46.487  1.00  0.00    -0.236 N 
HETATM   16  C17 UNL     1      33.092   8.943  47.214  1.00  0.00     0.088 C 
HETATM   17  C18 UNL     1      33.140  10.229  47.026  1.00  0.00     0.021 C 
HETATM   18  H8  UNL     1      28.323  12.077  47.904  1.00  0.00     0.316 HD
ENDROOT
BRANCH  15  19
HETATM   19  C12 UNL     1      33.618   6.523  46.747  1.00  0.00     0.042 A 
HETATM   20  C13 UNL     1      34.449   5.761  47.458  1.00  0.00     0.029 A 
HETATM   21  C14 UNL     1      34.050   4.367  47.523  1.00  0.00     0.022 A 
HETATM   22  C15 UNL     1      32.932   4.256  46.828  1.00  0.00     0.017 A 
HETATM   23 CL1  UNL     1      31.972   2.822  46.541  1.00  0.00    -0.089 Cl
HETATM   24  C16 UNL     1      32.566   5.580  46.289  1.00  0.00     0.110 A 
ENDBRANCH  15  19
BRANCH   1  25
HETATM   25  O1  UNL     1      32.544   7.304  48.972  1.00  0.00    -0.304 OA
BRANCH  25  26
HETATM   26  C1  UNL     1      31.459   6.620  49.546  1.00  0.00     0.249 C 
HETATM   27  N1  UNL     1      31.673   5.496  50.163  1.00  0.00    -0.289 NA
HETATM   28  H1  UNL     1      32.615   5.078  50.251  1.00  0.00     0.188 HD
ENDBRANCH  25  26
ENDBRANCH   1  25
TORSDOF 3
ENDMDL
MODEL 8
REMARK VINA RESULT:      -6.9      3.509      5.943
REMARK  3 active torsions:
REMARK  status: ('A' for Active; 'I' for Inactive)
REMARK    1  A    between atoms: C1_2  and  O1_3 
REMARK    2  A    between atoms: O1_3  and  C2_4 
REMARK    3  A    between atoms: N4_18  and  C12_19 
ROOT
HETATM    1  C2  UNL     1      23.802   4.645  49.396  1.00  0.00     0.114 C 
HETATM    2  C3  UNL     1      24.098   5.940  49.299  1.00  0.00     0.216 C 
HETATM    3  O2  UNL     1      23.596   7.097  48.727  1.00  0.00    -0.374 OA
HETATM    4  C4  UNL     1      23.133   8.224  49.496  1.00  0.00     0.199 C 
HETATM    5  C5  UNL     1      22.069   8.871  48.591  1.00  0.00     0.295 C 
HETATM    6  N2  UNL     1      21.043   7.917  48.293  1.00  0.00     0.087 N 
HETATM    7  C6  UNL     1      20.259   7.587  49.452  1.00  0.00     0.296 C 
HETATM    8  C7  UNL     1      19.238   6.494  49.131  1.00  0.00     0.204 C 
HETATM    9  O3  UNL     1      19.918   5.322  48.697  1.00  0.00    -0.362 OA
HETATM   10  C8  UNL     1      19.277   4.118  48.473  1.00  0.00     0.131 C 
HETATM   11  C9  UNL     1      19.859   2.999  48.165  1.00  0.00     0.011 C 
HETATM   12  C10 UNL     1      21.215   2.468  47.927  1.00  0.00     0.077 C 
HETATM   13  C11 UNL     1      21.539   1.286  48.767  1.00  0.00     0.124 C 
HETATM   14  N3  UNL     1      22.271   1.338  49.820  1.00  0.00    -0.183 NA
HETATM   15  N4  UNL     1      23.090   2.448  50.127  1.00  0.00    -0.236 N 
HETATM   16  C17 UNL     1      22.994   3.452  49.150  1.00  0.00     0.088 C 
HETATM   17  C18 UNL     1      22.281   3.476  48.062  1.00  0.00     0.021 C 
HETATM   18  H8  UNL     1      20.409   8.338  47.575  1.00  0.00     0.316 HD
ENDROOT
BRANCH  15  19
HETATM   19  C12 UNL     1      23.891   2.488  51.297  1.00  0.00     0.042 A 
HETATM   20  C13 UNL     1      23.618   3.083  52.459  1.00  0.00     0.029 A 
HETATM   21  C14 UNL     1      24.664   2.928  53.454  1.00  0.00     0.022 A 
HETATM   22  C15 UNL     1      25.622   2.211  52.893  1.00  0.00     0.017 A 
HETATM   23 CL1  UNL     1      27.140   1.695  53.593  1.00  0.00    -0.089 Cl
HETATM   24  C16 UNL     1      25.227   1.875  51.511  1.00  0.00     0.110 A 
ENDBRANCH  15  19
BRANCH   1  25
HETATM   25  O1  UNL     1      24.963   4.547  50.147  1.00  0.00    -0.304 OA
BRANCH  25  26
HETATM   26  C1  UNL     1      26.167   4.880  49.501  1.00  0.00     0.249 C 
HETATM   27  N1  UNL     1      27.214   4.134  49.690  1.00  0.00    -0.289 NA
HETATM   28  H1  UNL     1      27.203   3.299  50.301  1.00  0.00     0.188 HD
ENDBRANCH  25  26
ENDBRANCH   1  25
TORSDOF 3
ENDMDL
MODEL 9
REMARK VINA RESULT:      -6.8      2.664      4.467
REMARK  3 active torsions:
REMARK  status: ('A' for Active; 'I' for Inactive)
REMARK    1  A    between atoms: C1_2  and  O1_3 
REMARK    2  A    between atoms: O1_3  and  C2_4 
REMARK    3  A    between atoms: N4_18  and  C12_19 
ROOT
HETATM    1  C2  UNL     1      22.526   2.480  52.106  1.00  0.00     0.114 C 
HETATM    2  C3  UNL     1      23.724   3.050  52.228  1.00  0.00     0.216 C 
HETATM    3  O2  UNL     1      24.838   3.000  53.048  1.00  0.00    -0.374 OA
HETATM    4  C4  UNL     1      26.134   2.562  52.597  1.00  0.00     0.199 C 
HETATM    5  C5  UNL     1      26.788   1.989  53.868  1.00  0.00     0.295 C 
HETATM    6  N2  UNL     1      25.977   0.934  54.396  1.00  0.00     0.087 N 
HETATM    7  C6  UNL     1      25.969  -0.222  53.543  1.00  0.00     0.296 C 
HETATM    8  C7  UNL     1      25.016  -1.293  54.076  1.00  0.00     0.204 C 
HETATM    9  O3  UNL     1      23.696  -0.767  54.137  1.00  0.00    -0.362 OA
HETATM   10  C8  UNL     1      22.590  -1.539  54.441  1.00  0.00     0.131 C 
HETATM   11  C9  UNL     1      21.357  -1.133  54.421  1.00  0.00     0.011 C 
HETATM   12  C10 UNL     1      20.584   0.092  54.134  1.00  0.00     0.077 C 
HETATM   13  C11 UNL     1      19.518  -0.112  53.119  1.00  0.00     0.124 C 
HETATM   14  N3  UNL     1      19.621   0.249  51.893  1.00  0.00    -0.183 NA
HETATM   15  N4  UNL     1      20.620   1.141  51.441  1.00  0.00    -0.236 N 
HETATM   16  C17 UNL     1      21.455   1.562  52.489  1.00  0.00     0.088 C 
HETATM   17  C18 UNL     1      21.416   1.244  53.750  1.00  0.00     0.021 C 
HETATM   18  H8  UNL     1      26.371   0.656  55.325  1.00  0.00     0.316 HD
ENDROOT
BRANCH  15  19
HETATM   19  C12 UNL     1      20.720   1.528  50.079  1.00  0.00     0.042 A 
HETATM   20  C13 UNL     1      21.620   1.133  49.178  1.00  0.00     0.029 A 
HETATM   21  C14 UNL     1      21.432   1.728  47.867  1.00  0.00     0.022 A 
HETATM   22  C15 UNL     1      20.379   2.521  47.954  1.00  0.00     0.017 A 
HETATM   23 CL1  UNL     1      19.660   3.509  46.702  1.00  0.00    -0.089 Cl
HETATM   24  C16 UNL     1      19.845   2.465  49.329  1.00  0.00     0.110 A 
ENDBRANCH  15  19
BRANCH   1  25
HETATM   25  O1  UNL     1      22.366   3.303  51.002  1.00  0.00    -0.304 OA
BRANCH  25  26
HETATM   26  C1  UNL     1      22.269   4.684  51.249  1.00  0.00     0.249 C 
HETATM   27  N1  UNL     1      21.103   5.256  51.197  1.00  0.00    -0.289 NA
HETATM   28  H1  UNL     1      20.235   4.736  50.980  1.00  0.00     0.188 HD
ENDBRANCH  25  26
ENDBRANCH   1  25
TORSDOF 3
ENDMDL
