MODEL 1
REMARK VINA RESULT:      -7.5      0.000      0.000
REMARK  10 active torsions:
REMARK  status: ('A' for Active; 'I' for Inactive)
REMARK    1  A    between atoms: C3_3  and  C4_4 
REMARK    2  A    between atoms: C3_3  and  C6_7 
REMARK    3  A    between atoms: C4_4  and  C5_5 
REMARK    4  A    between atoms: N2_9  and  C7_10 
REMARK    5  A    between atoms: C8_12  and  O1_13 
REMARK    6  A    between atoms: C10_16  and  C11_17 
REMARK    7  A    between atoms: C11_17  and  C12_18 
REMARK    8  A    between atoms: C13_19  and  C14_20 
REMARK    9  A    between atoms: C14_20  and  P1_21 
REMARK   10  A    between atoms: P1_21  and  C15_22 
ROOT
HETATM    1  C6  UNL     1      25.770   2.462  51.692  1.00  0.00     0.063 C 
HETATM    2  N1  UNL     1      26.618   1.534  51.531  1.00  0.00    -0.174 NA
HETATM    3  N2  UNL     1      26.734   0.727  52.645  1.00  0.00    -0.240 N 
HETATM    4  C10 UNL     1      25.612   1.034  53.547  1.00  0.00     0.122 C 
HETATM    5  C16 UNL     1      25.173   2.364  53.054  1.00  0.00     0.089 C 
ENDROOT
BRANCH   4   6
HETATM    6  C11 UNL     1      24.554  -0.035  53.410  1.00  0.00     0.055 C 
BRANCH   6   7
HETATM    7  C12 UNL     1      23.270   0.405  52.950  1.00  0.00    -0.016 C 
HETATM    8  C13 UNL     1      22.471  -0.525  53.419  1.00  0.00     0.051 C 
BRANCH   8   9
HETATM    9  C14 UNL     1      21.276  -0.050  52.950  1.00  0.00    -0.127 C 
BRANCH   9  10
HETATM   10  P1  UNL     1      20.038   0.429  52.442  1.00  0.00    -0.041 P 
HETATM   11  H16 UNL     1      19.629   0.594  52.280  1.00  0.00     0.071 HD
BRANCH  10  12
HETATM   12  C15 UNL     1      17.904   1.233  51.527  1.00  0.00     0.158 C 
HETATM   13 CL1  UNL     1      17.860  -0.072  50.404  1.00  0.00    -0.125 Cl
ENDBRANCH  10  12
ENDBRANCH   9  10
ENDBRANCH   8   9
ENDBRANCH   6   7
ENDBRANCH   4   6
BRANCH   3  14
HETATM   14  C7  UNL     1      27.703  -0.256  52.994  1.00  0.00     0.192 A 
HETATM   15  N3  UNL     1      27.694  -1.582  52.998  1.00  0.00    -0.198 NA
HETATM   16  C8  UNL     1      28.807  -2.158  53.394  1.00  0.00     0.171 A 
HETATM   17  C9  UNL     1      29.976  -1.409  53.805  1.00  0.00     0.111 A 
HETATM   18  S1  UNL     1      29.314   0.276  53.560  1.00  0.00    -0.058 SA
BRANCH  16  19
HETATM   19  O1  UNL     1      28.618  -3.559  53.335  1.00  0.00    -0.344 OA
HETATM   20  H9  UNL     1      27.718  -3.982  53.380  1.00  0.00     0.219 HD
ENDBRANCH  16  19
ENDBRANCH   3  14
BRANCH   1  21
HETATM   21  C3  UNL     1      25.437   3.465  50.685  1.00  0.00    -0.034 C 
HETATM   22  C2  UNL     1      26.481   3.971  49.997  1.00  0.00    -0.022 C 
HETATM   23  C1  UNL     1      26.665   4.947  48.926  1.00  0.00     0.036 C 
BRANCH  21  24
HETATM   24  C4  UNL     1      24.077   3.948  50.356  1.00  0.00     0.071 C 
BRANCH  24  25
HETATM   25  C5  UNL     1      23.313   3.099  49.397  1.00  0.00     0.226 C 
HETATM   26  F1  UNL     1      23.032   1.883  49.956  1.00  0.00    -0.255 F 
ENDBRANCH  24  25
ENDBRANCH  21  24
ENDBRANCH   1  21
TORSDOF 10
ENDMDL
MODEL 2
REMARK VINA RESULT:      -7.0      2.239      2.687
REMARK  10 active torsions:
REMARK  status: ('A' for Active; 'I' for Inactive)
REMARK    1  A    between atoms: C3_3  and  C4_4 
REMARK    2  A    between atoms: C3_3  and  C6_7 
REMARK    3  A    between atoms: C4_4  and  C5_5 
REMARK    4  A    between atoms: N2_9  and  C7_10 
REMARK    5  A    between atoms: C8_12  and  O1_13 
REMARK    6  A    between atoms: C10_16  and  C11_17 
REMARK    7  A    between atoms: C11_17  and  C12_18 
REMARK    8  A    between atoms: C13_19  and  C14_20 
REMARK    9  A    between atoms: C14_20  and  P1_21 
REMARK   10  A    between atoms: P1_21  and  C15_22 
ROOT
HETATM    1  C6  UNL     1      24.864   3.098  51.030  1.00  0.00     0.063 C 
HETATM    2  N1  UNL     1      26.007   2.580  51.208  1.00  0.00    -0.174 NA
HETATM    3  N2  UNL     1      26.198   2.157  52.508  1.00  0.00    -0.240 N 
HETATM    4  C10 UNL     1      24.892   2.176  53.188  1.00  0.00     0.122 C 
HETATM    5  C16 UNL     1      24.099   3.072  52.308  1.00  0.00     0.089 C 
ENDROOT
BRANCH   4   6
HETATM    6  C11 UNL     1      24.345   0.770  53.262  1.00  0.00     0.055 C 
BRANCH   6   7
HETATM    7  C12 UNL     1      22.935   0.631  53.052  1.00  0.00    -0.016 C 
HETATM    8  C13 UNL     1      22.639  -0.399  53.809  1.00  0.00     0.051 C 
BRANCH   8   9
HETATM    9  C14 UNL     1      21.295  -0.477  53.566  1.00  0.00    -0.127 C 
BRANCH   9  10
HETATM   10  P1  UNL     1      19.903  -0.572  53.293  1.00  0.00    -0.041 P 
HETATM   11  H16 UNL     1      19.445  -0.601  53.195  1.00  0.00     0.071 HD
BRANCH  10  12
HETATM   12  C15 UNL     1      17.492  -0.762  52.857  1.00  0.00     0.158 C 
HETATM   13 CL1  UNL     1      17.723  -0.300  51.214  1.00  0.00    -0.125 Cl
ENDBRANCH  10  12
ENDBRANCH   9  10
ENDBRANCH   8   9
ENDBRANCH   6   7
ENDBRANCH   4   6
BRANCH   3  14
HETATM   14  C7  UNL     1      27.374   1.750  53.198  1.00  0.00     0.192 A 
HETATM   15  N3  UNL     1      28.275   2.398  53.923  1.00  0.00    -0.198 NA
HETATM   16  C8  UNL     1      29.248   1.663  54.413  1.00  0.00     0.171 A 
HETATM   17  C9  UNL     1      29.346   0.237  54.186  1.00  0.00     0.111 A 
HETATM   18  S1  UNL     1      27.850   0.025  53.160  1.00  0.00    -0.058 SA
BRANCH  16  19
HETATM   19  O1  UNL     1      30.107   2.512  55.151  1.00  0.00    -0.344 OA
HETATM   20  H9  UNL     1      30.922   2.925  54.757  1.00  0.00     0.219 HD
ENDBRANCH  16  19
ENDBRANCH   3  14
BRANCH   1  21
HETATM   21  C3  UNL     1      24.384   3.632  49.759  1.00  0.00    -0.034 C 
HETATM   22  C2  UNL     1      23.352   2.967  49.199  1.00  0.00    -0.022 C 
HETATM   23  C1  UNL     1      22.541   3.103  47.992  1.00  0.00     0.036 C 
BRANCH  21  24
HETATM   24  C4  UNL     1      24.915   4.823  49.060  1.00  0.00     0.071 C 
BRANCH  24  25
HETATM   25  C5  UNL     1      24.741   6.116  49.782  1.00  0.00     0.226 C 
HETATM   26  F1  UNL     1      23.453   6.248  50.221  1.00  0.00    -0.255 F 
ENDBRANCH  24  25
ENDBRANCH  21  24
ENDBRANCH   1  21
TORSDOF 10
ENDMDL
MODEL 3
REMARK VINA RESULT:      -6.8      5.098      7.666
REMARK  10 active torsions:
REMARK  status: ('A' for Active; 'I' for Inactive)
REMARK    1  A    between atoms: C3_3  and  C4_4 
REMARK    2  A    between atoms: C3_3  and  C6_7 
REMARK    3  A    between atoms: C4_4  and  C5_5 
REMARK    4  A    between atoms: N2_9  and  C7_10 
REMARK    5  A    between atoms: C8_12  and  O1_13 
REMARK    6  A    between atoms: C10_16  and  C11_17 
REMARK    7  A    between atoms: C11_17  and  C12_18 
REMARK    8  A    between atoms: C13_19  and  C14_20 
REMARK    9  A    between atoms: C14_20  and  P1_21 
REMARK   10  A    between atoms: P1_21  and  C15_22 
ROOT
HETATM    1  C6  UNL     1      26.033   0.657  53.103  1.00  0.00     0.063 C 
HETATM    2  N1  UNL     1      24.828   0.305  52.932  1.00  0.00    -0.174 NA
HETATM    3  N2  UNL     1      24.008   1.369  52.610  1.00  0.00    -0.240 N 
HETATM    4  C10 UNL     1      24.865   2.518  52.278  1.00  0.00     0.122 C 
HETATM    5  C16 UNL     1      26.159   2.127  52.893  1.00  0.00     0.089 C 
ENDROOT
BRANCH   4   6
HETATM    6  C11 UNL     1      24.937   2.672  50.777  1.00  0.00     0.055 C 
BRANCH   6   7
HETATM    7  C12 UNL     1      25.315   3.967  50.294  1.00  0.00    -0.016 C 
HETATM    8  C13 UNL     1      26.325   3.687  49.504  1.00  0.00     0.051 C 
BRANCH   8   9
HETATM    9  C14 UNL     1      26.635   4.951  49.081  1.00  0.00    -0.127 C 
BRANCH   9  10
HETATM   10  P1  UNL     1      26.933   6.267  48.632  1.00  0.00    -0.041 P 
HETATM   11  H16 UNL     1      27.026   6.700  48.479  1.00  0.00     0.071 HD
BRANCH  10  12
HETATM   12  C15 UNL     1      27.466   8.550  47.898  1.00  0.00     0.158 C 
HETATM   13 CL1  UNL     1      28.507   8.774  49.252  1.00  0.00    -0.125 Cl
ENDBRANCH  10  12
ENDBRANCH   9  10
ENDBRANCH   8   9
ENDBRANCH   6   7
ENDBRANCH   4   6
BRANCH   3  14
HETATM   14  C7  UNL     1      22.589   1.479  52.568  1.00  0.00     0.192 A 
HETATM   15  N3  UNL     1      21.758   2.509  52.495  1.00  0.00    -0.198 NA
HETATM   16  C8  UNL     1      20.478   2.208  52.476  1.00  0.00     0.171 A 
HETATM   17  C9  UNL     1      19.991   0.845  52.532  1.00  0.00     0.111 A 
HETATM   18  S1  UNL     1      21.602  -0.012  52.616  1.00  0.00    -0.058 SA
BRANCH  16  19
HETATM   19  O1  UNL     1      19.747   3.416  52.396  1.00  0.00    -0.344 OA
HETATM   20  H9  UNL     1      19.395   3.776  51.537  1.00  0.00     0.219 HD
ENDBRANCH  16  19
ENDBRANCH   3  14
BRANCH   1  21
HETATM   21  C3  UNL     1      27.122  -0.251  53.449  1.00  0.00    -0.034 C 
HETATM   22  C2  UNL     1      27.125  -1.433  52.800  1.00  0.00    -0.022 C 
HETATM   23  C1  UNL     1      27.969  -2.625  52.784  1.00  0.00     0.036 C 
BRANCH  21  24
HETATM   24  C4  UNL     1      28.204   0.021  54.422  1.00  0.00     0.071 C 
BRANCH  24  25
HETATM   25  C5  UNL     1      29.421   0.671  53.856  1.00  0.00     0.226 C 
HETATM   26  F1  UNL     1      30.293  -0.274  53.390  1.00  0.00    -0.255 F 
ENDBRANCH  24  25
ENDBRANCH  21  24
ENDBRANCH   1  21
TORSDOF 10
ENDMDL
MODEL 4
REMARK VINA RESULT:      -6.8      4.615      7.092
REMARK  10 active torsions:
REMARK  status: ('A' for Active; 'I' for Inactive)
REMARK    1  A    between atoms: C3_3  and  C4_4 
REMARK    2  A    between atoms: C3_3  and  C6_7 
REMARK    3  A    between atoms: C4_4  and  C5_5 
REMARK    4  A    between atoms: N2_9  and  C7_10 
REMARK    5  A    between atoms: C8_12  and  O1_13 
REMARK    6  A    between atoms: C10_16  and  C11_17 
REMARK    7  A    between atoms: C11_17  and  C12_18 
REMARK    8  A    between atoms: C13_19  and  C14_20 
REMARK    9  A    between atoms: C14_20  and  P1_21 
REMARK   10  A    between atoms: P1_21  and  C15_22 
ROOT
HETATM    1  C6  UNL     1      26.113   0.578  53.600  1.00  0.00     0.063 C 
HETATM    2  N1  UNL     1      25.065  -0.134  53.558  1.00  0.00    -0.174 NA
HETATM    3  N2  UNL     1      23.937   0.605  53.261  1.00  0.00    -0.240 N 
HETATM    4  C10 UNL     1      24.372   1.932  52.796  1.00  0.00     0.122 C 
HETATM    5  C16 UNL     1      25.765   1.997  53.308  1.00  0.00     0.089 C 
ENDROOT
BRANCH   4   6
HETATM    6  C11 UNL     1      24.285   1.987  51.289  1.00  0.00     0.055 C 
BRANCH   6   7
HETATM    7  C12 UNL     1      25.247   2.822  50.633  1.00  0.00    -0.016 C 
HETATM    8  C13 UNL     1      24.528   3.869  50.299  1.00  0.00     0.051 C 
BRANCH   8   9
HETATM    9  C14 UNL     1      25.496   4.617  49.684  1.00  0.00    -0.127 C 
BRANCH   9  10
HETATM   10  P1  UNL     1      26.495   5.413  49.061  1.00  0.00    -0.041 P 
HETATM   11  H16 UNL     1      26.825   5.681  48.863  1.00  0.00     0.071 HD
BRANCH  10  12
HETATM   12  C15 UNL     1      28.231   6.757  47.957  1.00  0.00     0.158 C 
HETATM   13 CL1  UNL     1      29.365   5.469  48.109  1.00  0.00    -0.125 Cl
ENDBRANCH  10  12
ENDBRANCH   9  10
ENDBRANCH   8   9
ENDBRANCH   6   7
ENDBRANCH   4   6
BRANCH   3  14
HETATM   14  C7  UNL     1      22.554   0.277  53.343  1.00  0.00     0.192 A 
HETATM   15  N3  UNL     1      21.890  -0.753  53.847  1.00  0.00    -0.198 NA
HETATM   16  C8  UNL     1      20.582  -0.700  53.732  1.00  0.00     0.171 A 
HETATM   17  C9  UNL     1      19.894   0.405  53.097  1.00  0.00     0.111 A 
HETATM   18  S1  UNL     1      21.352   1.413  52.659  1.00  0.00    -0.058 SA
BRANCH  16  19
HETATM   19  O1  UNL     1      20.044  -1.869  54.318  1.00  0.00    -0.344 OA
HETATM   20  H9  UNL     1      19.080  -1.957  54.555  1.00  0.00     0.219 HD
ENDBRANCH  16  19
ENDBRANCH   3  14
BRANCH   1  21
HETATM   21  C3  UNL     1      27.450   0.070  53.890  1.00  0.00    -0.034 C 
HETATM   22  C2  UNL     1      27.827  -1.017  53.186  1.00  0.00    -0.022 C 
HETATM   23  C1  UNL     1      29.017  -1.860  53.104  1.00  0.00     0.036 C 
BRANCH  21  24
HETATM   24  C4  UNL     1      28.408   0.648  54.860  1.00  0.00     0.071 C 
BRANCH  24  25
HETATM   25  C5  UNL     1      29.400   1.601  54.285  1.00  0.00     0.226 C 
HETATM   26  F1  UNL     1      28.792   2.781  53.956  1.00  0.00    -0.255 F 
ENDBRANCH  24  25
ENDBRANCH  21  24
ENDBRANCH   1  21
TORSDOF 10
ENDMDL
MODEL 5
REMARK VINA RESULT:      -6.7      4.827      7.118
REMARK  10 active torsions:
REMARK  status: ('A' for Active; 'I' for Inactive)
REMARK    1  A    between atoms: C3_3  and  C4_4 
REMARK    2  A    between atoms: C3_3  and  C6_7 
REMARK    3  A    between atoms: C4_4  and  C5_5 
REMARK    4  A    between atoms: N2_9  and  C7_10 
REMARK    5  A    between atoms: C8_12  and  O1_13 
REMARK    6  A    between atoms: C10_16  and  C11_17 
REMARK    7  A    between atoms: C11_17  and  C12_18 
REMARK    8  A    between atoms: C13_19  and  C14_20 
REMARK    9  A    between atoms: C14_20  and  P1_21 
REMARK   10  A    between atoms: P1_21  and  C15_22 
ROOT
HETATM    1  C6  UNL     1      25.144   1.570  53.332  1.00  0.00     0.063 C 
HETATM    2  N1  UNL     1      24.240   0.724  53.063  1.00  0.00    -0.174 NA
HETATM    3  N2  UNL     1      23.016   1.316  52.824  1.00  0.00    -0.240 N 
HETATM    4  C10 UNL     1      23.235   2.763  52.667  1.00  0.00     0.122 C 
HETATM    5  C16 UNL     1      24.569   2.944  53.297  1.00  0.00     0.089 C 
ENDROOT
BRANCH   4   6
HETATM    6  C11 UNL     1      23.213   3.116  51.199  1.00  0.00     0.055 C 
BRANCH   6   7
HETATM    7  C12 UNL     1      24.249   3.997  50.747  1.00  0.00    -0.016 C 
HETATM    8  C13 UNL     1      24.761   3.332  49.737  1.00  0.00     0.051 C 
BRANCH   8   9
HETATM    9  C14 UNL     1      25.732   4.217  49.356  1.00  0.00    -0.127 C 
BRANCH   9  10
HETATM   10  P1  UNL     1      26.725   5.156  48.962  1.00  0.00    -0.041 P 
HETATM   11  H16 UNL     1      27.053   5.468  48.840  1.00  0.00     0.071 HD
BRANCH  10  12
HETATM   12  C15 UNL     1      28.443   6.757  48.242  1.00  0.00     0.158 C 
HETATM   13 CL1  UNL     1      29.591   5.486  48.055  1.00  0.00    -0.125 Cl
ENDBRANCH  10  12
ENDBRANCH   9  10
ENDBRANCH   8   9
ENDBRANCH   6   7
ENDBRANCH   4   6
BRANCH   3  14
HETATM   14  C7  UNL     1      21.709   0.761  52.725  1.00  0.00     0.192 A 
HETATM   15  N3  UNL     1      20.809   0.717  51.752  1.00  0.00    -0.198 NA
HETATM   16  C8  UNL     1      19.686   0.099  52.042  1.00  0.00     0.171 A 
HETATM   17  C9  UNL     1      19.430  -0.499  53.336  1.00  0.00     0.111 A 
HETATM   18  S1  UNL     1      21.015  -0.083  54.142  1.00  0.00    -0.058 SA
BRANCH  16  19
HETATM   19  O1  UNL     1      18.853   0.148  50.900  1.00  0.00    -0.344 OA
HETATM   20  H9  UNL     1      18.007   0.673  50.874  1.00  0.00     0.219 HD
ENDBRANCH  16  19
ENDBRANCH   3  14
BRANCH   1  21
HETATM   21  C3  UNL     1      26.533   1.235  53.627  1.00  0.00    -0.034 C 
HETATM   22  C2  UNL     1      27.418   2.244  53.494  1.00  0.00    -0.022 C 
HETATM   23  C1  UNL     1      28.858   2.415  53.675  1.00  0.00     0.036 C 
BRANCH  21  24
HETATM   24  C4  UNL     1      27.035  -0.088  54.063  1.00  0.00     0.071 C 
BRANCH  24  25
HETATM   25  C5  UNL     1      27.527  -0.975  52.971  1.00  0.00     0.226 C 
HETATM   26  F1  UNL     1      26.875  -0.699  51.802  1.00  0.00    -0.255 F 
ENDBRANCH  24  25
ENDBRANCH  21  24
ENDBRANCH   1  21
TORSDOF 10
ENDMDL
MODEL 6
REMARK VINA RESULT:      -6.7      5.575      8.276
REMARK  10 active torsions:
REMARK  status: ('A' for Active; 'I' for Inactive)
REMARK    1  A    between atoms: C3_3  and  C4_4 
REMARK    2  A    between atoms: C3_3  and  C6_7 
REMARK    3  A    between atoms: C4_4  and  C5_5 
REMARK    4  A    between atoms: N2_9  and  C7_10 
REMARK    5  A    between atoms: C8_12  and  O1_13 
REMARK    6  A    between atoms: C10_16  and  C11_17 
REMARK    7  A    between atoms: C11_17  and  C12_18 
REMARK    8  A    between atoms: C13_19  and  C14_20 
REMARK    9  A    between atoms: C14_20  and  P1_21 
REMARK   10  A    between atoms: P1_21  and  C15_22 
ROOT
HETATM    1  C6  UNL     1      26.309   1.165  52.250  1.00  0.00     0.063 C 
HETATM    2  N1  UNL     1      25.105   1.086  51.864  1.00  0.00    -0.174 NA
HETATM    3  N2  UNL     1      24.648   2.267  51.314  1.00  0.00    -0.240 N 
HETATM    4  C10 UNL     1      25.810   3.140  51.085  1.00  0.00     0.122 C 
HETATM    5  C16 UNL     1      26.834   2.531  51.972  1.00  0.00     0.089 C 
ENDROOT
BRANCH   4   6
HETATM    6  C11 UNL     1      26.184   3.101  49.622  1.00  0.00     0.055 C 
BRANCH   6   7
HETATM    7  C12 UNL     1      27.107   4.105  49.181  1.00  0.00    -0.016 C 
HETATM    8  C13 UNL     1      26.323   5.139  48.983  1.00  0.00     0.051 C 
BRANCH   8   9
HETATM    9  C14 UNL     1      27.255   6.051  48.569  1.00  0.00    -0.127 C 
BRANCH   9  10
HETATM   10  P1  UNL     1      28.242   6.981  48.143  1.00  0.00    -0.041 P 
HETATM   11  H16 UNL     1      28.565   7.293  48.009  1.00  0.00     0.071 HD
BRANCH  10  12
HETATM   12  C15 UNL     1      29.968   8.557  47.386  1.00  0.00     0.158 C 
HETATM   13 CL1  UNL     1      30.485   8.817  49.009  1.00  0.00    -0.125 Cl
ENDBRANCH  10  12
ENDBRANCH   9  10
ENDBRANCH   8   9
ENDBRANCH   6   7
ENDBRANCH   4   6
BRANCH   3  14
HETATM   14  C7  UNL     1      23.333   2.699  50.980  1.00  0.00     0.192 A 
HETATM   15  N3  UNL     1      22.679   3.840  51.146  1.00  0.00    -0.198 NA
HETATM   16  C8  UNL     1      21.445   3.861  50.694  1.00  0.00     0.171 A 
HETATM   17  C9  UNL     1      20.823   2.720  50.055  1.00  0.00     0.111 A 
HETATM   18  S1  UNL     1      22.227   1.557  50.159  1.00  0.00    -0.058 SA
BRANCH  16  19
HETATM   19  O1  UNL     1      20.907   5.144  50.953  1.00  0.00    -0.344 OA
HETATM   20  H9  UNL     1      20.566   5.739  50.232  1.00  0.00     0.219 HD
ENDBRANCH  16  19
ENDBRANCH   3  14
BRANCH   1  21
HETATM   21  C3  UNL     1      27.056   0.074  52.868  1.00  0.00    -0.034 C 
HETATM   22  C2  UNL     1      26.865  -1.145  52.324  1.00  0.00    -0.022 C 
HETATM   23  C1  UNL     1      27.367  -2.497  52.563  1.00  0.00     0.036 C 
BRANCH  21  24
HETATM   24  C4  UNL     1      27.994   0.198  54.006  1.00  0.00     0.071 C 
BRANCH  24  25
HETATM   25  C5  UNL     1      29.420   0.427  53.635  1.00  0.00     0.226 C 
HETATM   26  F1  UNL     1      30.107  -0.756  53.633  1.00  0.00    -0.255 F 
ENDBRANCH  24  25
ENDBRANCH  21  24
ENDBRANCH   1  21
TORSDOF 10
ENDMDL
MODEL 7
REMARK VINA RESULT:      -6.6      7.853     10.443
REMARK  10 active torsions:
REMARK  status: ('A' for Active; 'I' for Inactive)
REMARK    1  A    between atoms: C3_3  and  C4_4 
REMARK    2  A    between atoms: C3_3  and  C6_7 
REMARK    3  A    between atoms: C4_4  and  C5_5 
REMARK    4  A    between atoms: N2_9  and  C7_10 
REMARK    5  A    between atoms: C8_12  and  O1_13 
REMARK    6  A    between atoms: C10_16  and  C11_17 
REMARK    7  A    between atoms: C11_17  and  C12_18 
REMARK    8  A    between atoms: C13_19  and  C14_20 
REMARK    9  A    between atoms: C14_20  and  P1_21 
REMARK   10  A    between atoms: P1_21  and  C15_22 
ROOT
HETATM    1  C6  UNL     1      29.175   6.006  48.109  1.00  0.00     0.063 C 
HETATM    2  N1  UNL     1      30.165   5.408  48.626  1.00  0.00    -0.174 NA
HETATM    3  N2  UNL     1      31.371   5.845  48.116  1.00  0.00    -0.240 N 
HETATM    4  C10 UNL     1      31.121   7.078  47.353  1.00  0.00     0.122 C 
HETATM    5  C16 UNL     1      29.658   6.999  47.109  1.00  0.00     0.089 C 
ENDROOT
BRANCH   4   6
HETATM    6  C11 UNL     1      31.526   8.272  48.184  1.00  0.00     0.055 C 
BRANCH   6   7
HETATM    7  C12 UNL     1      30.925   9.523  47.826  1.00  0.00    -0.016 C 
HETATM    8  C13 UNL     1      30.587  10.017  48.994  1.00  0.00     0.051 C 
BRANCH   8   9
HETATM    9  C14 UNL     1      30.026  11.196  48.584  1.00  0.00    -0.127 C 
BRANCH   9  10
HETATM   10  P1  UNL     1      29.421  12.414  48.169  1.00  0.00    -0.041 P 
HETATM   11  H16 UNL     1      29.224  12.814  48.024  1.00  0.00     0.071 HD
BRANCH  10  12
HETATM   12  C15 UNL     1      28.352  14.518  47.488  1.00  0.00     0.158 C 
HETATM   13 CL1  UNL     1      26.891  14.067  48.281  1.00  0.00    -0.125 Cl
ENDBRANCH  10  12
ENDBRANCH   9  10
ENDBRANCH   8   9
ENDBRANCH   6   7
ENDBRANCH   4   6
BRANCH   3  14
HETATM   14  C7  UNL     1      32.685   5.307  48.224  1.00  0.00     0.192 A 
HETATM   15  N3  UNL     1      33.773   5.685  48.879  1.00  0.00    -0.198 NA
HETATM   16  C8  UNL     1      34.826   4.912  48.730  1.00  0.00     0.171 A 
HETATM   17  C9  UNL     1      34.815   3.720  47.907  1.00  0.00     0.111 A 
HETATM   18  S1  UNL     1      33.082   3.805  47.337  1.00  0.00    -0.058 SA
BRANCH  16  19
HETATM   19  O1  UNL     1      35.883   5.462  49.492  1.00  0.00    -0.344 OA
HETATM   20  H9  UNL     1      35.990   6.442  49.632  1.00  0.00     0.219 HD
ENDBRANCH  16  19
ENDBRANCH   3  14
BRANCH   1  21
HETATM   21  C3  UNL     1      27.779   5.752  48.454  1.00  0.00    -0.034 C 
HETATM   22  C2  UNL     1      27.509   4.516  48.919  1.00  0.00    -0.022 C 
HETATM   23  C1  UNL     1      26.324   3.802  49.391  1.00  0.00     0.036 C 
BRANCH  21  24
HETATM   24  C4  UNL     1      26.668   6.724  48.350  1.00  0.00     0.071 C 
BRANCH  24  25
HETATM   25  C5  UNL     1      26.489   7.617  49.530  1.00  0.00     0.226 C 
HETATM   26  F1  UNL     1      27.584   8.420  49.691  1.00  0.00    -0.255 F 
ENDBRANCH  24  25
ENDBRANCH  21  24
ENDBRANCH   1  21
TORSDOF 10
ENDMDL
MODEL 8
REMARK VINA RESULT:      -6.5      5.476      8.210
REMARK  10 active torsions:
REMARK  status: ('A' for Active; 'I' for Inactive)
REMARK    1  A    between atoms: C3_3  and  C4_4 
REMARK    2  A    between atoms: C3_3  and  C6_7 
REMARK    3  A    between atoms: C4_4  and  C5_5 
REMARK    4  A    between atoms: N2_9  and  C7_10 
REMARK    5  A    between atoms: C8_12  and  O1_13 
REMARK    6  A    between atoms: C10_16  and  C11_17 
REMARK    7  A    between atoms: C11_17  and  C12_18 
REMARK    8  A    between atoms: C13_19  and  C14_20 
REMARK    9  A    between atoms: C14_20  and  P1_21 
REMARK   10  A    between atoms: P1_21  and  C15_22 
ROOT
HETATM    1  C6  UNL     1      25.334   1.221  52.386  1.00  0.00     0.063 C 
HETATM    2  N1  UNL     1      24.206   1.652  52.002  1.00  0.00    -0.174 NA
HETATM    3  N2  UNL     1      24.279   2.925  51.473  1.00  0.00    -0.240 N 
HETATM    4  C10 UNL     1      25.699   3.245  51.255  1.00  0.00     0.122 C 
HETATM    5  C16 UNL     1      26.377   2.254  52.130  1.00  0.00     0.089 C 
ENDROOT
BRANCH   4   6
HETATM    6  C11 UNL     1      26.031   3.079  49.791  1.00  0.00     0.055 C 
BRANCH   6   7
HETATM    7  C12 UNL     1      26.913   4.059  49.230  1.00  0.00    -0.016 C 
HETATM    8  C13 UNL     1      26.164   5.136  49.217  1.00  0.00     0.051 C 
BRANCH   8   9
HETATM    9  C14 UNL     1      27.056   6.022  48.677  1.00  0.00    -0.127 C 
BRANCH   9  10
HETATM   10  P1  UNL     1      27.964   6.959  48.112  1.00  0.00    -0.041 P 
HETATM   11  H16 UNL     1      28.258   7.271  47.921  1.00  0.00     0.071 HD
BRANCH  10  12
HETATM   12  C15 UNL     1      29.560   8.573  47.171  1.00  0.00     0.158 C 
HETATM   13 CL1  UNL     1      29.152   8.088  45.569  1.00  0.00    -0.125 Cl
ENDBRANCH  10  12
ENDBRANCH   9  10
ENDBRANCH   8   9
ENDBRANCH   6   7
ENDBRANCH   4   6
BRANCH   3  14
HETATM   14  C7  UNL     1      23.260   3.866  51.150  1.00  0.00     0.192 A 
HETATM   15  N3  UNL     1      23.036   5.123  51.504  1.00  0.00    -0.198 NA
HETATM   16  C8  UNL     1      21.963   5.678  50.986  1.00  0.00     0.171 A 
HETATM   17  C9  UNL     1      21.072   4.976  50.086  1.00  0.00     0.111 A 
HETATM   18  S1  UNL     1      21.946   3.373  50.040  1.00  0.00    -0.058 SA
BRANCH  16  19
HETATM   19  O1  UNL     1      21.883   7.006  51.469  1.00  0.00    -0.344 OA
HETATM   20  H9  UNL     1      21.047   7.545  51.421  1.00  0.00     0.219 HD
ENDBRANCH  16  19
ENDBRANCH   3  14
BRANCH   1  21
HETATM   21  C3  UNL     1      25.562  -0.090  52.984  1.00  0.00    -0.034 C 
HETATM   22  C2  UNL     1      26.454  -0.876  52.346  1.00  0.00    -0.022 C 
HETATM   23  C1  UNL     1      27.014  -2.211  52.542  1.00  0.00     0.036 C 
BRANCH  21  24
HETATM   24  C4  UNL     1      24.921  -0.609  54.213  1.00  0.00     0.071 C 
BRANCH  24  25
HETATM   25  C5  UNL     1      23.452  -0.845  54.114  1.00  0.00     0.226 C 
HETATM   26  F1  UNL     1      22.919  -1.058  55.356  1.00  0.00    -0.255 F 
ENDBRANCH  24  25
ENDBRANCH  21  24
ENDBRANCH   1  21
TORSDOF 10
ENDMDL
MODEL 9
REMARK VINA RESULT:      -6.4      5.825      8.631
REMARK  10 active torsions:
REMARK  status: ('A' for Active; 'I' for Inactive)
REMARK    1  A    between atoms: C3_3  and  C4_4 
REMARK    2  A    between atoms: C3_3  and  C6_7 
REMARK    3  A    between atoms: C4_4  and  C5_5 
REMARK    4  A    between atoms: N2_9  and  C7_10 
REMARK    5  A    between atoms: C8_12  and  O1_13 
REMARK    6  A    between atoms: C10_16  and  C11_17 
REMARK    7  A    between atoms: C11_17  and  C12_18 
REMARK    8  A    between atoms: C13_19  and  C14_20 
REMARK    9  A    between atoms: C14_20  and  P1_21 
REMARK   10  A    between atoms: P1_21  and  C15_22 
ROOT
HETATM    1  C6  UNL     1      24.103   1.607  52.392  1.00  0.00     0.063 C 
HETATM    2  N1  UNL     1      23.080   2.203  51.943  1.00  0.00    -0.174 NA
HETATM    3  N2  UNL     1      23.384   3.431  51.389  1.00  0.00    -0.240 N 
HETATM    4  C10 UNL     1      24.846   3.508  51.233  1.00  0.00     0.122 C 
HETATM    5  C16 UNL     1      25.313   2.447  52.162  1.00  0.00     0.089 C 
ENDROOT
BRANCH   4   6
HETATM    6  C11 UNL     1      25.210   3.244  49.791  1.00  0.00     0.055 C 
BRANCH   6   7
HETATM    7  C12 UNL     1      26.497   3.712  49.370  1.00  0.00    -0.016 C 
HETATM    8  C13 UNL     1      26.251   4.962  49.054  1.00  0.00     0.051 C 
BRANCH   8   9
HETATM    9  C14 UNL     1      27.506   5.346  48.666  1.00  0.00    -0.127 C 
BRANCH   9  10
HETATM   10  P1  UNL     1      28.815   5.721  48.259  1.00  0.00    -0.041 P 
HETATM   11  H16 UNL     1      29.250   5.840  48.131  1.00  0.00     0.071 HD
BRANCH  10  12
HETATM   12  C15 UNL     1      31.062   6.379  47.514  1.00  0.00     0.158 C 
HETATM   13 CL1  UNL     1      31.775   5.583  48.865  1.00  0.00    -0.125 Cl
ENDBRANCH  10  12
ENDBRANCH   9  10
ENDBRANCH   8   9
ENDBRANCH   6   7
ENDBRANCH   4   6
BRANCH   3  14
HETATM   14  C7  UNL     1      22.550   4.514  50.994  1.00  0.00     0.192 A 
HETATM   15  N3  UNL     1      22.514   5.800  51.315  1.00  0.00    -0.198 NA
HETATM   16  C8  UNL     1      21.574   6.508  50.730  1.00  0.00     0.171 A 
HETATM   17  C9  UNL     1      20.629   5.936  49.793  1.00  0.00     0.111 A 
HETATM   18  S1  UNL     1      21.233   4.213  49.822  1.00  0.00    -0.058 SA
BRANCH  16  19
HETATM   19  O1  UNL     1      21.685   7.842  51.185  1.00  0.00    -0.344 OA
HETATM   20  H9  UNL     1      22.387   8.134  51.828  1.00  0.00     0.219 HD
ENDBRANCH  16  19
ENDBRANCH   3  14
BRANCH   1  21
HETATM   21  C3  UNL     1      24.086   0.295  53.031  1.00  0.00    -0.034 C 
HETATM   22  C2  UNL     1      22.864  -0.199  53.317  1.00  0.00    -0.022 C 
HETATM   23  C1  UNL     1      22.334  -1.420  53.918  1.00  0.00     0.036 C 
BRANCH  21  24
HETATM   24  C4  UNL     1      25.272  -0.524  53.368  1.00  0.00     0.071 C 
BRANCH  24  25
HETATM   25  C5  UNL     1      25.801  -0.341  54.751  1.00  0.00     0.226 C 
HETATM   26  F1  UNL     1      26.333   0.910  54.896  1.00  0.00    -0.255 F 
ENDBRANCH  24  25
ENDBRANCH  21  24
ENDBRANCH   1  21
TORSDOF 10
ENDMDL
