MODEL 1
REMARK VINA RESULT:      -7.7      0.000      0.000
REMARK  6 active torsions:
REMARK  status: ('A' for Active; 'I' for Inactive)
REMARK    1  A    between atoms: C2_2  and  C3_3 
REMARK    2  A    between atoms: C4_4  and  C5_5 
REMARK    3  A    between atoms: C5_5  and  C6_7 
REMARK    4  A    between atoms: C7_8  and  C8_9 
REMARK    5  A    between atoms: C11_14  and  N3_15 
REMARK    6  A    between atoms: N3_15  and  C12_16 
ROOT
HETATM    1  C8  UNL     1      26.938  -0.658  53.635  1.00  0.00     0.028 A 
HETATM    2  C9  UNL     1      27.608  -1.806  53.279  1.00  0.00     0.133 A 
HETATM    3  N1  UNL     1      28.948  -1.698  53.255  1.00  0.00    -0.253 NA
HETATM    4  C10 UNL     1      29.546  -0.509  53.570  1.00  0.00     0.234 A 
HETATM    5  N2  UNL     1      28.855   0.619  53.920  1.00  0.00    -0.224 NA
HETATM    6  C11 UNL     1      27.512   0.549  53.956  1.00  0.00     0.141 A 
ENDROOT
BRANCH   6   7
HETATM    7  N3  UNL     1      26.860   1.754  54.311  1.00  0.00    -0.340 N 
HETATM    8  H12 UNL     1      26.877   2.255  55.223  1.00  0.00     0.167 HD
BRANCH   7   9
HETATM    9  C12 UNL     1      26.084   2.322  53.240  1.00  0.00     0.035 A 
HETATM   10  C13 UNL     1      24.784   2.738  53.448  1.00  0.00     0.029 A 
HETATM   11  C14 UNL     1      24.038   3.287  52.402  1.00  0.00     0.004 A 
HETATM   12  C15 UNL     1      24.601   3.421  51.138  1.00  0.00     0.024 A 
HETATM   13  C16 UNL     1      25.896   3.009  50.926  1.00  0.00     0.036 A 
HETATM   14 CL1  UNL     1      26.655   3.161  49.337  1.00  0.00    -0.084 Cl
HETATM   15  C17 UNL     1      26.647   2.459  51.965  1.00  0.00     0.053 A 
ENDBRANCH   7   9
ENDBRANCH   6   7
BRANCH   1  16
HETATM   16  C7  UNL     1      25.498  -0.780  53.669  1.00  0.00     0.021 C 
HETATM   17  C6  UNL     1      24.418  -0.833  54.393  1.00  0.00     0.056 C 
BRANCH  17  18
HETATM   18  C5  UNL     1      22.979  -0.955  54.413  1.00  0.00     0.171 C 
HETATM   19  O1  UNL     1      22.502  -1.450  55.480  1.00  0.00    -0.289 OA
BRANCH  18  20
HETATM   20  C4  UNL     1      22.090  -0.548  53.303  1.00  0.00     0.051 C 
HETATM   21  C3  UNL     1      22.158   0.101  52.125  1.00  0.00    -0.023 C 
BRANCH  21  22
HETATM   22  C2  UNL     1      21.034   0.368  51.181  1.00  0.00     0.023 C 
HETATM   23  C1  UNL     1      21.570   1.031  49.932  1.00  0.00     0.009 C 
ENDBRANCH  21  22
ENDBRANCH  18  20
ENDBRANCH  17  18
ENDBRANCH   1  16
TORSDOF 6
ENDMDL
MODEL 2
REMARK VINA RESULT:      -7.6      3.121      5.576
REMARK  6 active torsions:
REMARK  status: ('A' for Active; 'I' for Inactive)
REMARK    1  A    between atoms: C2_2  and  C3_3 
REMARK    2  A    between atoms: C4_4  and  C5_5 
REMARK    3  A    between atoms: C5_5  and  C6_7 
REMARK    4  A    between atoms: C7_8  and  C8_9 
REMARK    5  A    between atoms: C11_14  and  N3_15 
REMARK    6  A    between atoms: N3_15  and  C12_16 
ROOT
HETATM    1  C8  UNL     1      27.481   1.648  53.013  1.00  0.00     0.028 A 
HETATM    2  C9  UNL     1      28.470   2.234  53.769  1.00  0.00     0.133 A 
HETATM    3  N1  UNL     1      28.999   1.447  54.722  1.00  0.00    -0.253 NA
HETATM    4  C10 UNL     1      28.548   0.166  54.882  1.00  0.00     0.234 A 
HETATM    5  N2  UNL     1      27.562  -0.393  54.116  1.00  0.00    -0.224 NA
HETATM    6  C11 UNL     1      27.009   0.365  53.151  1.00  0.00     0.141 A 
ENDROOT
BRANCH   6   7
HETATM    7  N3  UNL     1      25.986  -0.269  52.407  1.00  0.00    -0.340 N 
HETATM    8  H12 UNL     1      26.066  -0.790  51.509  1.00  0.00     0.167 HD
BRANCH   7   9
HETATM    9  C12 UNL     1      24.683  -0.152  53.008  1.00  0.00     0.035 A 
HETATM   10  C13 UNL     1      24.306  -0.971  54.053  1.00  0.00     0.029 A 
HETATM   11  C14 UNL     1      23.039  -0.850  54.629  1.00  0.00     0.004 A 
HETATM   12  C15 UNL     1      22.143   0.101  54.152  1.00  0.00     0.024 A 
HETATM   13  C16 UNL     1      22.514   0.918  53.111  1.00  0.00     0.036 A 
HETATM   14 CL1  UNL     1      21.410   2.143  52.472  1.00  0.00    -0.084 Cl
HETATM   15  C17 UNL     1      23.778   0.804  52.531  1.00  0.00     0.053 A 
ENDBRANCH   7   9
ENDBRANCH   6   7
BRANCH   1  16
HETATM   16  C7  UNL     1      26.921   2.493  51.983  1.00  0.00     0.021 C 
HETATM   17  C6  UNL     1      26.555   2.614  50.740  1.00  0.00     0.056 C 
BRANCH  17  18
HETATM   18  C5  UNL     1      25.993   3.469  49.721  1.00  0.00     0.171 C 
HETATM   19  O1  UNL     1      24.828   3.143  49.336  1.00  0.00    -0.289 OA
BRANCH  18  20
HETATM   20  C4  UNL     1      26.682   4.643  49.141  1.00  0.00     0.051 C 
HETATM   21  C3  UNL     1      27.869   4.963  48.595  1.00  0.00    -0.023 C 
BRANCH  21  22
HETATM   22  C2  UNL     1      28.288   6.298  48.077  1.00  0.00     0.023 C 
HETATM   23  C1  UNL     1      29.771   6.282  47.780  1.00  0.00     0.009 C 
ENDBRANCH  21  22
ENDBRANCH  18  20
ENDBRANCH  17  18
ENDBRANCH   1  16
TORSDOF 6
ENDMDL
MODEL 3
REMARK VINA RESULT:      -7.4      2.925      4.594
REMARK  6 active torsions:
REMARK  status: ('A' for Active; 'I' for Inactive)
REMARK    1  A    between atoms: C2_2  and  C3_3 
REMARK    2  A    between atoms: C4_4  and  C5_5 
REMARK    3  A    between atoms: C5_5  and  C6_7 
REMARK    4  A    between atoms: C7_8  and  C8_9 
REMARK    5  A    between atoms: C11_14  and  N3_15 
REMARK    6  A    between atoms: N3_15  and  C12_16 
ROOT
HETATM    1  C8  UNL     1      27.118   1.295  52.886  1.00  0.00     0.028 A 
HETATM    2  C9  UNL     1      28.125   2.025  53.476  1.00  0.00     0.133 A 
HETATM    3  N1  UNL     1      28.688   1.450  54.553  1.00  0.00    -0.253 NA
HETATM    4  C10 UNL     1      28.253   0.228  54.985  1.00  0.00     0.234 A 
HETATM    5  N2  UNL     1      27.249  -0.477  54.380  1.00  0.00    -0.224 NA
HETATM    6  C11 UNL     1      26.661   0.066  53.299  1.00  0.00     0.141 A 
ENDROOT
BRANCH   6   7
HETATM    7  N3  UNL     1      25.621  -0.708  52.732  1.00  0.00    -0.340 N 
HETATM    8  H12 UNL     1      25.678  -1.399  51.954  1.00  0.00     0.167 HD
BRANCH   7   9
HETATM    9  C12 UNL     1      24.338  -0.478  53.340  1.00  0.00     0.035 A 
HETATM   10  C13 UNL     1      23.960  -1.156  54.481  1.00  0.00     0.029 A 
HETATM   11  C14 UNL     1      22.710  -0.926  55.063  1.00  0.00     0.004 A 
HETATM   12  C15 UNL     1      21.834  -0.007  54.496  1.00  0.00     0.024 A 
HETATM   13  C16 UNL     1      22.206   0.670  53.359  1.00  0.00     0.036 A 
HETATM   14 CL1  UNL     1      21.126   1.848  52.602  1.00  0.00    -0.084 Cl
HETATM   15  C17 UNL     1      23.452   0.446  52.772  1.00  0.00     0.053 A 
ENDBRANCH   7   9
ENDBRANCH   6   7
BRANCH   1  16
HETATM   16  C7  UNL     1      26.521   1.911  51.723  1.00  0.00     0.021 C 
HETATM   17  C6  UNL     1      26.493   2.928  50.912  1.00  0.00     0.056 C 
BRANCH  17  18
HETATM   18  C5  UNL     1      25.888   3.532  49.749  1.00  0.00     0.171 C 
HETATM   19  O1  UNL     1      26.655   4.298  49.088  1.00  0.00    -0.289 OA
BRANCH  18  20
HETATM   20  C4  UNL     1      24.490   3.306  49.320  1.00  0.00     0.051 C 
HETATM   21  C3  UNL     1      23.414   2.585  49.686  1.00  0.00    -0.023 C 
BRANCH  21  22
HETATM   22  C2  UNL     1      22.077   2.567  49.023  1.00  0.00     0.023 C 
HETATM   23  C1  UNL     1      21.518   1.163  49.050  1.00  0.00     0.009 C 
ENDBRANCH  21  22
ENDBRANCH  18  20
ENDBRANCH  17  18
ENDBRANCH   1  16
TORSDOF 6
ENDMDL
MODEL 4
REMARK VINA RESULT:      -7.4      1.226      1.595
REMARK  6 active torsions:
REMARK  status: ('A' for Active; 'I' for Inactive)
REMARK    1  A    between atoms: C2_2  and  C3_3 
REMARK    2  A    between atoms: C4_4  and  C5_5 
REMARK    3  A    between atoms: C5_5  and  C6_7 
REMARK    4  A    between atoms: C7_8  and  C8_9 
REMARK    5  A    between atoms: C11_14  and  N3_15 
REMARK    6  A    between atoms: N3_15  and  C12_16 
ROOT
HETATM    1  C8  UNL     1      26.978  -0.353  53.605  1.00  0.00     0.028 A 
HETATM    2  C9  UNL     1      27.722  -1.491  53.391  1.00  0.00     0.133 A 
HETATM    3  N1  UNL     1      29.053  -1.303  53.363  1.00  0.00    -0.253 NA
HETATM    4  C10 UNL     1      29.573  -0.051  53.539  1.00  0.00     0.234 A 
HETATM    5  N2  UNL     1      28.810   1.065  53.751  1.00  0.00    -0.224 NA
HETATM    6  C11 UNL     1      27.474   0.916  53.786  1.00  0.00     0.141 A 
ENDROOT
BRANCH   6   7
HETATM    7  N3  UNL     1      26.745   2.111  53.993  1.00  0.00    -0.340 N 
HETATM    8  H12 UNL     1      26.741   2.731  54.830  1.00  0.00     0.167 HD
BRANCH   7   9
HETATM    9  C12 UNL     1      25.915   2.478  52.876  1.00  0.00     0.035 A 
HETATM   10  C13 UNL     1      26.416   2.481  51.590  1.00  0.00     0.029 A 
HETATM   11  C14 UNL     1      25.603   2.840  50.511  1.00  0.00     0.004 A 
HETATM   12  C15 UNL     1      24.276   3.197  50.726  1.00  0.00     0.024 A 
HETATM   13  C16 UNL     1      23.773   3.194  52.005  1.00  0.00     0.036 A 
HETATM   14 CL1  UNL     1      22.092   3.639  52.327  1.00  0.00    -0.084 Cl
HETATM   15  C17 UNL     1      24.578   2.838  53.087  1.00  0.00     0.053 A 
ENDBRANCH   7   9
ENDBRANCH   6   7
BRANCH   1  16
HETATM   16  C7  UNL     1      25.548  -0.559  53.645  1.00  0.00     0.021 C 
HETATM   17  C6  UNL     1      24.478  -0.692  54.373  1.00  0.00     0.056 C 
BRANCH  17  18
HETATM   18  C5  UNL     1      23.049  -0.897  54.399  1.00  0.00     0.171 C 
HETATM   19  O1  UNL     1      22.632  -1.616  55.358  1.00  0.00    -0.289 OA
BRANCH  18  20
HETATM   20  C4  UNL     1      22.105  -0.335  53.407  1.00  0.00     0.051 C 
HETATM   21  C3  UNL     1      21.989  -0.195  52.074  1.00  0.00    -0.023 C 
BRANCH  21  22
HETATM   22  C2  UNL     1      20.864   0.449  51.334  1.00  0.00     0.023 C 
HETATM   23  C1  UNL     1      21.369   0.978  50.010  1.00  0.00     0.009 C 
ENDBRANCH  21  22
ENDBRANCH  18  20
ENDBRANCH  17  18
ENDBRANCH   1  16
TORSDOF 6
ENDMDL
MODEL 5
REMARK VINA RESULT:      -7.1      2.651      4.475
REMARK  6 active torsions:
REMARK  status: ('A' for Active; 'I' for Inactive)
REMARK    1  A    between atoms: C2_2  and  C3_3 
REMARK    2  A    between atoms: C4_4  and  C5_5 
REMARK    3  A    between atoms: C5_5  and  C6_7 
REMARK    4  A    between atoms: C7_8  and  C8_9 
REMARK    5  A    between atoms: C11_14  and  N3_15 
REMARK    6  A    between atoms: N3_15  and  C12_16 
ROOT
HETATM    1  C8  UNL     1      23.817   1.418  52.025  1.00  0.00     0.028 A 
HETATM    2  C9  UNL     1      23.227   1.724  50.820  1.00  0.00     0.133 A 
HETATM    3  N1  UNL     1      23.830   2.704  50.125  1.00  0.00    -0.253 NA
HETATM    4  C10 UNL     1      24.945   3.316  50.627  1.00  0.00     0.234 A 
HETATM    5  N2  UNL     1      25.512   2.992  51.830  1.00  0.00    -0.224 NA
HETATM    6  C11 UNL     1      24.936   2.016  52.554  1.00  0.00     0.141 A 
ENDROOT
BRANCH   6   7
HETATM    7  N3  UNL     1      25.563   1.742  53.793  1.00  0.00    -0.340 N 
HETATM    8  H12 UNL     1      25.245   1.998  54.751  1.00  0.00     0.167 HD
BRANCH   7   9
HETATM    9  C12 UNL     1      26.797   1.014  53.662  1.00  0.00     0.035 A 
HETATM   10  C13 UNL     1      28.012   1.629  53.888  1.00  0.00     0.029 A 
HETATM   11  C14 UNL     1      29.206   0.914  53.757  1.00  0.00     0.004 A 
HETATM   12  C15 UNL     1      29.179  -0.429  53.396  1.00  0.00     0.024 A 
HETATM   13  C16 UNL     1      27.972  -1.045  53.170  1.00  0.00     0.036 A 
HETATM   14 CL1  UNL     1      27.888  -2.751  52.711  1.00  0.00    -0.084 Cl
HETATM   15  C17 UNL     1      26.776  -0.338  53.299  1.00  0.00     0.053 A 
ENDBRANCH   7   9
ENDBRANCH   6   7
BRANCH   1  16
HETATM   16  C7  UNL     1      23.172   0.358  52.766  1.00  0.00     0.021 C 
HETATM   17  C6  UNL     1      22.545  -0.001  53.849  1.00  0.00     0.056 C 
BRANCH  17  18
HETATM   18  C5  UNL     1      21.903  -1.068  54.578  1.00  0.00     0.171 C 
HETATM   19  O1  UNL     1      22.618  -1.603  55.480  1.00  0.00    -0.289 OA
BRANCH  18  20
HETATM   20  C4  UNL     1      20.521  -1.537  54.331  1.00  0.00     0.051 C 
HETATM   21  C3  UNL     1      19.478  -1.260  53.526  1.00  0.00    -0.023 C 
BRANCH  21  22
HETATM   22  C2  UNL     1      18.150  -1.940  53.513  1.00  0.00     0.023 C 
HETATM   23  C1  UNL     1      17.146  -1.072  52.788  1.00  0.00     0.009 C 
ENDBRANCH  21  22
ENDBRANCH  18  20
ENDBRANCH  17  18
ENDBRANCH   1  16
TORSDOF 6
ENDMDL
MODEL 6
REMARK VINA RESULT:      -7.0      1.862      2.405
REMARK  6 active torsions:
REMARK  status: ('A' for Active; 'I' for Inactive)
REMARK    1  A    between atoms: C2_2  and  C3_3 
REMARK    2  A    between atoms: C4_4  and  C5_5 
REMARK    3  A    between atoms: C5_5  and  C6_7 
REMARK    4  A    between atoms: C7_8  and  C8_9 
REMARK    5  A    between atoms: C11_14  and  N3_15 
REMARK    6  A    between atoms: N3_15  and  C12_16 
ROOT
HETATM    1  C8  UNL     1      26.141   0.551  53.644  1.00  0.00     0.028 A 
HETATM    2  C9  UNL     1      27.007   0.315  54.688  1.00  0.00     0.133 A 
HETATM    3  N1  UNL     1      28.176   0.975  54.617  1.00  0.00    -0.253 NA
HETATM    4  C10 UNL     1      28.432   1.806  53.562  1.00  0.00     0.234 A 
HETATM    5  N2  UNL     1      27.553   2.023  52.536  1.00  0.00    -0.224 NA
HETATM    6  C11 UNL     1      26.372   1.380  52.573  1.00  0.00     0.141 A 
ENDROOT
BRANCH   6   7
HETATM    7  N3  UNL     1      25.518   1.637  51.474  1.00  0.00    -0.340 N 
HETATM    8  H12 UNL     1      25.293   1.017  50.669  1.00  0.00     0.167 HD
BRANCH   7   9
HETATM    9  C12 UNL     1      24.903   2.938  51.519  1.00  0.00     0.035 A 
HETATM   10  C13 UNL     1      24.101   3.309  52.579  1.00  0.00     0.029 A 
HETATM   11  C14 UNL     1      23.507   4.574  52.612  1.00  0.00     0.004 A 
HETATM   12  C15 UNL     1      23.723   5.474  51.574  1.00  0.00     0.024 A 
HETATM   13  C16 UNL     1      24.522   5.109  50.517  1.00  0.00     0.036 A 
HETATM   14 CL1  UNL     1      24.826   6.219  49.175  1.00  0.00    -0.084 Cl
HETATM   15  C17 UNL     1      25.118   3.848  50.476  1.00  0.00     0.053 A 
ENDBRANCH   7   9
ENDBRANCH   6   7
BRANCH   1  16
HETATM   16  C7  UNL     1      24.882  -0.153  53.728  1.00  0.00     0.021 C 
HETATM   17  C6  UNL     1      23.806  -0.400  54.417  1.00  0.00     0.056 C 
BRANCH  17  18
HETATM   18  C5  UNL     1      22.549  -1.107  54.487  1.00  0.00     0.171 C 
HETATM   19  O1  UNL     1      22.494  -2.007  55.381  1.00  0.00    -0.289 OA
BRANCH  18  20
HETATM   20  C4  UNL     1      21.389  -0.840  53.609  1.00  0.00     0.051 C 
HETATM   21  C3  UNL     1      20.055  -0.683  53.699  1.00  0.00    -0.023 C 
BRANCH  21  22
HETATM   22  C2  UNL     1      19.106  -0.410  52.580  1.00  0.00     0.023 C 
HETATM   23  C1  UNL     1      17.796  -1.117  52.845  1.00  0.00     0.009 C 
ENDBRANCH  21  22
ENDBRANCH  18  20
ENDBRANCH  17  18
ENDBRANCH   1  16
TORSDOF 6
ENDMDL
MODEL 7
REMARK VINA RESULT:      -7.0      1.987      2.692
REMARK  6 active torsions:
REMARK  status: ('A' for Active; 'I' for Inactive)
REMARK    1  A    between atoms: C2_2  and  C3_3 
REMARK    2  A    between atoms: C4_4  and  C5_5 
REMARK    3  A    between atoms: C5_5  and  C6_7 
REMARK    4  A    between atoms: C7_8  and  C8_9 
REMARK    5  A    between atoms: C11_14  and  N3_15 
REMARK    6  A    between atoms: N3_15  and  C12_16 
ROOT
HETATM    1  C8  UNL     1      25.446   0.545  53.473  1.00  0.00     0.028 A 
HETATM    2  C9  UNL     1      26.375  -0.458  53.637  1.00  0.00     0.133 A 
HETATM    3  N1  UNL     1      27.645  -0.104  53.380  1.00  0.00    -0.253 NA
HETATM    4  C10 UNL     1      27.936   1.173  52.985  1.00  0.00     0.234 A 
HETATM    5  N2  UNL     1      26.993   2.151  52.829  1.00  0.00    -0.224 NA
HETATM    6  C11 UNL     1      25.710   1.835  53.078  1.00  0.00     0.141 A 
ENDROOT
BRANCH   6   7
HETATM    7  N3  UNL     1      24.786   2.888  52.882  1.00  0.00    -0.340 N 
HETATM    8  H12 UNL     1      24.408   3.558  53.584  1.00  0.00     0.167 HD
BRANCH   7   9
HETATM    9  C12 UNL     1      24.337   3.011  51.521  1.00  0.00     0.035 A 
HETATM   10  C13 UNL     1      24.880   3.958  50.675  1.00  0.00     0.029 A 
HETATM   11  C14 UNL     1      24.436   4.070  49.355  1.00  0.00     0.004 A 
HETATM   12  C15 UNL     1      23.440   3.224  48.879  1.00  0.00     0.024 A 
HETATM   13  C16 UNL     1      22.896   2.280  49.717  1.00  0.00     0.036 A 
HETATM   14 CL1  UNL     1      21.629   1.182  49.156  1.00  0.00    -0.084 Cl
HETATM   15  C17 UNL     1      23.334   2.161  51.036  1.00  0.00     0.053 A 
ENDBRANCH   7   9
ENDBRANCH   6   7
BRANCH   1  16
HETATM   16  C7  UNL     1      24.082   0.164  53.760  1.00  0.00     0.021 C 
HETATM   17  C6  UNL     1      23.215  -0.797  53.892  1.00  0.00     0.056 C 
BRANCH  17  18
HETATM   18  C5  UNL     1      21.849  -1.164  54.182  1.00  0.00     0.171 C 
HETATM   19  O1  UNL     1      21.699  -1.878  55.221  1.00  0.00    -0.289 OA
BRANCH  18  20
HETATM   20  C4  UNL     1      20.684  -0.763  53.363  1.00  0.00     0.051 C 
HETATM   21  C3  UNL     1      20.359   0.148  52.427  1.00  0.00    -0.023 C 
BRANCH  21  22
HETATM   22  C2  UNL     1      19.036   0.311  51.755  1.00  0.00     0.023 C 
HETATM   23  C1  UNL     1      18.057  -0.696  52.315  1.00  0.00     0.009 C 
ENDBRANCH  21  22
ENDBRANCH  18  20
ENDBRANCH  17  18
ENDBRANCH   1  16
TORSDOF 6
ENDMDL
MODEL 8
REMARK VINA RESULT:      -6.8      3.412      5.963
REMARK  6 active torsions:
REMARK  status: ('A' for Active; 'I' for Inactive)
REMARK    1  A    between atoms: C2_2  and  C3_3 
REMARK    2  A    between atoms: C4_4  and  C5_5 
REMARK    3  A    between atoms: C5_5  and  C6_7 
REMARK    4  A    between atoms: C7_8  and  C8_9 
REMARK    5  A    between atoms: C11_14  and  N3_15 
REMARK    6  A    between atoms: N3_15  and  C12_16 
ROOT
HETATM    1  C8  UNL     1      26.079   1.357  52.089  1.00  0.00     0.028 A 
HETATM    2  C9  UNL     1      27.186   0.553  51.939  1.00  0.00     0.133 A 
HETATM    3  N1  UNL     1      27.163  -0.584  52.655  1.00  0.00    -0.253 NA
HETATM    4  C10 UNL     1      26.093  -0.869  53.458  1.00  0.00     0.234 A 
HETATM    5  N2  UNL     1      25.004  -0.051  53.589  1.00  0.00    -0.224 NA
HETATM    6  C11 UNL     1      24.991   1.097  52.887  1.00  0.00     0.141 A 
ENDROOT
BRANCH   6   7
HETATM    7  N3  UNL     1      23.843   1.902  53.080  1.00  0.00    -0.340 N 
HETATM    8  H12 UNL     1      23.754   2.782  53.630  1.00  0.00     0.167 HD
BRANCH   7   9
HETATM    9  C12 UNL     1      22.671   1.400  52.414  1.00  0.00     0.035 A 
HETATM   10  C13 UNL     1      21.606   0.895  53.132  1.00  0.00     0.029 A 
HETATM   11  C14 UNL     1      20.473   0.409  52.475  1.00  0.00     0.004 A 
HETATM   12  C15 UNL     1      20.408   0.429  51.086  1.00  0.00     0.024 A 
HETATM   13  C16 UNL     1      21.466   0.931  50.366  1.00  0.00     0.036 A 
HETATM   14 CL1  UNL     1      21.429   0.979  48.599  1.00  0.00    -0.084 Cl
HETATM   15  C17 UNL     1      22.602   1.419  51.015  1.00  0.00     0.053 A 
ENDBRANCH   7   9
ENDBRANCH   6   7
BRANCH   1  16
HETATM   16  C7  UNL     1      26.101   2.575  51.310  1.00  0.00     0.021 C 
HETATM   17  C6  UNL     1      26.034   3.126  50.133  1.00  0.00     0.056 C 
BRANCH  17  18
HETATM   18  C5  UNL     1      26.057   4.350  49.367  1.00  0.00     0.171 C 
HETATM   19  O1  UNL     1      24.921   4.888  49.189  1.00  0.00    -0.289 OA
BRANCH  18  20
HETATM   20  C4  UNL     1      27.283   4.966  48.813  1.00  0.00     0.051 C 
HETATM   21  C3  UNL     1      27.688   6.136  48.285  1.00  0.00    -0.023 C 
BRANCH  21  22
HETATM   22  C2  UNL     1      29.056   6.472  47.792  1.00  0.00     0.023 C 
HETATM   23  C1  UNL     1      29.976   5.292  48.010  1.00  0.00     0.009 C 
ENDBRANCH  21  22
ENDBRANCH  18  20
ENDBRANCH  17  18
ENDBRANCH   1  16
TORSDOF 6
ENDMDL
MODEL 9
REMARK VINA RESULT:      -6.7      3.601      6.893
REMARK  6 active torsions:
REMARK  status: ('A' for Active; 'I' for Inactive)
REMARK    1  A    between atoms: C2_2  and  C3_3 
REMARK    2  A    between atoms: C4_4  and  C5_5 
REMARK    3  A    between atoms: C5_5  and  C6_7 
REMARK    4  A    between atoms: C7_8  and  C8_9 
REMARK    5  A    between atoms: C11_14  and  N3_15 
REMARK    6  A    between atoms: N3_15  and  C12_16 
ROOT
HETATM    1  C8  UNL     1      22.583   3.070  51.563  1.00  0.00     0.028 A 
HETATM    2  C9  UNL     1      22.126   4.363  51.680  1.00  0.00     0.133 A 
HETATM    3  N1  UNL     1      20.796   4.484  51.835  1.00  0.00    -0.253 NA
HETATM    4  C10 UNL     1      20.005   3.369  51.866  1.00  0.00     0.234 A 
HETATM    5  N2  UNL     1      20.485   2.094  51.747  1.00  0.00    -0.224 NA
HETATM    6  C11 UNL     1      21.812   1.933  51.591  1.00  0.00     0.141 A 
ENDROOT
BRANCH   6   7
HETATM    7  N3  UNL     1      22.239   0.591  51.459  1.00  0.00    -0.340 N 
HETATM    8  H12 UNL     1      22.511   0.079  50.594  1.00  0.00     0.167 HD
BRANCH   7   9
HETATM    9  C12 UNL     1      22.287  -0.121  52.709  1.00  0.00     0.035 A 
HETATM   10  C13 UNL     1      21.159  -0.725  53.227  1.00  0.00     0.029 A 
HETATM   11  C14 UNL     1      21.215  -1.412  54.442  1.00  0.00     0.004 A 
HETATM   12  C15 UNL     1      22.414  -1.495  55.143  1.00  0.00     0.024 A 
HETATM   13  C16 UNL     1      23.540  -0.895  54.631  1.00  0.00     0.036 A 
HETATM   14 CL1  UNL     1      25.086  -0.975  55.485  1.00  0.00    -0.084 Cl
HETATM   15  C17 UNL     1      23.492  -0.207  53.418  1.00  0.00     0.053 A 
ENDBRANCH   7   9
ENDBRANCH   6   7
BRANCH   1  16
HETATM   16  C7  UNL     1      24.014   2.942  51.407  1.00  0.00     0.021 C 
HETATM   17  C6  UNL     1      25.133   2.474  51.879  1.00  0.00     0.056 C 
BRANCH  17  18
HETATM   18  C5  UNL     1      26.561   2.353  51.711  1.00  0.00     0.171 C 
HETATM   19  O1  UNL     1      27.037   2.992  50.723  1.00  0.00    -0.289 OA
BRANCH  18  20
HETATM   20  C4  UNL     1      27.444   1.559  52.594  1.00  0.00     0.051 C 
HETATM   21  C3  UNL     1      27.488   0.341  53.165  1.00  0.00    -0.023 C 
BRANCH  21  22
HETATM   22  C2  UNL     1      28.563  -0.197  54.049  1.00  0.00     0.023 C 
HETATM   23  C1  UNL     1      29.269  -1.337  53.350  1.00  0.00     0.009 C 
ENDBRANCH  21  22
ENDBRANCH  18  20
ENDBRANCH  17  18
ENDBRANCH   1  16
TORSDOF 6
ENDMDL
