MODEL 1
REMARK VINA RESULT:      -7.5      0.000      0.000
REMARK  5 active torsions:
REMARK  status: ('A' for Active; 'I' for Inactive)
REMARK    1  A    between atoms: C3_3  and  N1_5 
REMARK    2  A    between atoms: N1_5  and  C4_6 
REMARK    3  A    between atoms: C9_13  and  C10_14 
REMARK    4  A    between atoms: C11_15  and  C12_16 
REMARK    5  A    between atoms: C13_17  and  C14_18 
ROOT
HETATM    1  C4  UNL     1      26.021   0.977  54.119  1.00  0.00     0.035 A 
HETATM    2  C5  UNL     1      25.580  -0.324  54.236  1.00  0.00     0.032 A 
HETATM    3  C6  UNL     1      24.325  -0.644  53.763  1.00  0.00     0.035 A 
HETATM    4  C7  UNL     1      23.540   0.317  53.189  1.00  0.00     0.070 A 
HETATM    5  N2  UNL     1      22.310  -0.053  52.738  1.00  0.00    -0.241 NA
HETATM    6  C8  UNL     1      21.503   0.885  52.160  1.00  0.00     0.234 A 
HETATM    7  N3  UNL     1      21.943   2.143  52.053  1.00  0.00    -0.241 NA
HETATM    8  C9  UNL     1      23.127   2.604  52.462  1.00  0.00     0.070 A 
HETATM    9  C15 UNL     1      23.914   1.635  53.038  1.00  0.00     0.024 A 
HETATM   10  C16 UNL     1      25.174   1.891  53.530  1.00  0.00     0.045 A 
ENDROOT
BRANCH   1  11
HETATM   11  N1  UNL     1      27.311   1.335  54.599  1.00  0.00    -0.337 N 
HETATM   12  H4  UNL     1      27.790   2.095  55.127  1.00  0.00     0.168 HD
BRANCH  11  13
HETATM   13  C3  UNL     1      28.309   0.395  54.294  1.00  0.00     0.141 A 
HETATM   14  C2  UNL     1      29.465   0.310  53.417  1.00  0.00     0.056 A 
HETATM   15  C1  UNL     1      29.845  -0.931  53.760  1.00  0.00     0.209 A 
HETATM   16  O1  UNL     1      28.803  -0.764  54.503  1.00  0.00    -0.332 OA
ENDBRANCH  11  13
ENDBRANCH   1  11
BRANCH   8  17
HETATM   17  C10 UNL     1      23.599   3.970  52.342  1.00  0.00     0.032 C 
HETATM   18  C11 UNL     1      23.998   4.558  51.239  1.00  0.00     0.002 C 
BRANCH  18  19
HETATM   19  C12 UNL     1      24.049   3.976  49.928  1.00  0.00    -0.003 C 
HETATM   20  C13 UNL     1      25.174   3.594  49.337  1.00  0.00    -0.016 C 
BRANCH  20  21
HETATM   21  C14 UNL     1      26.592   3.635  49.780  1.00  0.00     0.112 C 
HETATM   22 BR1  UNL     1      27.569   4.953  48.722  1.00  0.00    -0.092 Br
ENDBRANCH  20  21
ENDBRANCH  18  19
ENDBRANCH   8  17
TORSDOF 5
ENDMDL
MODEL 2
REMARK VINA RESULT:      -7.3      3.200      4.761
REMARK  5 active torsions:
REMARK  status: ('A' for Active; 'I' for Inactive)
REMARK    1  A    between atoms: C3_3  and  N1_5 
REMARK    2  A    between atoms: N1_5  and  C4_6 
REMARK    3  A    between atoms: C9_13  and  C10_14 
REMARK    4  A    between atoms: C11_15  and  C12_16 
REMARK    5  A    between atoms: C13_17  and  C14_18 
ROOT
HETATM    1  C4  UNL     1      26.323   1.194  53.714  1.00  0.00     0.035 A 
HETATM    2  C5  UNL     1      26.672   2.231  52.875  1.00  0.00     0.032 A 
HETATM    3  C6  UNL     1      25.803   2.590  51.868  1.00  0.00     0.035 A 
HETATM    4  C7  UNL     1      24.618   1.926  51.710  1.00  0.00     0.070 A 
HETATM    5  N2  UNL     1      23.796   2.322  50.699  1.00  0.00    -0.241 NA
HETATM    6  C8  UNL     1      22.606   1.676  50.518  1.00  0.00     0.234 A 
HETATM    7  N3  UNL     1      22.281   0.673  51.339  1.00  0.00    -0.241 NA
HETATM    8  C9  UNL     1      23.014   0.211  52.354  1.00  0.00     0.070 A 
HETATM    9  C15 UNL     1      24.204   0.882  52.509  1.00  0.00     0.024 A 
HETATM   10  C16 UNL     1      25.114   0.571  53.494  1.00  0.00     0.045 A 
ENDROOT
BRANCH   1  11
HETATM   11  N1  UNL     1      27.202   0.802  54.761  1.00  0.00    -0.337 N 
HETATM   12  H4  UNL     1      27.325   0.910  55.791  1.00  0.00     0.168 HD
BRANCH  11  13
HETATM   13  C3  UNL     1      28.275   0.005  54.331  1.00  0.00     0.141 A 
HETATM   14  C2  UNL     1      29.639   0.206  53.871  1.00  0.00     0.056 A 
HETATM   15  C1  UNL     1      29.941  -1.087  53.672  1.00  0.00     0.209 A 
HETATM   16  O1  UNL     1      28.723  -1.167  54.090  1.00  0.00    -0.332 OA
ENDBRANCH  11  13
ENDBRANCH   1  11
BRANCH   8  17
HETATM   17  C10 UNL     1      22.654  -0.878  53.241  1.00  0.00     0.032 C 
HETATM   18  C11 UNL     1      21.686  -0.869  54.127  1.00  0.00     0.002 C 
BRANCH  18  19
HETATM   19  C12 UNL     1      20.786   0.215  54.402  1.00  0.00    -0.003 C 
HETATM   20  C13 UNL     1      19.648   0.409  53.747  1.00  0.00    -0.016 C 
BRANCH  20  21
HETATM   21  C14 UNL     1      18.999  -0.340  52.639  1.00  0.00     0.112 C 
HETATM   22 BR1  UNL     1      17.924  -1.794  53.376  1.00  0.00    -0.092 Br
ENDBRANCH  20  21
ENDBRANCH  18  19
ENDBRANCH   8  17
TORSDOF 5
ENDMDL
MODEL 3
REMARK VINA RESULT:      -7.3      2.137      2.604
REMARK  5 active torsions:
REMARK  status: ('A' for Active; 'I' for Inactive)
REMARK    1  A    between atoms: C3_3  and  N1_5 
REMARK    2  A    between atoms: N1_5  and  C4_6 
REMARK    3  A    between atoms: C9_13  and  C10_14 
REMARK    4  A    between atoms: C11_15  and  C12_16 
REMARK    5  A    between atoms: C13_17  and  C14_18 
ROOT
HETATM    1  C4  UNL     1      25.941   0.416  54.239  1.00  0.00     0.035 A 
HETATM    2  C5  UNL     1      25.246  -0.618  54.828  1.00  0.00     0.032 A 
HETATM    3  C6  UNL     1      23.991  -0.930  54.350  1.00  0.00     0.035 A 
HETATM    4  C7  UNL     1      23.454  -0.223  53.311  1.00  0.00     0.070 A 
HETATM    5  N2  UNL     1      22.212  -0.573  52.877  1.00  0.00    -0.241 NA
HETATM    6  C8  UNL     1      21.650   0.116  51.840  1.00  0.00     0.234 A 
HETATM    7  N3  UNL     1      22.336   1.116  51.279  1.00  0.00    -0.241 NA
HETATM    8  C9  UNL     1      23.554   1.535  51.628  1.00  0.00     0.070 A 
HETATM    9  C15 UNL     1      24.090   0.821  52.674  1.00  0.00     0.024 A 
HETATM   10  C16 UNL     1      25.337   1.083  53.197  1.00  0.00     0.045 A 
ENDROOT
BRANCH   1  11
HETATM   11  N1  UNL     1      27.238   0.759  54.713  1.00  0.00    -0.337 N 
HETATM   12  H4  UNL     1      27.711   1.454  55.329  1.00  0.00     0.168 HD
BRANCH  11  13
HETATM   13  C3  UNL     1      28.257  -0.075  54.227  1.00  0.00     0.141 A 
HETATM   14  C2  UNL     1      29.647   0.058  53.824  1.00  0.00     0.056 A 
HETATM   15  C1  UNL     1      29.851  -1.228  53.497  1.00  0.00     0.209 A 
HETATM   16  O1  UNL     1      28.617  -1.249  53.874  1.00  0.00    -0.332 OA
ENDBRANCH  11  13
ENDBRANCH   1  11
BRANCH   8  17
HETATM   17  C10 UNL     1      24.293   2.621  51.014  1.00  0.00     0.032 C 
HETATM   18  C11 UNL     1      24.243   3.885  51.361  1.00  0.00     0.002 C 
BRANCH  18  19
HETATM   19  C12 UNL     1      23.452   4.455  52.415  1.00  0.00    -0.003 C 
HETATM   20  C13 UNL     1      22.189   4.836  52.262  1.00  0.00    -0.016 C 
BRANCH  20  21
HETATM   21  C14 UNL     1      21.278   4.806  51.089  1.00  0.00     0.112 C 
HETATM   22 BR1  UNL     1      19.724   3.697  51.496  1.00  0.00    -0.092 Br
ENDBRANCH  20  21
ENDBRANCH  18  19
ENDBRANCH   8  17
TORSDOF 5
ENDMDL
MODEL 4
REMARK VINA RESULT:      -7.3      2.438      3.091
REMARK  5 active torsions:
REMARK  status: ('A' for Active; 'I' for Inactive)
REMARK    1  A    between atoms: C3_3  and  N1_5 
REMARK    2  A    between atoms: N1_5  and  C4_6 
REMARK    3  A    between atoms: C9_13  and  C10_14 
REMARK    4  A    between atoms: C11_15  and  C12_16 
REMARK    5  A    between atoms: C13_17  and  C14_18 
ROOT
HETATM    1  C4  UNL     1      25.602   0.150  53.512  1.00  0.00     0.035 A 
HETATM    2  C5  UNL     1      25.686  -0.468  54.742  1.00  0.00     0.032 A 
HETATM    3  C6  UNL     1      24.547  -1.021  55.286  1.00  0.00     0.035 A 
HETATM    4  C7  UNL     1      23.359  -0.955  54.612  1.00  0.00     0.070 A 
HETATM    5  N2  UNL     1      22.265  -1.518  55.194  1.00  0.00    -0.241 NA
HETATM    6  C8  UNL     1      21.065  -1.468  54.543  1.00  0.00     0.234 A 
HETATM    7  N3  UNL     1      20.998  -0.866  53.352  1.00  0.00    -0.241 NA
HETATM    8  C9  UNL     1      22.008  -0.287  52.699  1.00  0.00     0.070 A 
HETATM    9  C15 UNL     1      23.200  -0.356  53.381  1.00  0.00     0.024 A 
HETATM   10  C16 UNL     1      24.372   0.178  52.892  1.00  0.00     0.045 A 
ENDROOT
BRANCH   1  11
HETATM   11  N1  UNL     1      26.761   0.730  52.928  1.00  0.00    -0.337 N 
HETATM   12  H4  UNL     1      27.044   1.535  52.330  1.00  0.00     0.168 HD
BRANCH  11  13
HETATM   13  C3  UNL     1      27.948   0.034  53.215  1.00  0.00     0.141 A 
HETATM   14  C2  UNL     1      29.182   0.279  53.943  1.00  0.00     0.056 A 
HETATM   15  C1  UNL     1      29.757  -0.910  53.703  1.00  0.00     0.209 A 
HETATM   16  O1  UNL     1      28.633  -1.036  53.081  1.00  0.00    -0.332 OA
ENDBRANCH  11  13
ENDBRANCH   1  11
BRANCH   8  17
HETATM   17  C10 UNL     1      21.928   0.364  51.406  1.00  0.00     0.032 C 
HETATM   18  C11 UNL     1      21.324   1.500  51.146  1.00  0.00     0.002 C 
BRANCH  18  19
HETATM   19  C12 UNL     1      20.621   2.331  52.083  1.00  0.00    -0.003 C 
HETATM   20  C13 UNL     1      20.967   3.582  52.359  1.00  0.00    -0.016 C 
BRANCH  20  21
HETATM   21  C14 UNL     1      22.068   4.443  51.854  1.00  0.00     0.112 C 
HETATM   22 BR1  UNL     1      23.744   3.934  52.716  1.00  0.00    -0.092 Br
ENDBRANCH  20  21
ENDBRANCH  18  19
ENDBRANCH   8  17
TORSDOF 5
ENDMDL
MODEL 5
REMARK VINA RESULT:      -7.2      2.951      4.405
REMARK  5 active torsions:
REMARK  status: ('A' for Active; 'I' for Inactive)
REMARK    1  A    between atoms: C3_3  and  N1_5 
REMARK    2  A    between atoms: N1_5  and  C4_6 
REMARK    3  A    between atoms: C9_13  and  C10_14 
REMARK    4  A    between atoms: C11_15  and  C12_16 
REMARK    5  A    between atoms: C13_17  and  C14_18 
ROOT
HETATM    1  C4  UNL     1      25.297   0.626  53.086  1.00  0.00     0.035 A 
HETATM    2  C5  UNL     1      25.865   1.745  53.656  1.00  0.00     0.032 A 
HETATM    3  C6  UNL     1      25.228   2.959  53.513  1.00  0.00     0.035 A 
HETATM    4  C7  UNL     1      24.054   3.043  52.817  1.00  0.00     0.070 A 
HETATM    5  N2  UNL     1      23.466   4.266  52.707  1.00  0.00    -0.241 NA
HETATM    6  C8  UNL     1      22.292   4.380  52.017  1.00  0.00     0.234 A 
HETATM    7  N3  UNL     1      21.753   3.287  51.469  1.00  0.00    -0.241 NA
HETATM    8  C9  UNL     1      22.248   2.049  51.520  1.00  0.00     0.070 A 
HETATM    9  C15 UNL     1      23.428   1.969  52.221  1.00  0.00     0.024 A 
HETATM   10  C16 UNL     1      24.113   0.788  52.399  1.00  0.00     0.045 A 
ENDROOT
BRANCH   1  11
HETATM   11  N1  UNL     1      25.934  -0.639  53.217  1.00  0.00    -0.337 N 
HETATM   12  H4  UNL     1      25.746  -1.653  53.069  1.00  0.00     0.168 HD
BRANCH  11  13
HETATM   13  C3  UNL     1      27.250  -0.562  53.700  1.00  0.00     0.141 A 
HETATM   14  C2  UNL     1      28.594  -0.563  53.146  1.00  0.00     0.056 A 
HETATM   15  C1  UNL     1      29.255  -0.455  54.310  1.00  0.00     0.209 A 
HETATM   16  O1  UNL     1      28.028  -0.463  54.709  1.00  0.00    -0.332 OA
ENDBRANCH  11  13
ENDBRANCH   1  11
BRANCH   8  17
HETATM   17  C10 UNL     1      21.657   0.867  50.924  1.00  0.00     0.032 C 
HETATM   18  C11 UNL     1      20.645   0.181  51.401  1.00  0.00     0.002 C 
BRANCH  18  19
HETATM   19  C12 UNL     1      19.916   0.456  52.606  1.00  0.00    -0.003 C 
HETATM   20  C13 UNL     1      19.985  -0.298  53.696  1.00  0.00    -0.016 C 
BRANCH  20  21
HETATM   21  C14 UNL     1      20.750  -1.536  54.000  1.00  0.00     0.112 C 
HETATM   22 BR1  UNL     1      22.369  -1.078  54.989  1.00  0.00    -0.092 Br
ENDBRANCH  20  21
ENDBRANCH  18  19
ENDBRANCH   8  17
TORSDOF 5
ENDMDL
MODEL 6
REMARK VINA RESULT:      -7.1      2.257      2.894
REMARK  5 active torsions:
REMARK  status: ('A' for Active; 'I' for Inactive)
REMARK    1  A    between atoms: C3_3  and  N1_5 
REMARK    2  A    between atoms: N1_5  and  C4_6 
REMARK    3  A    between atoms: C9_13  and  C10_14 
REMARK    4  A    between atoms: C11_15  and  C12_16 
REMARK    5  A    between atoms: C13_17  and  C14_18 
ROOT
HETATM    1  C4  UNL     1      24.313  -0.725  54.527  1.00  0.00     0.035 A 
HETATM    2  C5  UNL     1      23.309  -1.313  55.266  1.00  0.00     0.032 A 
HETATM    3  C6  UNL     1      21.999  -1.077  54.909  1.00  0.00     0.035 A 
HETATM    4  C7  UNL     1      21.709  -0.275  53.841  1.00  0.00     0.070 A 
HETATM    5  N2  UNL     1      20.398  -0.076  53.532  1.00  0.00    -0.241 NA
HETATM    6  C8  UNL     1      20.078   0.721  52.469  1.00  0.00     0.234 A 
HETATM    7  N3  UNL     1      21.062   1.284  51.762  1.00  0.00    -0.241 NA
HETATM    8  C9  UNL     1      22.372   1.153  51.983  1.00  0.00     0.070 A 
HETATM    9  C15 UNL     1      22.658   0.345  53.058  1.00  0.00     0.024 A 
HETATM   10  C16 UNL     1      23.945   0.072  53.464  1.00  0.00     0.045 A 
ENDROOT
BRANCH   1  11
HETATM   11  N1  UNL     1      25.674  -0.950  54.873  1.00  0.00    -0.337 N 
HETATM   12  H4  UNL     1      26.276  -1.650  55.357  1.00  0.00     0.168 HD
BRANCH  11  13
HETATM   13  C3  UNL     1      26.542   0.071  54.450  1.00  0.00     0.141 A 
HETATM   14  C2  UNL     1      27.594   0.239  53.461  1.00  0.00     0.056 A 
HETATM   15  C1  UNL     1      27.883   1.520  53.740  1.00  0.00     0.209 A 
HETATM   16  O1  UNL     1      26.940   1.277  54.586  1.00  0.00    -0.332 OA
ENDBRANCH  11  13
ENDBRANCH   1  11
BRANCH   8  17
HETATM   17  C10 UNL     1      23.434   1.767  51.211  1.00  0.00     0.032 C 
HETATM   18  C11 UNL     1      23.989   2.932  51.446  1.00  0.00     0.002 C 
BRANCH  18  19
HETATM   19  C12 UNL     1      23.663   3.837  52.512  1.00  0.00    -0.003 C 
HETATM   20  C13 UNL     1      22.672   4.719  52.450  1.00  0.00    -0.016 C 
BRANCH  20  21
HETATM   21  C14 UNL     1      21.684   5.029  51.384  1.00  0.00     0.112 C 
HETATM   22 BR1  UNL     1      21.978   6.846  50.731  1.00  0.00    -0.092 Br
ENDBRANCH  20  21
ENDBRANCH  18  19
ENDBRANCH   8  17
TORSDOF 5
ENDMDL
MODEL 7
REMARK VINA RESULT:      -7.1      3.593      6.167
REMARK  5 active torsions:
REMARK  status: ('A' for Active; 'I' for Inactive)
REMARK    1  A    between atoms: C3_3  and  N1_5 
REMARK    2  A    between atoms: N1_5  and  C4_6 
REMARK    3  A    between atoms: C9_13  and  C10_14 
REMARK    4  A    between atoms: C11_15  and  C12_16 
REMARK    5  A    between atoms: C13_17  and  C14_18 
ROOT
HETATM    1  C4  UNL     1      20.330   0.627  51.799  1.00  0.00     0.035 A 
HETATM    2  C5  UNL     1      19.469  -0.178  52.513  1.00  0.00     0.032 A 
HETATM    3  C6  UNL     1      19.964  -0.900  53.578  1.00  0.00     0.035 A 
HETATM    4  C7  UNL     1      21.286  -0.811  53.915  1.00  0.00     0.070 A 
HETATM    5  N2  UNL     1      21.723  -1.544  54.976  1.00  0.00    -0.241 NA
HETATM    6  C8  UNL     1      23.039  -1.474  55.335  1.00  0.00     0.234 A 
HETATM    7  N3  UNL     1      23.863  -0.689  54.635  1.00  0.00    -0.241 NA
HETATM    8  C9  UNL     1      23.535   0.065  53.584  1.00  0.00     0.070 A 
HETATM    9  C15 UNL     1      22.204  -0.027  53.249  1.00  0.00     0.024 A 
HETATM   10  C16 UNL     1      21.649   0.666  52.197  1.00  0.00     0.045 A 
ENDROOT
BRANCH   1  11
HETATM   11  N1  UNL     1      19.846   1.382  50.695  1.00  0.00    -0.337 N 
HETATM   12  H4  UNL     1      18.963   1.799  50.331  1.00  0.00     0.168 HD
BRANCH  11  13
HETATM   13  C3  UNL     1      20.836   1.702  49.751  1.00  0.00     0.141 A 
HETATM   14  C2  UNL     1      21.512   1.044  48.645  1.00  0.00     0.056 A 
HETATM   15  C1  UNL     1      22.303   2.071  48.298  1.00  0.00     0.209 A 
HETATM   16  O1  UNL     1      21.652   2.571  49.293  1.00  0.00    -0.332 OA
ENDBRANCH  11  13
ENDBRANCH   1  11
BRANCH   8  17
HETATM   17  C10 UNL     1      24.434   0.916  52.829  1.00  0.00     0.032 C 
HETATM   18  C11 UNL     1      25.565   0.549  52.275  1.00  0.00     0.002 C 
BRANCH  18  19
HETATM   19  C12 UNL     1      26.146  -0.764  52.301  1.00  0.00    -0.003 C 
HETATM   20  C13 UNL     1      27.261  -1.061  52.957  1.00  0.00    -0.016 C 
BRANCH  20  21
HETATM   21  C14 UNL     1      28.175  -0.235  53.787  1.00  0.00     0.112 C 
HETATM   22 BR1  UNL     1      29.986  -0.957  53.681  1.00  0.00    -0.092 Br
ENDBRANCH  20  21
ENDBRANCH  18  19
ENDBRANCH   8  17
TORSDOF 5
ENDMDL
MODEL 8
REMARK VINA RESULT:      -7.0      3.764      5.950
REMARK  5 active torsions:
REMARK  status: ('A' for Active; 'I' for Inactive)
REMARK    1  A    between atoms: C3_3  and  N1_5 
REMARK    2  A    between atoms: N1_5  and  C4_6 
REMARK    3  A    between atoms: C9_13  and  C10_14 
REMARK    4  A    between atoms: C11_15  and  C12_16 
REMARK    5  A    between atoms: C13_17  and  C14_18 
ROOT
HETATM    1  C4  UNL     1      20.214   0.436  51.397  1.00  0.00     0.035 A 
HETATM    2  C5  UNL     1      19.307  -0.087  52.294  1.00  0.00     0.032 A 
HETATM    3  C6  UNL     1      19.777  -0.633  53.469  1.00  0.00     0.035 A 
HETATM    4  C7  UNL     1      21.118  -0.651  53.733  1.00  0.00     0.070 A 
HETATM    5  N2  UNL     1      21.528  -1.202  54.909  1.00  0.00    -0.241 NA
HETATM    6  C8  UNL     1      22.862  -1.234  55.200  1.00  0.00     0.234 A 
HETATM    7  N3  UNL     1      23.730  -0.723  54.321  1.00  0.00    -0.241 NA
HETATM    8  C9  UNL     1      23.431  -0.163  53.147  1.00  0.00     0.070 A 
HETATM    9  C15 UNL     1      22.081  -0.147  52.886  1.00  0.00     0.024 A 
HETATM   10  C16 UNL     1      21.550   0.383  51.731  1.00  0.00     0.045 A 
ENDROOT
BRANCH   1  11
HETATM   11  N1  UNL     1      19.757   1.005  50.176  1.00  0.00    -0.337 N 
HETATM   12  H4  UNL     1      18.876   1.311  49.711  1.00  0.00     0.168 HD
BRANCH  11  13
HETATM   13  C3  UNL     1      20.785   1.265  49.254  1.00  0.00     0.141 A 
HETATM   14  C2  UNL     1      21.546   2.416  48.796  1.00  0.00     0.056 A 
HETATM   15  C1  UNL     1      22.313   1.766  47.907  1.00  0.00     0.209 A 
HETATM   16  O1  UNL     1      21.589   0.806  48.374  1.00  0.00    -0.332 OA
ENDBRANCH  11  13
ENDBRANCH   1  11
BRANCH   8  17
HETATM   17  C10 UNL     1      24.378   0.390  52.198  1.00  0.00     0.032 C 
HETATM   18  C11 UNL     1      24.897   1.594  52.234  1.00  0.00     0.002 C 
BRANCH  18  19
HETATM   19  C12 UNL     1      24.638   2.610  53.215  1.00  0.00    -0.003 C 
HETATM   20  C13 UNL     1      23.889   3.681  52.984  1.00  0.00    -0.016 C 
BRANCH  20  21
HETATM   21  C14 UNL     1      23.153   4.136  51.776  1.00  0.00     0.112 C 
HETATM   22 BR1  UNL     1      21.232   4.072  52.117  1.00  0.00    -0.092 Br
ENDBRANCH  20  21
ENDBRANCH  18  19
ENDBRANCH   8  17
TORSDOF 5
ENDMDL
MODEL 9
REMARK VINA RESULT:      -6.9      3.346      4.948
REMARK  5 active torsions:
REMARK  status: ('A' for Active; 'I' for Inactive)
REMARK    1  A    between atoms: C3_3  and  N1_5 
REMARK    2  A    between atoms: N1_5  and  C4_6 
REMARK    3  A    between atoms: C9_13  and  C10_14 
REMARK    4  A    between atoms: C11_15  and  C12_16 
REMARK    5  A    between atoms: C13_17  and  C14_18 
ROOT
HETATM    1  C4  UNL     1      24.949   0.017  53.558  1.00  0.00     0.035 A 
HETATM    2  C5  UNL     1      26.184  -0.342  53.061  1.00  0.00     0.032 A 
HETATM    3  C6  UNL     1      26.782   0.470  52.122  1.00  0.00     0.035 A 
HETATM    4  C7  UNL     1      26.158   1.610  51.698  1.00  0.00     0.070 A 
HETATM    5  N2  UNL     1      26.794   2.376  50.770  1.00  0.00    -0.241 NA
HETATM    6  C8  UNL     1      26.193   3.521  50.328  1.00  0.00     0.234 A 
HETATM    7  N3  UNL     1      24.996   3.857  50.819  1.00  0.00    -0.241 NA
HETATM    8  C9  UNL     1      24.293   3.176  51.727  1.00  0.00     0.070 A 
HETATM    9  C15 UNL     1      24.926   2.031  52.150  1.00  0.00     0.024 A 
HETATM   10  C16 UNL     1      24.380   1.179  53.084  1.00  0.00     0.045 A 
ENDROOT
BRANCH   1  11
HETATM   11  N1  UNL     1      24.308  -0.804  54.527  1.00  0.00    -0.337 N 
HETATM   12  H4  UNL     1      24.520  -1.336  55.398  1.00  0.00     0.168 HD
BRANCH  11  13
HETATM   13  C3  UNL     1      22.938  -0.997  54.287  1.00  0.00     0.141 A 
HETATM   14  C2  UNL     1      21.679  -0.606  54.900  1.00  0.00     0.056 A 
HETATM   15  C1  UNL     1      20.868  -1.221  54.024  1.00  0.00     0.209 A 
HETATM   16  O1  UNL     1      22.032  -1.519  53.553  1.00  0.00    -0.332 OA
ENDBRANCH  11  13
ENDBRANCH   1  11
BRANCH   8  17
HETATM   17  C10 UNL     1      22.995   3.547  52.255  1.00  0.00     0.032 C 
HETATM   18  C11 UNL     1      21.849   3.472  51.620  1.00  0.00     0.002 C 
BRANCH  18  19
HETATM   19  C12 UNL     1      21.643   3.009  50.277  1.00  0.00    -0.003 C 
HETATM   20  C13 UNL     1      21.290   1.766  49.973  1.00  0.00    -0.016 C 
BRANCH  20  21
HETATM   21  C14 UNL     1      21.021   0.575  50.821  1.00  0.00     0.112 C 
HETATM   22 BR1  UNL     1      19.108   0.457  51.193  1.00  0.00    -0.092 Br
ENDBRANCH  20  21
ENDBRANCH  18  19
ENDBRANCH   8  17
TORSDOF 5
ENDMDL
