MODEL 1
REMARK VINA RESULT:      -6.8      0.000      0.000
REMARK  10 active torsions:
REMARK  status: ('A' for Active; 'I' for Inactive)
REMARK    1  A    between atoms: C2_2  and  C3_3 
REMARK       I    between atoms: C3_3  and  N1_5 
REMARK    2  A    between atoms: N1_5  and  C4_6 
REMARK    3  A    between atoms: C6_8  and  N2_9 
REMARK    4  A    between atoms: N2_9  and  C7_10 
REMARK    5  A    between atoms: C10_15  and  O2_16 
REMARK    6  A    between atoms: C13_19  and  O3_20 
REMARK    7  A    between atoms: O3_20  and  C14_21 
REMARK    8  A    between atoms: C14_21  and  C15_22 
REMARK    9  A    between atoms: C15_22  and  N5_23 
REMARK   10  A    between atoms: N5_23  and  P1_25 
ROOT
HETATM    1  C4  UNL     1      25.004   2.749  51.745  1.00  0.00     0.071 A 
HETATM    2  C5  UNL     1      26.007   2.428  52.646  1.00  0.00     0.065 A 
HETATM    3  C6  UNL     1      25.885   1.328  53.463  1.00  0.00     0.085 A 
HETATM    4  C10 UNL     1      24.726   0.576  53.336  1.00  0.00     0.098 A 
HETATM    5  C12 UNL     1      23.760   0.931  52.431  1.00  0.00     0.078 A 
HETATM    6  C13 UNL     1      23.835   2.011  51.598  1.00  0.00     0.098 A 
ENDROOT
BRANCH   6   7
HETATM    7  O3  UNL     1      23.076   2.590  50.645  1.00  0.00    -0.348 OA
BRANCH   7   8
HETATM    8  C14 UNL     1      21.749   2.924  50.675  1.00  0.00     0.190 C 
BRANCH   8   9
HETATM    9  C15 UNL     1      21.422   3.785  51.860  1.00  0.00     0.120 C 
BRANCH   9  10
HETATM   10  N5  UNL     1      20.165   3.287  52.402  1.00  0.00    -0.297 NA
HETATM   11  C16 UNL     1      20.252   1.922  52.838  1.00  0.00     0.115 C 
BRANCH  10  12
HETATM   12  P1  UNL     1      18.812   3.551  51.255  1.00  0.00    -0.067 P 
HETATM   13  H21 UNL     1      17.559   3.393  51.938  1.00  0.00     0.071 HD
HETATM   14  H22 UNL     1      18.911   2.720  50.069  1.00  0.00     0.071 HD
ENDBRANCH  10  12
ENDBRANCH   9  10
ENDBRANCH   8   9
ENDBRANCH   7   8
ENDBRANCH   6   7
BRANCH   1  15
HETATM   15  N1  UNL     1      25.367   3.935  51.012  1.00  0.00    -0.321 N 
HETATM   16  C3  UNL     1      26.204   3.863  49.879  1.00  0.00     0.245 C 
HETATM   17  O1  UNL     1      26.530   2.666  49.666  1.00  0.00    -0.268 OA
HETATM   18  H4  UNL     1      24.909   4.740  51.484  1.00  0.00     0.169 HD
BRANCH  16  19
HETATM   19  C2  UNL     1      26.475   5.153  49.254  1.00  0.00     0.064 C 
HETATM   20  C1  UNL     1      27.490   5.515  48.523  1.00  0.00     0.017 C 
ENDBRANCH  16  19
ENDBRANCH   1  15
BRANCH   4  21
HETATM   21  O2  UNL     1      24.489  -0.544  54.096  1.00  0.00    -0.354 OA
HETATM   22  C11 UNL     1      23.222  -0.938  54.582  1.00  0.00     0.210 C 
ENDBRANCH   4  21
BRANCH   3  23
HETATM   23  N2  UNL     1      26.813   0.870  54.435  1.00  0.00    -0.186 N 
HETATM   24  H6  UNL     1      26.678   1.043  55.455  1.00  0.00     0.184 HD
BRANCH  23  25
HETATM   25  C7  UNL     1      27.985   0.149  54.074  1.00  0.00     0.722 A 
HETATM   26  N3  UNL     1      27.986  -1.122  53.750  1.00  0.00    -0.100 NA
HETATM   27  C8  UNL     1      29.335  -1.557  53.435  1.00  0.00     0.216 A 
HETATM   28  C9  UNL     1      30.119  -0.306  53.635  1.00  0.00     0.131 A 
HETATM   29  N4  UNL     1      29.324   0.648  53.998  1.00  0.00    -0.078 NA
ENDBRANCH  23  25
ENDBRANCH   3  23
TORSDOF 10
ENDMDL
MODEL 2
REMARK VINA RESULT:      -6.7      1.570      1.888
REMARK  10 active torsions:
REMARK  status: ('A' for Active; 'I' for Inactive)
REMARK    1  A    between atoms: C2_2  and  C3_3 
REMARK       I    between atoms: C3_3  and  N1_5 
REMARK    2  A    between atoms: N1_5  and  C4_6 
REMARK    3  A    between atoms: C6_8  and  N2_9 
REMARK    4  A    between atoms: N2_9  and  C7_10 
REMARK    5  A    between atoms: C10_15  and  O2_16 
REMARK    6  A    between atoms: C13_19  and  O3_20 
REMARK    7  A    between atoms: O3_20  and  C14_21 
REMARK    8  A    between atoms: C14_21  and  C15_22 
REMARK    9  A    between atoms: C15_22  and  N5_23 
REMARK   10  A    between atoms: N5_23  and  P1_25 
ROOT
HETATM    1  C4  UNL     1      25.196   2.850  51.541  1.00  0.00     0.071 A 
HETATM    2  C5  UNL     1      26.129   2.413  52.469  1.00  0.00     0.065 A 
HETATM    3  C6  UNL     1      25.850   1.344  53.287  1.00  0.00     0.085 A 
HETATM    4  C10 UNL     1      24.609   0.742  53.134  1.00  0.00     0.098 A 
HETATM    5  C12 UNL     1      23.718   1.208  52.203  1.00  0.00     0.078 A 
HETATM    6  C13 UNL     1      23.948   2.263  51.367  1.00  0.00     0.098 A 
ENDROOT
BRANCH   6   7
HETATM    7  O3  UNL     1      23.292   2.925  50.392  1.00  0.00    -0.348 OA
BRANCH   7   8
HETATM    8  C14 UNL     1      22.079   3.558  50.437  1.00  0.00     0.190 C 
BRANCH   8   9
HETATM    9  C15 UNL     1      22.184   4.911  51.079  1.00  0.00     0.120 C 
BRANCH   9  10
HETATM   10  N5  UNL     1      23.067   5.705  50.236  1.00  0.00    -0.297 NA
HETATM   11  C16 UNL     1      23.570   6.871  50.905  1.00  0.00     0.115 C 
BRANCH  10  12
HETATM   12  P1  UNL     1      22.287   6.102  48.670  1.00  0.00    -0.067 P 
HETATM   13  H21 UNL     1      21.471   7.274  48.817  1.00  0.00     0.071 HD
HETATM   14  H22 UNL     1      21.558   4.981  48.106  1.00  0.00     0.071 HD
ENDBRANCH  10  12
ENDBRANCH   9  10
ENDBRANCH   8   9
ENDBRANCH   7   8
ENDBRANCH   6   7
BRANCH   1  15
HETATM   15  N1  UNL     1      25.724   3.976  50.812  1.00  0.00    -0.321 N 
HETATM   16  C3  UNL     1      26.488   3.792  49.641  1.00  0.00     0.245 C 
HETATM   17  O1  UNL     1      26.597   2.562  49.393  1.00  0.00    -0.268 OA
HETATM   18  H4  UNL     1      25.428   4.834  51.318  1.00  0.00     0.169 HD
BRANCH  16  19
HETATM   19  C2  UNL     1      26.946   5.033  49.025  1.00  0.00     0.064 C 
HETATM   20  C1  UNL     1      28.093   5.299  48.470  1.00  0.00     0.017 C 
ENDBRANCH  16  19
ENDBRANCH   1  15
BRANCH   4  21
HETATM   21  O2  UNL     1      24.215  -0.334  53.893  1.00  0.00    -0.354 OA
HETATM   22  C11 UNL     1      22.878  -0.762  54.055  1.00  0.00     0.210 C 
ENDBRANCH   4  21
BRANCH   3  23
HETATM   23  N2  UNL     1      26.689   0.781  54.285  1.00  0.00    -0.186 N 
HETATM   24  H6  UNL     1      26.473   0.866  55.302  1.00  0.00     0.184 HD
BRANCH  23  25
HETATM   25  C7  UNL     1      27.875   0.070  53.955  1.00  0.00     0.722 A 
HETATM   26  N3  UNL     1      27.891  -1.193  53.601  1.00  0.00    -0.100 NA
HETATM   27  C8  UNL     1      29.253  -1.620  53.331  1.00  0.00     0.216 A 
HETATM   28  C9  UNL     1      30.026  -0.373  53.594  1.00  0.00     0.131 A 
HETATM   29  N4  UNL     1      29.216   0.571  53.947  1.00  0.00    -0.078 NA
ENDBRANCH  23  25
ENDBRANCH   3  23
TORSDOF 10
ENDMDL
MODEL 3
REMARK VINA RESULT:      -6.5      1.679      1.884
REMARK  10 active torsions:
REMARK  status: ('A' for Active; 'I' for Inactive)
REMARK    1  A    between atoms: C2_2  and  C3_3 
REMARK       I    between atoms: C3_3  and  N1_5 
REMARK    2  A    between atoms: N1_5  and  C4_6 
REMARK    3  A    between atoms: C6_8  and  N2_9 
REMARK    4  A    between atoms: N2_9  and  C7_10 
REMARK    5  A    between atoms: C10_15  and  O2_16 
REMARK    6  A    between atoms: C13_19  and  O3_20 
REMARK    7  A    between atoms: O3_20  and  C14_21 
REMARK    8  A    between atoms: C14_21  and  C15_22 
REMARK    9  A    between atoms: C15_22  and  N5_23 
REMARK   10  A    between atoms: N5_23  and  P1_25 
ROOT
HETATM    1  C4  UNL     1      24.414   3.029  51.811  1.00  0.00     0.071 A 
HETATM    2  C5  UNL     1      25.219   1.988  52.250  1.00  0.00     0.065 A 
HETATM    3  C6  UNL     1      24.670   0.907  52.898  1.00  0.00     0.085 A 
HETATM    4  C10 UNL     1      23.294   0.917  53.084  1.00  0.00     0.098 A 
HETATM    5  C12 UNL     1      22.538   1.968  52.633  1.00  0.00     0.078 A 
HETATM    6  C13 UNL     1      23.035   3.062  51.984  1.00  0.00     0.098 A 
ENDROOT
BRANCH   6   7
HETATM    7  O3  UNL     1      22.561   4.205  51.447  1.00  0.00    -0.348 OA
BRANCH   7   8
HETATM    8  C14 UNL     1      21.379   4.432  50.795  1.00  0.00     0.190 C 
BRANCH   8   9
HETATM    9  C15 UNL     1      21.474   4.085  49.338  1.00  0.00     0.120 C 
BRANCH   9  10
HETATM   10  N5  UNL     1      20.558   2.974  49.114  1.00  0.00    -0.297 NA
HETATM   11  C16 UNL     1      19.608   2.817  50.179  1.00  0.00     0.115 C 
BRANCH  10  12
HETATM   12  P1  UNL     1      21.448   1.457  48.767  1.00  0.00    -0.067 P 
HETATM   13  H21 UNL     1      21.896   0.864  49.996  1.00  0.00     0.071 HD
HETATM   14  H22 UNL     1      22.525   1.643  47.811  1.00  0.00     0.071 HD
ENDBRANCH  10  12
ENDBRANCH   9  10
ENDBRANCH   8   9
ENDBRANCH   7   8
ENDBRANCH   6   7
BRANCH   1  15
HETATM   15  N1  UNL     1      25.223   4.033  51.167  1.00  0.00    -0.321 N 
HETATM   16  C3  UNL     1      25.428   4.019  49.772  1.00  0.00     0.245 C 
HETATM   17  O1  UNL     1      24.816   3.044  49.262  1.00  0.00    -0.268 OA
HETATM   18  H4  UNL     1      25.563   4.675  51.911  1.00  0.00     0.169 HD
BRANCH  16  19
HETATM   19  C2  UNL     1      26.271   5.104  49.281  1.00  0.00     0.064 C 
HETATM   20  C1  UNL     1      27.415   5.040  48.663  1.00  0.00     0.017 C 
ENDBRANCH  16  19
ENDBRANCH   1  15
BRANCH   4  21
HETATM   21  O2  UNL     1      22.630  -0.105  53.717  1.00  0.00    -0.354 OA
HETATM   22  C11 UNL     1      21.395   0.029  54.391  1.00  0.00     0.210 C 
ENDBRANCH   4  21
BRANCH   3  23
HETATM   23  N2  UNL     1      25.352  -0.228  53.410  1.00  0.00    -0.186 N 
HETATM   24  H6  UNL     1      24.873  -1.145  53.550  1.00  0.00     0.184 HD
BRANCH  23  25
HETATM   25  C7  UNL     1      26.728  -0.181  53.764  1.00  0.00     0.722 A 
HETATM   26  N3  UNL     1      27.673  -0.796  53.094  1.00  0.00    -0.100 NA
HETATM   27  C8  UNL     1      28.965  -0.551  53.711  1.00  0.00     0.216 A 
HETATM   28  C9  UNL     1      28.597   0.320  54.863  1.00  0.00     0.131 A 
HETATM   29  N4  UNL     1      27.319   0.512  54.868  1.00  0.00    -0.078 NA
ENDBRANCH  23  25
ENDBRANCH   3  23
TORSDOF 10
ENDMDL
MODEL 4
REMARK VINA RESULT:      -6.3      1.875      2.250
REMARK  10 active torsions:
REMARK  status: ('A' for Active; 'I' for Inactive)
REMARK    1  A    between atoms: C2_2  and  C3_3 
REMARK       I    between atoms: C3_3  and  N1_5 
REMARK    2  A    between atoms: N1_5  and  C4_6 
REMARK    3  A    between atoms: C6_8  and  N2_9 
REMARK    4  A    between atoms: N2_9  and  C7_10 
REMARK    5  A    between atoms: C10_15  and  O2_16 
REMARK    6  A    between atoms: C13_19  and  O3_20 
REMARK    7  A    between atoms: O3_20  and  C14_21 
REMARK    8  A    between atoms: C14_21  and  C15_22 
REMARK    9  A    between atoms: C15_22  and  N5_23 
REMARK   10  A    between atoms: N5_23  and  P1_25 
ROOT
HETATM    1  C4  UNL     1      24.047   1.599  51.575  1.00  0.00     0.071 A 
HETATM    2  C5  UNL     1      25.017   1.155  52.461  1.00  0.00     0.065 A 
HETATM    3  C6  UNL     1      24.696   0.261  53.455  1.00  0.00     0.085 A 
HETATM    4  C10 UNL     1      23.375  -0.162  53.518  1.00  0.00     0.098 A 
HETATM    5  C12 UNL     1      22.450   0.305  52.621  1.00  0.00     0.078 A 
HETATM    6  C13 UNL     1      22.719   1.191  51.617  1.00  0.00     0.098 A 
ENDROOT
BRANCH   6   7
HETATM    7  O3  UNL     1      22.046   1.808  50.624  1.00  0.00    -0.348 OA
BRANCH   7   8
HETATM    8  C14 UNL     1      20.949   1.384  49.925  1.00  0.00     0.190 C 
BRANCH   8   9
HETATM    9  C15 UNL     1      19.676   1.917  50.515  1.00  0.00     0.120 C 
BRANCH   9  10
HETATM   10  N5  UNL     1      18.592   1.439  49.668  1.00  0.00    -0.297 NA
HETATM   11  C16 UNL     1      17.830   2.509  49.088  1.00  0.00     0.115 C 
BRANCH  10  12
HETATM   12  P1  UNL     1      17.558   0.260  50.537  1.00  0.00    -0.067 P 
HETATM   13  H21 UNL     1      17.078  -0.734  49.619  1.00  0.00     0.071 HD
HETATM   14  H22 UNL     1      16.488   0.895  51.284  1.00  0.00     0.071 HD
ENDBRANCH  10  12
ENDBRANCH   9  10
ENDBRANCH   8   9
ENDBRANCH   7   8
ENDBRANCH   6   7
BRANCH   1  15
HETATM   15  N1  UNL     1      24.632   2.523  50.636  1.00  0.00    -0.321 N 
HETATM   16  C3  UNL     1      24.638   3.911  50.887  1.00  0.00     0.245 C 
HETATM   17  O1  UNL     1      24.083   4.146  51.993  1.00  0.00    -0.268 OA
HETATM   18  H4  UNL     1      24.992   1.962  49.838  1.00  0.00     0.169 HD
BRANCH  16  19
HETATM   19  C2  UNL     1      25.267   4.706  49.838  1.00  0.00     0.064 C 
HETATM   20  C1  UNL     1      26.419   4.534  49.256  1.00  0.00     0.017 C 
ENDBRANCH  16  19
ENDBRANCH   1  15
BRANCH   4  21
HETATM   21  O2  UNL     1      22.932  -1.053  54.466  1.00  0.00    -0.354 OA
HETATM   22  C11 UNL     1      21.634  -1.608  54.509  1.00  0.00     0.210 C 
ENDBRANCH   4  21
BRANCH   3  23
HETATM   23  N2  UNL     1      25.564  -0.284  54.437  1.00  0.00    -0.186 N 
HETATM   24  H6  UNL     1      25.206  -0.822  55.256  1.00  0.00     0.184 HD
BRANCH  23  25
HETATM   25  C7  UNL     1      26.976  -0.126  54.363  1.00  0.00     0.722 A 
HETATM   26  N3  UNL     1      27.619   0.902  54.863  1.00  0.00    -0.100 NA
HETATM   27  C8  UNL     1      29.045   0.765  54.623  1.00  0.00     0.216 A 
HETATM   28  C9  UNL     1      29.112  -0.532  53.892  1.00  0.00     0.131 A 
HETATM   29  N4  UNL     1      27.920  -1.015  53.759  1.00  0.00    -0.078 NA
ENDBRANCH  23  25
ENDBRANCH   3  23
TORSDOF 10
ENDMDL
MODEL 5
REMARK VINA RESULT:      -6.0      3.001      5.815
REMARK  10 active torsions:
REMARK  status: ('A' for Active; 'I' for Inactive)
REMARK    1  A    between atoms: C2_2  and  C3_3 
REMARK       I    between atoms: C3_3  and  N1_5 
REMARK    2  A    between atoms: N1_5  and  C4_6 
REMARK    3  A    between atoms: C6_8  and  N2_9 
REMARK    4  A    between atoms: N2_9  and  C7_10 
REMARK    5  A    between atoms: C10_15  and  O2_16 
REMARK    6  A    between atoms: C13_19  and  O3_20 
REMARK    7  A    between atoms: O3_20  and  C14_21 
REMARK    8  A    between atoms: C14_21  and  C15_22 
REMARK    9  A    between atoms: C15_22  and  N5_23 
REMARK   10  A    between atoms: N5_23  and  P1_25 
ROOT
HETATM    1  C4  UNL     1      25.046   2.806  51.420  1.00  0.00     0.071 A 
HETATM    2  C5  UNL     1      24.122   1.856  51.829  1.00  0.00     0.065 A 
HETATM    3  C6  UNL     1      23.030   1.563  51.047  1.00  0.00     0.085 A 
HETATM    4  C10 UNL     1      22.909   2.257  49.851  1.00  0.00     0.098 A 
HETATM    5  C12 UNL     1      23.847   3.187  49.487  1.00  0.00     0.078 A 
HETATM    6  C13 UNL     1      24.948   3.512  50.227  1.00  0.00     0.098 A 
ENDROOT
BRANCH   6   7
HETATM    7  O3  UNL     1      26.000   4.351  50.134  1.00  0.00    -0.348 OA
BRANCH   7   8
HETATM    8  C14 UNL     1      26.448   5.066  49.057  1.00  0.00     0.190 C 
BRANCH   8   9
HETATM    9  C15 UNL     1      25.650   6.321  48.854  1.00  0.00     0.120 C 
BRANCH   9  10
HETATM   10  N5  UNL     1      25.768   7.092  50.084  1.00  0.00    -0.297 NA
HETATM   11  C16 UNL     1      24.496   7.362  50.692  1.00  0.00     0.115 C 
BRANCH  10  12
HETATM   12  P1  UNL     1      26.730   8.584  49.827  1.00  0.00    -0.067 P 
HETATM   13  H21 UNL     1      25.863   9.660  49.439  1.00  0.00     0.071 HD
HETATM   14  H22 UNL     1      27.830   8.390  48.900  1.00  0.00     0.071 HD
ENDBRANCH  10  12
ENDBRANCH   9  10
ENDBRANCH   8   9
ENDBRANCH   7   8
ENDBRANCH   6   7
BRANCH   1  15
HETATM   15  N1  UNL     1      26.089   2.929  52.406  1.00  0.00    -0.321 N 
HETATM   16  C3  UNL     1      27.187   2.043  52.420  1.00  0.00     0.245 C 
HETATM   17  O1  UNL     1      27.073   1.210  51.483  1.00  0.00    -0.268 OA
HETATM   18  H4  UNL     1      25.841   3.734  53.016  1.00  0.00     0.169 HD
BRANCH  16  19
HETATM   19  C2  UNL     1      28.152   2.305  53.483  1.00  0.00     0.064 C 
HETATM   20  C1  UNL     1      29.001   1.490  54.040  1.00  0.00     0.017 C 
ENDBRANCH  16  19
ENDBRANCH   1  15
BRANCH   4  21
HETATM   21  O2  UNL     1      21.862   2.052  48.985  1.00  0.00    -0.354 OA
HETATM   22  C11 UNL     1      21.810   2.525  47.655  1.00  0.00     0.210 C 
ENDBRANCH   4  21
BRANCH   3  23
HETATM   23  N2  UNL     1      21.998   0.628  51.324  1.00  0.00    -0.186 N 
HETATM   24  H6  UNL     1      21.358   0.273  50.581  1.00  0.00     0.184 HD
BRANCH  23  25
HETATM   25  C7  UNL     1      21.775   0.121  52.634  1.00  0.00     0.722 A 
HETATM   26  N3  UNL     1      21.090   0.757  53.553  1.00  0.00    -0.100 NA
HETATM   27  C8  UNL     1      21.046  -0.024  54.776  1.00  0.00     0.216 A 
HETATM   28  C9  UNL     1      21.832  -1.232  54.400  1.00  0.00     0.131 A 
HETATM   29  N4  UNL     1      22.234  -1.122  53.176  1.00  0.00    -0.078 NA
ENDBRANCH  23  25
ENDBRANCH   3  23
TORSDOF 10
ENDMDL
MODEL 6
REMARK VINA RESULT:      -6.0      1.875      4.446
REMARK  10 active torsions:
REMARK  status: ('A' for Active; 'I' for Inactive)
REMARK    1  A    between atoms: C2_2  and  C3_3 
REMARK       I    between atoms: C3_3  and  N1_5 
REMARK    2  A    between atoms: N1_5  and  C4_6 
REMARK    3  A    between atoms: C6_8  and  N2_9 
REMARK    4  A    between atoms: N2_9  and  C7_10 
REMARK    5  A    between atoms: C10_15  and  O2_16 
REMARK    6  A    between atoms: C13_19  and  O3_20 
REMARK    7  A    between atoms: O3_20  and  C14_21 
REMARK    8  A    between atoms: C14_21  and  C15_22 
REMARK    9  A    between atoms: C15_22  and  N5_23 
REMARK   10  A    between atoms: N5_23  and  P1_25 
ROOT
HETATM    1  C4  UNL     1      23.247   1.715  52.401  1.00  0.00     0.071 A 
HETATM    2  C5  UNL     1      24.370   0.904  52.451  1.00  0.00     0.065 A 
HETATM    3  C6  UNL     1      25.557   1.321  51.897  1.00  0.00     0.085 A 
HETATM    4  C10 UNL     1      25.566   2.573  51.297  1.00  0.00     0.098 A 
HETATM    5  C12 UNL     1      24.431   3.341  51.271  1.00  0.00     0.078 A 
HETATM    6  C13 UNL     1      23.231   2.973  51.808  1.00  0.00     0.098 A 
ENDROOT
BRANCH   6   7
HETATM    7  O3  UNL     1      21.991   3.491  51.930  1.00  0.00    -0.348 OA
BRANCH   7   8
HETATM    8  C14 UNL     1      21.455   4.606  51.346  1.00  0.00     0.190 C 
BRANCH   8   9
HETATM    9  C15 UNL     1      20.774   4.280  50.049  1.00  0.00     0.120 C 
BRANCH   9  10
HETATM   10  N5  UNL     1      19.920   3.128  50.306  1.00  0.00    -0.297 NA
HETATM   11  C16 UNL     1      19.670   2.350  49.125  1.00  0.00     0.115 C 
BRANCH  10  12
HETATM   12  P1  UNL     1      18.406   3.613  51.135  1.00  0.00    -0.067 P 
HETATM   13  H21 UNL     1      18.295   5.045  51.146  1.00  0.00     0.071 HD
HETATM   14  H22 UNL     1      18.280   3.034  52.460  1.00  0.00     0.071 HD
ENDBRANCH  10  12
ENDBRANCH   9  10
ENDBRANCH   8   9
ENDBRANCH   7   8
ENDBRANCH   6   7
BRANCH   1  15
HETATM   15  N1  UNL     1      22.140   1.056  53.046  1.00  0.00    -0.321 N 
HETATM   16  C3  UNL     1      21.253   0.238  52.316  1.00  0.00     0.245 C 
HETATM   17  O1  UNL     1      21.601   0.207  51.106  1.00  0.00    -0.268 OA
HETATM   18  H4  UNL     1      22.173   1.317  54.052  1.00  0.00     0.169 HD
BRANCH  16  19
HETATM   19  C2  UNL     1      20.188  -0.353  53.119  1.00  0.00     0.064 C 
HETATM   20  C1  UNL     1      20.260  -1.299  54.011  1.00  0.00     0.017 C 
ENDBRANCH  16  19
ENDBRANCH   1  15
BRANCH   4  21
HETATM   21  O2  UNL     1      26.691   3.099  50.710  1.00  0.00    -0.354 OA
HETATM   22  C11 UNL     1      26.711   3.785  49.475  1.00  0.00     0.210 C 
ENDBRANCH   4  21
BRANCH   3  23
HETATM   23  N2  UNL     1      26.787   0.613  51.860  1.00  0.00    -0.186 N 
HETATM   24  H6  UNL     1      27.081   0.055  51.029  1.00  0.00     0.184 HD
BRANCH  23  25
HETATM   25  C7  UNL     1      27.691   0.619  52.959  1.00  0.00     0.722 A 
HETATM   26  N3  UNL     1      28.602   1.544  53.145  1.00  0.00    -0.100 NA
HETATM   27  C8  UNL     1      29.360   1.264  54.352  1.00  0.00     0.216 A 
HETATM   28  C9  UNL     1      28.721   0.007  54.833  1.00  0.00     0.131 A 
HETATM   29  N4  UNL     1      27.776  -0.336  54.021  1.00  0.00    -0.078 NA
ENDBRANCH  23  25
ENDBRANCH   3  23
TORSDOF 10
ENDMDL
MODEL 7
REMARK VINA RESULT:      -5.9      7.381     11.986
REMARK  10 active torsions:
REMARK  status: ('A' for Active; 'I' for Inactive)
REMARK    1  A    between atoms: C2_2  and  C3_3 
REMARK       I    between atoms: C3_3  and  N1_5 
REMARK    2  A    between atoms: N1_5  and  C4_6 
REMARK    3  A    between atoms: C6_8  and  N2_9 
REMARK    4  A    between atoms: N2_9  and  C7_10 
REMARK    5  A    between atoms: C10_15  and  O2_16 
REMARK    6  A    between atoms: C13_19  and  O3_20 
REMARK    7  A    between atoms: O3_20  and  C14_21 
REMARK    8  A    between atoms: C14_21  and  C15_22 
REMARK    9  A    between atoms: C15_22  and  N5_23 
REMARK   10  A    between atoms: N5_23  and  P1_25 
ROOT
HETATM    1  C4  UNL     1      29.895   7.904  48.559  1.00  0.00     0.071 A 
HETATM    2  C5  UNL     1      29.609   9.125  49.150  1.00  0.00     0.065 A 
HETATM    3  C6  UNL     1      30.402  10.221  48.905  1.00  0.00     0.085 A 
HETATM    4  C10 UNL     1      31.480  10.039  48.051  1.00  0.00     0.098 A 
HETATM    5  C12 UNL     1      31.725   8.813  47.488  1.00  0.00     0.078 A 
HETATM    6  C13 UNL     1      30.968   7.696  47.699  1.00  0.00     0.098 A 
ENDROOT
BRANCH   6   7
HETATM    7  O3  UNL     1      30.961   6.406  47.304  1.00  0.00    -0.348 OA
BRANCH   7   8
HETATM    8  C14 UNL     1      31.807   5.389  47.650  1.00  0.00     0.190 C 
BRANCH   8   9
HETATM    9  C15 UNL     1      32.657   4.957  46.490  1.00  0.00     0.120 C 
BRANCH   9  10
HETATM   10  N5  UNL     1      33.924   4.503  47.048  1.00  0.00    -0.297 NA
HETATM   11  C16 UNL     1      33.858   3.160  47.550  1.00  0.00     0.115 C 
BRANCH  10  12
HETATM   12  P1  UNL     1      34.547   5.658  48.270  1.00  0.00    -0.067 P 
HETATM   13  H21 UNL     1      35.804   6.197  47.833  1.00  0.00     0.071 HD
HETATM   14  H22 UNL     1      34.616   5.084  49.601  1.00  0.00     0.071 HD
ENDBRANCH  10  12
ENDBRANCH   9  10
ENDBRANCH   8   9
ENDBRANCH   7   8
ENDBRANCH   6   7
BRANCH   1  15
HETATM   15  N1  UNL     1      28.924   6.922  48.972  1.00  0.00    -0.321 N 
HETATM   16  C3  UNL     1      27.748   6.702  48.225  1.00  0.00     0.245 C 
HETATM   17  O1  UNL     1      27.731   7.466  47.223  1.00  0.00    -0.268 OA
HETATM   18  H4  UNL     1      29.280   6.488  49.846  1.00  0.00     0.169 HD
BRANCH  16  19
HETATM   19  C2  UNL     1      26.871   5.676  48.779  1.00  0.00     0.064 C 
HETATM   20  C1  UNL     1      27.123   4.421  49.014  1.00  0.00     0.017 C 
ENDBRANCH  16  19
ENDBRANCH   1  15
BRANCH   4  21
HETATM   21  O2  UNL     1      32.344  11.058  47.729  1.00  0.00    -0.354 OA
HETATM   22  C11 UNL     1      33.362  10.976  46.753  1.00  0.00     0.210 C 
ENDBRANCH   4  21
BRANCH   3  23
HETATM   23  N2  UNL     1      30.249  11.530  49.433  1.00  0.00    -0.186 N 
HETATM   24  H6  UNL     1      30.769  11.852  50.277  1.00  0.00     0.184 HD
BRANCH  23  25
HETATM   25  C7  UNL     1      29.372  12.481  48.840  1.00  0.00     0.722 A 
HETATM   26  N3  UNL     1      29.698  13.231  47.815  1.00  0.00    -0.100 NA
HETATM   27  C8  UNL     1      28.587  14.093  47.451  1.00  0.00     0.216 A 
HETATM   28  C9  UNL     1      27.555  13.706  48.454  1.00  0.00     0.131 A 
HETATM   29  N4  UNL     1      28.030  12.787  49.230  1.00  0.00    -0.078 NA
ENDBRANCH  23  25
ENDBRANCH   3  23
TORSDOF 10
ENDMDL
MODEL 8
REMARK VINA RESULT:      -5.9      3.289      6.407
REMARK  10 active torsions:
REMARK  status: ('A' for Active; 'I' for Inactive)
REMARK    1  A    between atoms: C2_2  and  C3_3 
REMARK       I    between atoms: C3_3  and  N1_5 
REMARK    2  A    between atoms: N1_5  and  C4_6 
REMARK    3  A    between atoms: C6_8  and  N2_9 
REMARK    4  A    between atoms: N2_9  and  C7_10 
REMARK    5  A    between atoms: C10_15  and  O2_16 
REMARK    6  A    between atoms: C13_19  and  O3_20 
REMARK    7  A    between atoms: O3_20  and  C14_21 
REMARK    8  A    between atoms: C14_21  and  C15_22 
REMARK    9  A    between atoms: C15_22  and  N5_23 
REMARK   10  A    between atoms: N5_23  and  P1_25 
ROOT
HETATM    1  C4  UNL     1      26.106   4.051  49.725  1.00  0.00     0.071 A 
HETATM    2  C5  UNL     1      27.286   4.265  49.028  1.00  0.00     0.065 A 
HETATM    3  C6  UNL     1      27.632   5.529  48.613  1.00  0.00     0.085 A 
HETATM    4  C10 UNL     1      26.752   6.556  48.925  1.00  0.00     0.098 A 
HETATM    5  C12 UNL     1      25.596   6.298  49.616  1.00  0.00     0.078 A 
HETATM    6  C13 UNL     1      25.210   5.062  50.051  1.00  0.00     0.098 A 
ENDROOT
BRANCH   6   7
HETATM    7  O3  UNL     1      24.174   4.520  50.723  1.00  0.00    -0.348 OA
BRANCH   7   8
HETATM    8  C14 UNL     1      23.725   4.787  51.988  1.00  0.00     0.190 C 
BRANCH   8   9
HETATM    9  C15 UNL     1      23.599   3.535  52.806  1.00  0.00     0.120 C 
BRANCH   9  10
HETATM   10  N5  UNL     1      22.612   2.698  52.137  1.00  0.00    -0.297 NA
HETATM   11  C16 UNL     1      21.275   3.204  52.270  1.00  0.00     0.115 C 
BRANCH  10  12
HETATM   12  P1  UNL     1      22.747   0.988  52.659  1.00  0.00    -0.067 P 
HETATM   13  H21 UNL     1      23.058   0.931  54.060  1.00  0.00     0.071 HD
HETATM   14  H22 UNL     1      23.679   0.225  51.849  1.00  0.00     0.071 HD
ENDBRANCH  10  12
ENDBRANCH   9  10
ENDBRANCH   8   9
ENDBRANCH   7   8
ENDBRANCH   6   7
BRANCH   1  15
HETATM   15  N1  UNL     1      25.975   2.652  50.044  1.00  0.00    -0.321 N 
HETATM   16  C3  UNL     1      26.651   2.089  51.146  1.00  0.00     0.245 C 
HETATM   17  O1  UNL     1      27.323   2.979  51.732  1.00  0.00    -0.268 OA
HETATM   18  H4  UNL     1      25.336   2.235  49.337  1.00  0.00     0.169 HD
BRANCH  16  19
HETATM   19  C2  UNL     1      26.411   0.662  51.330  1.00  0.00     0.064 C 
HETATM   20  C1  UNL     1      26.765  -0.110  52.317  1.00  0.00     0.017 C 
ENDBRANCH  16  19
ENDBRANCH   1  15
BRANCH   4  21
HETATM   21  O2  UNL     1      26.987   7.861  48.565  1.00  0.00    -0.354 OA
HETATM   22  C11 UNL     1      27.190   8.925  49.472  1.00  0.00     0.210 C 
ENDBRANCH   4  21
BRANCH   3  23
HETATM   23  N2  UNL     1      28.793   5.911  47.891  1.00  0.00    -0.186 N 
HETATM   24  H6  UNL     1      28.805   5.963  46.849  1.00  0.00     0.184 HD
BRANCH  23  25
HETATM   25  C7  UNL     1      30.010   6.244  48.547  1.00  0.00     0.722 A 
HETATM   26  N3  UNL     1      30.439   7.472  48.705  1.00  0.00    -0.100 NA
HETATM   27  C8  UNL     1      31.708   7.473  49.412  1.00  0.00     0.216 A 
HETATM   28  C9  UNL     1      31.937   6.018  49.637  1.00  0.00     0.131 A 
HETATM   29  N4  UNL     1      30.955   5.344  49.134  1.00  0.00    -0.078 NA
ENDBRANCH  23  25
ENDBRANCH   3  23
TORSDOF 10
ENDMDL
MODEL 9
REMARK VINA RESULT:      -5.5      7.425     10.250
REMARK  10 active torsions:
REMARK  status: ('A' for Active; 'I' for Inactive)
REMARK    1  A    between atoms: C2_2  and  C3_3 
REMARK       I    between atoms: C3_3  and  N1_5 
REMARK    2  A    between atoms: N1_5  and  C4_6 
REMARK    3  A    between atoms: C6_8  and  N2_9 
REMARK    4  A    between atoms: N2_9  and  C7_10 
REMARK    5  A    between atoms: C10_15  and  O2_16 
REMARK    6  A    between atoms: C13_19  and  O3_20 
REMARK    7  A    between atoms: O3_20  and  C14_21 
REMARK    8  A    between atoms: C14_21  and  C15_22 
REMARK    9  A    between atoms: C15_22  and  N5_23 
REMARK   10  A    between atoms: N5_23  and  P1_25 
ROOT
HETATM    1  C4  UNL     1      30.474   7.419  48.921  1.00  0.00     0.071 A 
HETATM    2  C5  UNL     1      31.213   6.246  48.883  1.00  0.00     0.065 A 
HETATM    3  C6  UNL     1      32.585   6.289  48.804  1.00  0.00     0.085 A 
HETATM    4  C10 UNL     1      33.174   7.545  48.765  1.00  0.00     0.098 A 
HETATM    5  C12 UNL     1      32.403   8.678  48.804  1.00  0.00     0.078 A 
HETATM    6  C13 UNL     1      31.040   8.688  48.884  1.00  0.00     0.098 A 
ENDROOT
BRANCH   6   7
HETATM    7  O3  UNL     1      30.050   9.603  48.936  1.00  0.00    -0.348 OA
BRANCH   7   8
HETATM    8  C14 UNL     1      29.996  10.855  48.386  1.00  0.00     0.190 C 
BRANCH   8   9
HETATM    9  C15 UNL     1      29.013  10.920  47.253  1.00  0.00     0.120 C 
BRANCH   9  10
HETATM   10  N5  UNL     1      27.915  11.764  47.702  1.00  0.00    -0.297 NA
HETATM   11  C16 UNL     1      28.323  12.726  48.686  1.00  0.00     0.115 C 
BRANCH  10  12
HETATM   12  P1  UNL     1      26.519  10.780  48.249  1.00  0.00    -0.067 P 
HETATM   13  H21 UNL     1      25.322  11.228  47.595  1.00  0.00     0.071 HD
HETATM   14  H22 UNL     1      26.388  10.745  49.694  1.00  0.00     0.071 HD
ENDBRANCH  10  12
ENDBRANCH   9  10
ENDBRANCH   8   9
ENDBRANCH   7   8
ENDBRANCH   6   7
BRANCH   1  15
HETATM   15  N1  UNL     1      29.069   7.108  49.003  1.00  0.00    -0.321 N 
HETATM   16  C3  UNL     1      28.269   7.040  47.844  1.00  0.00     0.245 C 
HETATM   17  O1  UNL     1      28.972   7.283  46.827  1.00  0.00    -0.268 OA
HETATM   18  H4  UNL     1      28.844   6.970  50.009  1.00  0.00     0.169 HD
BRANCH  16  19
HETATM   19  C2  UNL     1      26.870   6.715  48.101  1.00  0.00     0.064 C 
HETATM   20  C1  UNL     1      26.369   5.729  48.789  1.00  0.00     0.017 C 
ENDBRANCH  16  19
ENDBRANCH   1  15
BRANCH   4  21
HETATM   21  O2  UNL     1      34.535   7.717  48.686  1.00  0.00    -0.354 OA
HETATM   22  C11 UNL     1      35.201   8.425  47.660  1.00  0.00     0.210 C 
ENDBRANCH   4  21
BRANCH   3  23
HETATM   23  N2  UNL     1      33.479   5.188  48.752  1.00  0.00    -0.186 N 
HETATM   24  H6  UNL     1      33.830   4.717  49.615  1.00  0.00     0.184 HD
BRANCH  23  25
HETATM   25  C7  UNL     1      33.953   4.662  47.518  1.00  0.00     0.722 A 
HETATM   26  N3  UNL     1      34.766   3.637  47.428  1.00  0.00    -0.100 NA
HETATM   27  C8  UNL     1      35.059   3.351  46.035  1.00  0.00     0.216 A 
HETATM   28  C9  UNL     1      34.267   4.399  45.331  1.00  0.00     0.131 A 
HETATM   29  N4  UNL     1      33.649   5.129  46.200  1.00  0.00    -0.078 NA
ENDBRANCH  23  25
ENDBRANCH   3  23
TORSDOF 10
ENDMDL
