MODEL 1
REMARK VINA RESULT:      -7.5      0.000      0.000
REMARK  6 active torsions:
REMARK  status: ('A' for Active; 'I' for Inactive)
REMARK    1  A    between atoms: C2_2  and  O1_3 
REMARK    2  A    between atoms: O1_3  and  C3_4 
REMARK    3  A    between atoms: C17_21  and  N4_22 
REMARK       I    between atoms: N4_22  and  C18_23 
REMARK    4  A    between atoms: C18_23  and  C19_25 
REMARK    5  A    between atoms: C20_26  and  C21_27 
REMARK    6  A    between atoms: C21_27  and  N5_28 
ROOT
HETATM    1  C3  UNL     1      30.919   7.519  46.715  1.00  0.00     0.097 C 
HETATM    2  C4  UNL     1      31.842   7.304  45.775  1.00  0.00     0.069 C 
HETATM    3  C5  UNL     1      33.000   6.431  45.608  1.00  0.00     0.074 C 
HETATM    4  N1  UNL     1      33.862   6.732  44.706  1.00  0.00    -0.295 NA
HETATM    5  C6  UNL     1      33.679   7.892  43.898  1.00  0.00     0.178 C 
HETATM    6  C7  UNL     1      33.314   5.185  46.390  1.00  0.00     0.175 C 
HETATM    7  C8  UNL     1      34.412   4.540  45.664  1.00  0.00     0.099 C 
HETATM    8  N2  UNL     1      35.306   4.032  45.096  1.00  0.00    -0.194 NA
HETATM    9  N3  UNL     1      32.223   4.221  46.345  1.00  0.00    -0.372 N 
HETATM   10  C9  UNL     1      32.392   2.944  46.955  1.00  0.00     0.085 C 
HETATM   11  C10 UNL     1      33.363   2.392  47.704  1.00  0.00     0.016 C 
HETATM   12  C11 UNL     1      34.583   3.134  48.064  1.00  0.00    -0.002 C 
HETATM   13  C12 UNL     1      34.822   4.456  48.114  1.00  0.00    -0.013 C 
HETATM   14  C13 UNL     1      33.749   5.467  47.771  1.00  0.00     0.022 C 
HETATM   15  C14 UNL     1      34.518   6.796  47.721  1.00  0.00     0.024 C 
HETATM   16  C15 UNL     1      32.810   5.480  48.875  1.00  0.00     0.046 C 
HETATM   17  C16 UNL     1      31.512   6.122  48.785  1.00  0.00     0.007 C 
HETATM   18  C17 UNL     1      30.743   6.889  48.021  1.00  0.00     0.065 C 
HETATM   19  H10 UNL     1      31.292   4.354  45.905  1.00  0.00     0.161 HD
ENDROOT
BRANCH   1  20
HETATM   20  O1  UNL     1      30.003   8.497  46.365  1.00  0.00    -0.349 OA
BRANCH  20  21
HETATM   21  C2  UNL     1      29.207   8.441  45.206  1.00  0.00     0.171 C 
HETATM   22  C1  UNL     1      27.730   8.501  45.534  1.00  0.00     0.034 C 
ENDBRANCH  20  21
ENDBRANCH   1  20
BRANCH  18  23
HETATM   23  N4  UNL     1      29.448   7.209  48.520  1.00  0.00    -0.321 N 
HETATM   24  C18 UNL     1      28.561   6.110  48.383  1.00  0.00     0.245 C 
HETATM   25  O2  UNL     1      29.061   5.082  47.859  1.00  0.00    -0.268 OA
HETATM   26  H21 UNL     1      29.110   8.099  48.944  1.00  0.00     0.169 HD
BRANCH  24  27
HETATM   27  C19 UNL     1      27.166   6.149  48.808  1.00  0.00     0.072 C 
HETATM   28  C20 UNL     1      26.492   5.052  49.007  1.00  0.00     0.008 C 
BRANCH  28  29
HETATM   29  C21 UNL     1      25.061   5.109  49.443  1.00  0.00     0.299 C 
BRANCH  29  30
HETATM   30  N5  UNL     1      24.646   3.947  50.173  1.00  0.00     0.083 N 
HETATM   31  C22 UNL     1      25.753   3.202  50.735  1.00  0.00     0.309 C 
HETATM   32  C23 UNL     1      23.735   3.151  49.406  1.00  0.00     0.309 C 
ENDBRANCH  29  30
ENDBRANCH  28  29
ENDBRANCH  24  27
ENDBRANCH  18  23
TORSDOF 6
ENDMDL
MODEL 2
REMARK VINA RESULT:      -7.4      7.256     12.019
REMARK  6 active torsions:
REMARK  status: ('A' for Active; 'I' for Inactive)
REMARK    1  A    between atoms: C2_2  and  O1_3 
REMARK    2  A    between atoms: O1_3  and  C3_4 
REMARK    3  A    between atoms: C17_21  and  N4_22 
REMARK       I    between atoms: N4_22  and  C18_23 
REMARK    4  A    between atoms: C18_23  and  C19_25 
REMARK    5  A    between atoms: C20_26  and  C21_27 
REMARK    6  A    between atoms: C21_27  and  N5_28 
ROOT
HETATM    1  C3  UNL     1      23.424   3.182  51.261  1.00  0.00     0.097 C 
HETATM    2  C4  UNL     1      22.370   4.000  51.237  1.00  0.00     0.069 C 
HETATM    3  C5  UNL     1      20.921   3.859  51.117  1.00  0.00     0.074 C 
HETATM    4  N1  UNL     1      20.235   4.894  50.795  1.00  0.00    -0.295 NA
HETATM    5  C6  UNL     1      20.885   6.141  50.562  1.00  0.00     0.178 C 
HETATM    6  C7  UNL     1      20.114   2.608  51.332  1.00  0.00     0.175 C 
HETATM    7  C8  UNL     1      18.718   3.051  51.365  1.00  0.00     0.099 C 
HETATM    8  N2  UNL     1      17.596   3.401  51.371  1.00  0.00    -0.194 NA
HETATM    9  N3  UNL     1      20.349   2.024  52.646  1.00  0.00    -0.372 N 
HETATM   10  C9  UNL     1      19.592   0.886  53.052  1.00  0.00     0.085 C 
HETATM   11  C10 UNL     1      18.697   0.095  52.433  1.00  0.00     0.016 C 
HETATM   12  C11 UNL     1      18.305   0.316  51.030  1.00  0.00    -0.002 C 
HETATM   13  C12 UNL     1      18.936   0.963  50.035  1.00  0.00    -0.013 C 
HETATM   14  C13 UNL     1      20.282   1.622  50.248  1.00  0.00     0.022 C 
HETATM   15  C14 UNL     1      20.490   2.427  48.957  1.00  0.00     0.024 C 
HETATM   16  C15 UNL     1      21.265   0.560  50.333  1.00  0.00     0.046 C 
HETATM   17  C16 UNL     1      22.618   0.788  50.803  1.00  0.00     0.007 C 
HETATM   18  C17 UNL     1      23.486   1.726  51.167  1.00  0.00     0.065 C 
HETATM   19  H10 UNL     1      21.032   2.347  53.358  1.00  0.00     0.161 HD
ENDROOT
BRANCH   1  20
HETATM   20  O1  UNL     1      24.629   3.851  51.399  1.00  0.00    -0.349 OA
BRANCH  20  21
HETATM   21  C2  UNL     1      25.180   4.681  50.405  1.00  0.00     0.171 C 
HETATM   22  C1  UNL     1      26.209   3.951  49.569  1.00  0.00     0.034 C 
ENDBRANCH  20  21
ENDBRANCH   1  20
BRANCH  18  23
HETATM   23  N4  UNL     1      24.781   1.289  51.565  1.00  0.00    -0.321 N 
HETATM   24  C18 UNL     1      24.736   0.630  52.821  1.00  0.00     0.245 C 
HETATM   25  O2  UNL     1      23.595   0.554  53.343  1.00  0.00    -0.268 OA
HETATM   26  H21 UNL     1      25.692   1.395  51.067  1.00  0.00     0.169 HD
BRANCH  24  27
HETATM   27  C19 UNL     1      25.916   0.078  53.479  1.00  0.00     0.072 C 
HETATM   28  C20 UNL     1      26.680   0.823  54.225  1.00  0.00     0.008 C 
BRANCH  28  29
HETATM   29  C21 UNL     1      27.888   0.241  54.893  1.00  0.00     0.299 C 
BRANCH  29  30
HETATM   30  N5  UNL     1      29.119   0.811  54.429  1.00  0.00     0.083 N 
HETATM   31  C22 UNL     1      28.962   2.146  53.893  1.00  0.00     0.309 C 
HETATM   32  C23 UNL     1      29.812  -0.091  53.558  1.00  0.00     0.309 C 
ENDBRANCH  29  30
ENDBRANCH  28  29
ENDBRANCH  24  27
ENDBRANCH  18  23
TORSDOF 6
ENDMDL
MODEL 3
REMARK VINA RESULT:      -7.4      6.813      9.719
REMARK  6 active torsions:
REMARK  status: ('A' for Active; 'I' for Inactive)
REMARK    1  A    between atoms: C2_2  and  O1_3 
REMARK    2  A    between atoms: O1_3  and  C3_4 
REMARK    3  A    between atoms: C17_21  and  N4_22 
REMARK       I    between atoms: N4_22  and  C18_23 
REMARK    4  A    between atoms: C18_23  and  C19_25 
REMARK    5  A    between atoms: C20_26  and  C21_27 
REMARK    6  A    between atoms: C21_27  and  N5_28 
ROOT
HETATM    1  C3  UNL     1      22.867   2.811  49.799  1.00  0.00     0.097 C 
HETATM    2  C4  UNL     1      22.698   3.482  48.657  1.00  0.00     0.069 C 
HETATM    3  C5  UNL     1      22.902   4.851  48.192  1.00  0.00     0.074 C 
HETATM    4  N1  UNL     1      22.312   5.221  47.115  1.00  0.00    -0.295 NA
HETATM    5  C6  UNL     1      21.481   4.308  46.403  1.00  0.00     0.178 C 
HETATM    6  C7  UNL     1      23.746   5.911  48.845  1.00  0.00     0.175 C 
HETATM    7  C8  UNL     1      23.841   6.991  47.860  1.00  0.00     0.099 C 
HETATM    8  N2  UNL     1      23.900   7.867  47.078  1.00  0.00    -0.194 NA
HETATM    9  N3  UNL     1      25.120   5.470  49.046  1.00  0.00    -0.372 N 
HETATM   10  C9  UNL     1      26.081   6.386  49.566  1.00  0.00     0.085 C 
HETATM   11  C10 UNL     1      26.006   7.641  50.043  1.00  0.00     0.016 C 
HETATM   12  C11 UNL     1      24.728   8.371  50.112  1.00  0.00    -0.002 C 
HETATM   13  C12 UNL     1      23.462   7.920  50.133  1.00  0.00    -0.013 C 
HETATM   14  C13 UNL     1      23.147   6.441  50.085  1.00  0.00     0.022 C 
HETATM   15  C14 UNL     1      21.626   6.409  49.880  1.00  0.00     0.024 C 
HETATM   16  C15 UNL     1      23.483   5.894  51.385  1.00  0.00     0.046 C 
HETATM   17  C16 UNL     1      23.574   4.467  51.629  1.00  0.00     0.007 C 
HETATM   18  C17 UNL     1      23.365   3.269  51.093  1.00  0.00     0.065 C 
HETATM   19  H10 UNL     1      25.507   4.527  48.849  1.00  0.00     0.161 HD
ENDROOT
BRANCH   1  20
HETATM   20  O1  UNL     1      22.506   1.477  49.705  1.00  0.00    -0.349 OA
BRANCH  20  21
HETATM   21  C2  UNL     1      21.190   1.039  49.469  1.00  0.00     0.171 C 
HETATM   22  C1  UNL     1      20.485   0.659  50.754  1.00  0.00     0.034 C 
ENDBRANCH  20  21
ENDBRANCH   1  20
BRANCH  18  23
HETATM   23  N4  UNL     1      23.672   2.137  51.900  1.00  0.00    -0.321 N 
HETATM   24  C18 UNL     1      25.044   1.790  51.794  1.00  0.00     0.245 C 
HETATM   25  O2  UNL     1      25.722   2.521  51.029  1.00  0.00    -0.268 OA
HETATM   26  H21 UNL     1      23.041   1.578  52.514  1.00  0.00     0.169 HD
BRANCH  24  27
HETATM   27  C19 UNL     1      25.643   0.668  52.510  1.00  0.00     0.072 C 
HETATM   28  C20 UNL     1      26.837   0.240  52.210  1.00  0.00     0.008 C 
BRANCH  28  29
HETATM   29  C21 UNL     1      27.438  -0.912  52.953  1.00  0.00     0.299 C 
BRANCH  29  30
HETATM   30  N5  UNL     1      28.729  -0.617  53.503  1.00  0.00     0.083 N 
HETATM   31  C22 UNL     1      29.626  -1.753  53.491  1.00  0.00     0.309 C 
HETATM   32  C23 UNL     1      28.615   0.024  54.779  1.00  0.00     0.309 C 
ENDBRANCH  29  30
ENDBRANCH  28  29
ENDBRANCH  24  27
ENDBRANCH  18  23
TORSDOF 6
ENDMDL
MODEL 4
REMARK VINA RESULT:      -7.3      8.474     11.974
REMARK  6 active torsions:
REMARK  status: ('A' for Active; 'I' for Inactive)
REMARK    1  A    between atoms: C2_2  and  O1_3 
REMARK    2  A    between atoms: O1_3  and  C3_4 
REMARK    3  A    between atoms: C17_21  and  N4_22 
REMARK       I    between atoms: N4_22  and  C18_23 
REMARK    4  A    between atoms: C18_23  and  C19_25 
REMARK    5  A    between atoms: C20_26  and  C21_27 
REMARK    6  A    between atoms: C21_27  and  N5_28 
ROOT
HETATM    1  C3  UNL     1      22.465   0.836  51.833  1.00  0.00     0.097 C 
HETATM    2  C4  UNL     1      21.208   0.747  51.393  1.00  0.00     0.069 C 
HETATM    3  C5  UNL     1      20.359   1.477  50.456  1.00  0.00     0.074 C 
HETATM    4  N1  UNL     1      19.089   1.312  50.532  1.00  0.00    -0.295 NA
HETATM    5  C6  UNL     1      18.537   0.436  51.511  1.00  0.00     0.178 C 
HETATM    6  C7  UNL     1      20.809   2.430  49.382  1.00  0.00     0.175 C 
HETATM    7  C8  UNL     1      19.622   2.671  48.558  1.00  0.00     0.099 C 
HETATM    8  N2  UNL     1      18.666   2.882  47.908  1.00  0.00    -0.194 NA
HETATM    9  N3  UNL     1      21.772   1.818  48.476  1.00  0.00    -0.372 N 
HETATM   10  C9  UNL     1      22.230   2.551  47.342  1.00  0.00     0.085 C 
HETATM   11  C10 UNL     1      22.045   3.811  46.913  1.00  0.00     0.016 C 
HETATM   12  C11 UNL     1      21.216   4.772  47.660  1.00  0.00    -0.002 C 
HETATM   13  C12 UNL     1      20.850   4.794  48.954  1.00  0.00    -0.013 C 
HETATM   14  C13 UNL     1      21.292   3.716  49.919  1.00  0.00     0.022 C 
HETATM   15  C14 UNL     1      20.458   4.003  51.176  1.00  0.00     0.024 C 
HETATM   16  C15 UNL     1      22.697   3.944  50.195  1.00  0.00     0.046 C 
HETATM   17  C16 UNL     1      23.530   2.959  50.860  1.00  0.00     0.007 C 
HETATM   18  C17 UNL     1      23.517   1.789  51.488  1.00  0.00     0.065 C 
HETATM   19  H10 UNL     1      22.187   0.870  48.557  1.00  0.00     0.161 HD
ENDROOT
BRANCH   1  20
HETATM   20  O1  UNL     1      22.789  -0.144  52.758  1.00  0.00    -0.349 OA
BRANCH  20  21
HETATM   21  C2  UNL     1      21.834  -0.860  53.503  1.00  0.00     0.171 C 
HETATM   22  C1  UNL     1      22.347  -1.214  54.883  1.00  0.00     0.034 C 
ENDBRANCH  20  21
ENDBRANCH   1  20
BRANCH  18  23
HETATM   23  N4  UNL     1      24.766   1.292  51.957  1.00  0.00    -0.321 N 
HETATM   24  C18 UNL     1      25.220   2.028  53.082  1.00  0.00     0.245 C 
HETATM   25  O2  UNL     1      24.462   2.960  53.452  1.00  0.00    -0.268 OA
HETATM   26  H21 UNL     1      25.339   0.503  51.587  1.00  0.00     0.169 HD
BRANCH  24  27
HETATM   27  C19 UNL     1      26.473   1.742  53.772  1.00  0.00     0.072 C 
HETATM   28  C20 UNL     1      26.797   0.524  54.103  1.00  0.00     0.008 C 
BRANCH  28  29
HETATM   29  C21 UNL     1      28.086   0.248  54.812  1.00  0.00     0.299 C 
BRANCH  29  30
HETATM   30  N5  UNL     1      28.945  -0.648  54.093  1.00  0.00     0.083 N 
HETATM   31  C22 UNL     1      30.096   0.009  53.512  1.00  0.00     0.309 C 
HETATM   32  C23 UNL     1      28.200  -1.449  53.167  1.00  0.00     0.309 C 
ENDBRANCH  29  30
ENDBRANCH  28  29
ENDBRANCH  24  27
ENDBRANCH  18  23
TORSDOF 6
ENDMDL
MODEL 5
REMARK VINA RESULT:      -7.2      4.460     11.470
REMARK  6 active torsions:
REMARK  status: ('A' for Active; 'I' for Inactive)
REMARK    1  A    between atoms: C2_2  and  O1_3 
REMARK    2  A    between atoms: O1_3  and  C3_4 
REMARK    3  A    between atoms: C17_21  and  N4_22 
REMARK       I    between atoms: N4_22  and  C18_23 
REMARK    4  A    between atoms: C18_23  and  C19_25 
REMARK    5  A    between atoms: C20_26  and  C21_27 
REMARK    6  A    between atoms: C21_27  and  N5_28 
ROOT
HETATM    1  C3  UNL     1      24.221   2.259  52.232  1.00  0.00     0.097 C 
HETATM    2  C4  UNL     1      23.325   1.313  52.520  1.00  0.00     0.069 C 
HETATM    3  C5  UNL     1      21.941   1.019  52.161  1.00  0.00     0.074 C 
HETATM    4  N1  UNL     1      21.284   0.198  52.896  1.00  0.00    -0.295 NA
HETATM    5  C6  UNL     1      21.903  -0.402  54.031  1.00  0.00     0.178 C 
HETATM    6  C7  UNL     1      21.170   1.582  50.998  1.00  0.00     0.175 C 
HETATM    7  C8  UNL     1      19.949   0.777  50.919  1.00  0.00     0.099 C 
HETATM    8  N2  UNL     1      18.958   0.146  50.867  1.00  0.00    -0.194 NA
HETATM    9  N3  UNL     1      21.849   1.353  49.729  1.00  0.00    -0.372 N 
HETATM   10  C9  UNL     1      21.210   1.737  48.514  1.00  0.00     0.085 C 
HETATM   11  C10 UNL     1      20.074   2.398  48.230  1.00  0.00     0.016 C 
HETATM   12  C11 UNL     1      19.182   2.902  49.288  1.00  0.00    -0.002 C 
HETATM   13  C12 UNL     1      19.427   3.182  50.580  1.00  0.00    -0.013 C 
HETATM   14  C13 UNL     1      20.803   2.998  51.183  1.00  0.00     0.022 C 
HETATM   15  C14 UNL     1      20.559   3.191  52.687  1.00  0.00     0.024 C 
HETATM   16  C15 UNL     1      21.635   4.071  50.675  1.00  0.00     0.046 C 
HETATM   17  C16 UNL     1      23.079   4.069  50.815  1.00  0.00     0.007 C 
HETATM   18  C17 UNL     1      24.104   3.434  51.372  1.00  0.00     0.065 C 
HETATM   19  H10 UNL     1      22.784   0.924  49.592  1.00  0.00     0.161 HD
ENDROOT
BRANCH   1  20
HETATM   20  O1  UNL     1      25.441   2.064  52.861  1.00  0.00    -0.349 OA
BRANCH  20  21
HETATM   21  C2  UNL     1      25.919   0.803  53.262  1.00  0.00     0.171 C 
HETATM   22  C1  UNL     1      26.804   0.175  52.206  1.00  0.00     0.034 C 
ENDBRANCH  20  21
ENDBRANCH   1  20
BRANCH  18  23
HETATM   23  N4  UNL     1      25.404   3.956  51.120  1.00  0.00    -0.321 N 
HETATM   24  C18 UNL     1      25.792   3.737  49.772  1.00  0.00     0.245 C 
HETATM   25  O2  UNL     1      24.943   3.136  49.064  1.00  0.00    -0.268 OA
HETATM   26  H21 UNL     1      26.053   4.447  51.773  1.00  0.00     0.169 HD
BRANCH  24  27
HETATM   27  C19 UNL     1      27.076   4.165  49.229  1.00  0.00     0.072 C 
HETATM   28  C20 UNL     1      27.224   5.349  48.706  1.00  0.00     0.008 C 
BRANCH  28  29
HETATM   29  C21 UNL     1      28.548   5.773  48.151  1.00  0.00     0.299 C 
BRANCH  29  30
HETATM   30  N5  UNL     1      28.720   7.196  48.126  1.00  0.00     0.083 N 
HETATM   31  C22 UNL     1      27.709   7.905  48.880  1.00  0.00     0.309 C 
HETATM   32  C23 UNL     1      28.893   7.674  46.787  1.00  0.00     0.309 C 
ENDBRANCH  29  30
ENDBRANCH  28  29
ENDBRANCH  24  27
ENDBRANCH  18  23
TORSDOF 6
ENDMDL
MODEL 6
REMARK VINA RESULT:      -7.2      6.273     10.726
REMARK  6 active torsions:
REMARK  status: ('A' for Active; 'I' for Inactive)
REMARK    1  A    between atoms: C2_2  and  O1_3 
REMARK    2  A    between atoms: O1_3  and  C3_4 
REMARK    3  A    between atoms: C17_21  and  N4_22 
REMARK       I    between atoms: N4_22  and  C18_23 
REMARK    4  A    between atoms: C18_23  and  C19_25 
REMARK    5  A    between atoms: C20_26  and  C21_27 
REMARK    6  A    between atoms: C21_27  and  N5_28 
ROOT
HETATM    1  C3  UNL     1      24.539   3.788  50.137  1.00  0.00     0.097 C 
HETATM    2  C4  UNL     1      23.836   4.755  49.543  1.00  0.00     0.069 C 
HETATM    3  C5  UNL     1      22.444   4.971  49.160  1.00  0.00     0.074 C 
HETATM    4  N1  UNL     1      22.186   5.886  48.299  1.00  0.00    -0.295 NA
HETATM    5  C6  UNL     1      23.242   6.662  47.739  1.00  0.00     0.178 C 
HETATM    6  C7  UNL     1      21.240   4.226  49.670  1.00  0.00     0.175 C 
HETATM    7  C8  UNL     1      20.084   4.993  49.199  1.00  0.00     0.099 C 
HETATM    8  N2  UNL     1      19.155   5.595  48.805  1.00  0.00    -0.194 NA
HETATM    9  N3  UNL     1      21.146   4.267  51.123  1.00  0.00    -0.372 N 
HETATM   10  C9  UNL     1      20.012   3.692  51.768  1.00  0.00     0.085 C 
HETATM   11  C10 UNL     1      18.957   2.980  51.333  1.00  0.00     0.016 C 
HETATM   12  C11 UNL     1      18.787   2.633  49.912  1.00  0.00    -0.002 C 
HETATM   13  C12 UNL     1      19.685   2.557  48.914  1.00  0.00    -0.013 C 
HETATM   14  C13 UNL     1      21.151   2.850  49.147  1.00  0.00     0.022 C 
HETATM   15  C14 UNL     1      21.734   2.887  47.726  1.00  0.00     0.024 C 
HETATM   16  C15 UNL     1      21.698   1.723  49.877  1.00  0.00     0.046 C 
HETATM   17  C16 UNL     1      23.002   1.766  50.512  1.00  0.00     0.007 C 
HETATM   18  C17 UNL     1      24.104   2.493  50.655  1.00  0.00     0.065 C 
HETATM   19  H10 UNL     1      21.834   4.682  51.780  1.00  0.00     0.161 HD
ENDROOT
BRANCH   1  20
HETATM   20  O1  UNL     1      25.884   4.093  50.266  1.00  0.00    -0.349 OA
BRANCH  20  21
HETATM   21  C2  UNL     1      26.834   3.883  49.249  1.00  0.00     0.171 C 
HETATM   22  C1  UNL     1      27.357   5.188  48.689  1.00  0.00     0.034 C 
ENDBRANCH  20  21
ENDBRANCH   1  20
BRANCH  18  23
HETATM   23  N4  UNL     1      25.131   1.956  51.482  1.00  0.00    -0.321 N 
HETATM   24  C18 UNL     1      24.866   2.204  52.854  1.00  0.00     0.245 C 
HETATM   25  O2  UNL     1      23.805   2.836  53.087  1.00  0.00    -0.268 OA
HETATM   26  H21 UNL     1      25.993   1.437  51.205  1.00  0.00     0.169 HD
BRANCH  24  27
HETATM   27  C19 UNL     1      25.749   1.768  53.931  1.00  0.00     0.072 C 
HETATM   28  C20 UNL     1      26.427   0.659  53.839  1.00  0.00     0.008 C 
BRANCH  28  29
HETATM   29  C21 UNL     1      27.328   0.226  54.953  1.00  0.00     0.299 C 
BRANCH  29  30
HETATM   30  N5  UNL     1      28.702   0.119  54.558  1.00  0.00     0.083 N 
HETATM   31  C22 UNL     1      29.312   1.398  54.265  1.00  0.00     0.309 C 
HETATM   32  C23 UNL     1      28.871  -0.859  53.525  1.00  0.00     0.309 C 
ENDBRANCH  29  30
ENDBRANCH  28  29
ENDBRANCH  24  27
ENDBRANCH  18  23
TORSDOF 6
ENDMDL
MODEL 7
REMARK VINA RESULT:      -6.9      3.158      9.438
REMARK  6 active torsions:
REMARK  status: ('A' for Active; 'I' for Inactive)
REMARK    1  A    between atoms: C2_2  and  O1_3 
REMARK    2  A    between atoms: O1_3  and  C3_4 
REMARK    3  A    between atoms: C17_21  and  N4_22 
REMARK       I    between atoms: N4_22  and  C18_23 
REMARK    4  A    between atoms: C18_23  and  C19_25 
REMARK    5  A    between atoms: C20_26  and  C21_27 
REMARK    6  A    between atoms: C21_27  and  N5_28 
ROOT
HETATM    1  C3  UNL     1      24.445   7.463  50.008  1.00  0.00     0.097 C 
HETATM    2  C4  UNL     1      23.161   7.182  50.239  1.00  0.00     0.069 C 
HETATM    3  C5  UNL     1      22.372   5.988  50.527  1.00  0.00     0.074 C 
HETATM    4  N1  UNL     1      21.101   6.045  50.361  1.00  0.00    -0.295 NA
HETATM    5  C6  UNL     1      20.491   7.249  49.905  1.00  0.00     0.178 C 
HETATM    6  C7  UNL     1      22.887   4.659  51.009  1.00  0.00     0.175 C 
HETATM    7  C8  UNL     1      21.695   3.904  51.405  1.00  0.00     0.099 C 
HETATM    8  N2  UNL     1      20.739   3.289  51.704  1.00  0.00    -0.194 NA
HETATM    9  N3  UNL     1      23.670   4.786  52.232  1.00  0.00    -0.372 N 
HETATM   10  C9  UNL     1      24.153   3.611  52.879  1.00  0.00     0.085 C 
HETATM   11  C10 UNL     1      24.140   2.304  52.564  1.00  0.00     0.016 C 
HETATM   12  C11 UNL     1      23.533   1.812  51.314  1.00  0.00    -0.002 C 
HETATM   13  C12 UNL     1      23.274   2.445  50.158  1.00  0.00    -0.013 C 
HETATM   14  C13 UNL     1      23.609   3.908  49.964  1.00  0.00     0.022 C 
HETATM   15  C14 UNL     1      22.927   4.255  48.632  1.00  0.00     0.024 C 
HETATM   16  C15 UNL     1      25.049   3.998  49.822  1.00  0.00     0.046 C 
HETATM   17  C16 UNL     1      25.760   5.261  49.892  1.00  0.00     0.007 C 
HETATM   18  C17 UNL     1      25.607   6.579  49.963  1.00  0.00     0.065 C 
HETATM   19  H10 UNL     1      23.932   5.667  52.714  1.00  0.00     0.161 HD
ENDROOT
BRANCH   1  20
HETATM   20  O1  UNL     1      24.676   8.810  49.780  1.00  0.00    -0.349 OA
BRANCH  20  21
HETATM   21  C2  UNL     1      24.294   9.480  48.603  1.00  0.00     0.171 C 
HETATM   22  C1  UNL     1      25.376  10.420  48.115  1.00  0.00     0.034 C 
ENDBRANCH  20  21
ENDBRANCH   1  20
BRANCH  18  23
HETATM   23  N4  UNL     1      26.792   7.366  50.008  1.00  0.00    -0.321 N 
HETATM   24  C18 UNL     1      27.417   7.425  48.736  1.00  0.00     0.245 C 
HETATM   25  O2  UNL     1      26.831   6.789  47.823  1.00  0.00    -0.268 OA
HETATM   26  H21 UNL     1      27.216   7.867  50.819  1.00  0.00     0.169 HD
BRANCH  24  27
HETATM   27  C19 UNL     1      28.651   8.161  48.483  1.00  0.00     0.072 C 
HETATM   28  C20 UNL     1      29.815   7.596  48.635  1.00  0.00     0.008 C 
BRANCH  28  29
HETATM   29  C21 UNL     1      31.072   8.365  48.373  1.00  0.00     0.299 C 
BRANCH  29  30
HETATM   30  N5  UNL     1      32.233   7.769  48.966  1.00  0.00     0.083 N 
HETATM   31  C22 UNL     1      33.372   7.729  48.075  1.00  0.00     0.309 C 
HETATM   32  C23 UNL     1      31.918   6.508  49.569  1.00  0.00     0.309 C 
ENDBRANCH  29  30
ENDBRANCH  28  29
ENDBRANCH  24  27
ENDBRANCH  18  23
TORSDOF 6
ENDMDL
MODEL 8
REMARK VINA RESULT:      -6.9      5.067      9.829
REMARK  6 active torsions:
REMARK  status: ('A' for Active; 'I' for Inactive)
REMARK    1  A    between atoms: C2_2  and  O1_3 
REMARK    2  A    between atoms: O1_3  and  C3_4 
REMARK    3  A    between atoms: C17_21  and  N4_22 
REMARK       I    between atoms: N4_22  and  C18_23 
REMARK    4  A    between atoms: C18_23  and  C19_25 
REMARK    5  A    between atoms: C20_26  and  C21_27 
REMARK    6  A    between atoms: C21_27  and  N5_28 
ROOT
HETATM    1  C3  UNL     1      25.321   5.242  49.121  1.00  0.00     0.097 C 
HETATM    2  C4  UNL     1      24.620   6.376  49.064  1.00  0.00     0.069 C 
HETATM    3  C5  UNL     1      23.211   6.756  49.111  1.00  0.00     0.074 C 
HETATM    4  N1  UNL     1      22.882   7.922  48.689  1.00  0.00    -0.295 NA
HETATM    5  C6  UNL     1      23.877   8.811  48.189  1.00  0.00     0.178 C 
HETATM    6  C7  UNL     1      22.066   5.918  49.609  1.00  0.00     0.175 C 
HETATM    7  C8  UNL     1      20.928   6.837  49.703  1.00  0.00     0.099 C 
HETATM    8  N2  UNL     1      20.009   7.567  49.760  1.00  0.00    -0.194 NA
HETATM    9  N3  UNL     1      22.280   5.451  50.972  1.00  0.00    -0.372 N 
HETATM   10  C9  UNL     1      21.249   4.723  51.634  1.00  0.00     0.085 C 
HETATM   11  C10 UNL     1      20.055   4.241  51.245  1.00  0.00     0.016 C 
HETATM   12  C11 UNL     1      19.556   4.417  49.871  1.00  0.00    -0.002 C 
HETATM   13  C12 UNL     1      20.214   4.667  48.725  1.00  0.00    -0.013 C 
HETATM   14  C13 UNL     1      21.719   4.814  48.693  1.00  0.00     0.022 C 
HETATM   15  C14 UNL     1      21.995   5.327  47.272  1.00  0.00     0.024 C 
HETATM   16  C15 UNL     1      22.279   3.487  48.857  1.00  0.00     0.046 C 
HETATM   17  C16 UNL     1      23.683   3.265  49.148  1.00  0.00     0.007 C 
HETATM   18  C17 UNL     1      24.864   3.862  49.265  1.00  0.00     0.065 C 
HETATM   19  H10 UNL     1      23.132   5.589  51.550  1.00  0.00     0.161 HD
ENDROOT
BRANCH   1  20
HETATM   20  O1  UNL     1      26.689   5.441  49.027  1.00  0.00    -0.349 OA
BRANCH  20  21
HETATM   21  C2  UNL     1      27.277   6.671  48.680  1.00  0.00     0.171 C 
HETATM   22  C1  UNL     1      28.578   6.481  47.930  1.00  0.00     0.034 C 
ENDBRANCH  20  21
ENDBRANCH   1  20
BRANCH  18  23
HETATM   23  N4  UNL     1      25.975   3.038  49.602  1.00  0.00    -0.321 N 
HETATM   24  C18 UNL     1      25.957   2.691  50.978  1.00  0.00     0.245 C 
HETATM   25  O2  UNL     1      24.993   3.161  51.634  1.00  0.00    -0.268 OA
HETATM   26  H21 UNL     1      26.743   2.688  48.988  1.00  0.00     0.169 HD
BRANCH  24  27
HETATM   27  C19 UNL     1      26.974   1.855  51.606  1.00  0.00     0.072 C 
HETATM   28  C20 UNL     1      26.661   0.720  52.164  1.00  0.00     0.008 C 
BRANCH  28  29
HETATM   29  C21 UNL     1      27.716  -0.127  52.806  1.00  0.00     0.299 C 
BRANCH  29  30
HETATM   30  N5  UNL     1      27.530  -0.285  54.218  1.00  0.00     0.083 N 
HETATM   31  C22 UNL     1      26.214   0.114  54.669  1.00  0.00     0.309 C 
HETATM   32  C23 UNL     1      28.606   0.312  54.953  1.00  0.00     0.309 C 
ENDBRANCH  29  30
ENDBRANCH  28  29
ENDBRANCH  24  27
ENDBRANCH  18  23
TORSDOF 6
ENDMDL
MODEL 9
REMARK VINA RESULT:      -6.8      3.926     10.140
REMARK  6 active torsions:
REMARK  status: ('A' for Active; 'I' for Inactive)
REMARK    1  A    between atoms: C2_2  and  O1_3 
REMARK    2  A    between atoms: O1_3  and  C3_4 
REMARK    3  A    between atoms: C17_21  and  N4_22 
REMARK       I    between atoms: N4_22  and  C18_23 
REMARK    4  A    between atoms: C18_23  and  C19_25 
REMARK    5  A    between atoms: C20_26  and  C21_27 
REMARK    6  A    between atoms: C21_27  and  N5_28 
ROOT
HETATM    1  C3  UNL     1      24.941   5.588  49.862  1.00  0.00     0.097 C 
HETATM    2  C4  UNL     1      24.108   4.832  49.143  1.00  0.00     0.069 C 
HETATM    3  C5  UNL     1      22.736   4.937  48.654  1.00  0.00     0.074 C 
HETATM    4  N1  UNL     1      22.144   3.865  48.272  1.00  0.00    -0.295 NA
HETATM    5  C6  UNL     1      22.821   2.612  48.331  1.00  0.00     0.178 C 
HETATM    6  C7  UNL     1      21.910   6.189  48.542  1.00  0.00     0.175 C 
HETATM    7  C8  UNL     1      20.736   5.807  47.752  1.00  0.00     0.099 C 
HETATM    8  N2  UNL     1      19.784   5.498  47.136  1.00  0.00    -0.194 NA
HETATM    9  N3  UNL     1      22.574   7.215  47.749  1.00  0.00    -0.372 N 
HETATM   10  C9  UNL     1      21.888   8.431  47.462  1.00  0.00     0.085 C 
HETATM   11  C10 UNL     1      20.710   8.948  47.852  1.00  0.00     0.016 C 
HETATM   12  C11 UNL     1      19.812   8.230  48.773  1.00  0.00    -0.002 C 
HETATM   13  C12 UNL     1      20.067   7.252  49.659  1.00  0.00    -0.013 C 
HETATM   14  C13 UNL     1      21.463   6.702  49.851  1.00  0.00     0.022 C 
HETATM   15  C14 UNL     1      21.240   5.474  50.746  1.00  0.00     0.024 C 
HETATM   16  C15 UNL     1      22.220   7.708  50.571  1.00  0.00     0.046 C 
HETATM   17  C16 UNL     1      23.664   7.652  50.697  1.00  0.00     0.007 C 
HETATM   18  C17 UNL     1      24.736   6.905  50.459  1.00  0.00     0.065 C 
HETATM   19  H10 UNL     1      23.530   7.170  47.348  1.00  0.00     0.161 HD
ENDROOT
BRANCH   1  20
HETATM   20  O1  UNL     1      26.182   5.002  50.051  1.00  0.00    -0.349 OA
BRANCH  20  21
HETATM   21  C2  UNL     1      26.926   4.399  49.020  1.00  0.00     0.171 C 
HETATM   22  C1  UNL     1      27.984   5.332  48.470  1.00  0.00     0.034 C 
ENDBRANCH  20  21
ENDBRANCH   1  20
BRANCH  18  23
HETATM   23  N4  UNL     1      25.998   7.441  50.844  1.00  0.00    -0.321 N 
HETATM   24  C18 UNL     1      26.447   8.413  49.913  1.00  0.00     0.245 C 
HETATM   25  O2  UNL     1      25.674   8.619  48.942  1.00  0.00    -0.268 OA
HETATM   26  H21 UNL     1      26.582   7.212  51.678  1.00  0.00     0.169 HD
BRANCH  24  27
HETATM   27  C19 UNL     1      27.710   9.130  50.050  1.00  0.00     0.072 C 
HETATM   28  C20 UNL     1      28.687   8.938  49.210  1.00  0.00     0.008 C 
BRANCH  28  29
HETATM   29  C21 UNL     1      29.978   9.681  49.365  1.00  0.00     0.299 C 
BRANCH  29  30
HETATM   30  N5  UNL     1      31.080   9.040  48.709  1.00  0.00     0.083 N 
HETATM   31  C22 UNL     1      30.722   8.453  47.436  1.00  0.00     0.309 C 
HETATM   32  C23 UNL     1      31.761   8.144  49.595  1.00  0.00     0.309 C 
ENDBRANCH  29  30
ENDBRANCH  28  29
ENDBRANCH  24  27
ENDBRANCH  18  23
TORSDOF 6
ENDMDL
