MODEL 1
REMARK VINA RESULT:      -7.5      0.000      0.000
REMARK  3 active torsions:
REMARK  status: ('A' for Active; 'I' for Inactive)
REMARK    1  A    between atoms: O1_2  and  C2_3 
REMARK    2  A    between atoms: C9_10  and  C10_11 
REMARK    3  A    between atoms: C11_12  and  C12_13 
ROOT
HETATM    1  C2  UNL     1      17.755   3.142  51.149  1.00  0.00     0.067 C 
HETATM    2  C3  UNL     1      16.630   3.539  50.433  1.00  0.00     0.106 C 
HETATM    3  C4  UNL     1      16.263   2.641  49.230  1.00  0.00     0.035 C 
HETATM    4  C5  UNL     1      16.525   1.264  49.735  1.00  0.00    -0.026 C 
HETATM    5  C6  UNL     1      16.536  -0.096  50.120  1.00  0.00    -0.008 C 
HETATM    6  C7  UNL     1      17.797  -0.461  50.859  1.00  0.00    -0.019 C 
HETATM    7  C8  UNL     1      18.905   0.115  51.323  1.00  0.00     0.063 C 
HETATM    8  C9  UNL     1      19.612   1.382  51.442  1.00  0.00     0.203 C 
HETATM    9  N1  UNL     1      20.631   1.604  50.523  1.00  0.00     0.102 N 
HETATM   10  C16 UNL     1      20.451   1.351  49.123  1.00  0.00     0.298 C 
HETATM   11  C17 UNL     1      21.664   1.879  48.374  1.00  0.00     0.003 C 
HETATM   12  C18 UNL     1      22.476   2.667  49.002  1.00  0.00    -0.000 C 
HETATM   13  C19 UNL     1      22.871   3.397  50.163  1.00  0.00     0.026 C 
HETATM   14  C20 UNL     1      22.351   3.578  51.358  1.00  0.00     0.160 C 
HETATM   15  O4  UNL     1      21.192   3.173  52.081  1.00  0.00    -0.276 OA
HETATM   16  N2  UNL     1      19.982   3.698  51.668  1.00  0.00    -0.191 NA
HETATM   17  C21 UNL     1      18.969   2.657  51.868  1.00  0.00     0.156 C 
HETATM   18  H18 UNL     1      21.475   0.986  50.838  1.00  0.00     0.317 HD
HETATM   19  H25 UNL     1      19.800   4.506  52.316  1.00  0.00     0.154 HD
ENDROOT
BRANCH   8  20
HETATM   20  C10 UNL     1      20.529   1.062  52.752  1.00  0.00     0.020 C 
HETATM   21  C11 UNL     1      21.403   0.061  52.763  1.00  0.00     0.037 C 
BRANCH  21  22
HETATM   22  C12 UNL     1      22.381  -0.519  53.733  1.00  0.00     0.090 C 
HETATM   23  C13 UNL     1      22.026  -0.932  54.913  1.00  0.00     0.171 C 
HETATM   24  O2  UNL     1      22.977  -1.458  55.764  1.00  0.00    -0.358 OA
HETATM   25  C14 UNL     1      24.353  -1.416  55.522  1.00  0.00     0.201 C 
HETATM   26  C15 UNL     1      24.699  -0.558  54.356  1.00  0.00     0.202 C 
HETATM   27  O3  UNL     1      23.699  -0.614  53.356  1.00  0.00    -0.347 OA
ENDBRANCH  21  22
ENDBRANCH   8  20
BRANCH   1  28
HETATM   28  O1  UNL     1      17.401   4.334  51.918  1.00  0.00    -0.388 OA
HETATM   29  C1  UNL     1      16.074   4.297  52.399  1.00  0.00     0.202 C 
ENDBRANCH   1  28
TORSDOF 3
ENDMDL
MODEL 2
REMARK VINA RESULT:      -7.3     11.178     14.682
REMARK  3 active torsions:
REMARK  status: ('A' for Active; 'I' for Inactive)
REMARK    1  A    between atoms: O1_2  and  C2_3 
REMARK    2  A    between atoms: C9_10  and  C10_11 
REMARK    3  A    between atoms: C11_12  and  C12_13 
ROOT
HETATM    1  C2  UNL     1      33.368   5.157  44.774  1.00  0.00     0.067 C 
HETATM    2  C3  UNL     1      34.361   4.373  44.194  1.00  0.00     0.106 C 
HETATM    3  C4  UNL     1      35.381   3.763  45.182  1.00  0.00     0.035 C 
HETATM    4  C5  UNL     1      34.539   3.369  46.347  1.00  0.00    -0.026 C 
HETATM    5  C6  UNL     1      33.866   2.766  47.432  1.00  0.00    -0.008 C 
HETATM    6  C7  UNL     1      32.831   3.684  48.031  1.00  0.00    -0.019 C 
HETATM    7  C8  UNL     1      32.300   4.888  47.824  1.00  0.00     0.063 C 
HETATM    8  C9  UNL     1      32.331   6.054  46.954  1.00  0.00     0.203 C 
HETATM    9  N1  UNL     1      33.059   7.144  47.417  1.00  0.00     0.102 N 
HETATM   10  C16 UNL     1      34.374   6.994  47.967  1.00  0.00     0.298 C 
HETATM   11  C17 UNL     1      34.969   8.375  48.188  1.00  0.00     0.003 C 
HETATM   12  C18 UNL     1      34.387   9.388  47.634  1.00  0.00    -0.000 C 
HETATM   13  C19 UNL     1      33.364   9.957  46.816  1.00  0.00     0.026 C 
HETATM   14  C20 UNL     1      32.365   9.464  46.116  1.00  0.00     0.160 C 
HETATM   15  O4  UNL     1      31.812   8.186  45.815  1.00  0.00    -0.276 OA
HETATM   16  N2  UNL     1      32.560   7.355  45.003  1.00  0.00    -0.191 NA
HETATM   17  C21 UNL     1      32.335   5.981  45.466  1.00  0.00     0.156 C 
HETATM   18  H18 UNL     1      32.454   7.614  48.196  1.00  0.00     0.317 HD
HETATM   19  H25 UNL     1      32.157   7.480  44.040  1.00  0.00     0.154 HD
ENDROOT
BRANCH   8  20
HETATM   20  C10 UNL     1      30.829   6.632  47.218  1.00  0.00     0.020 C 
HETATM   21  C11 UNL     1      29.901   5.906  47.832  1.00  0.00     0.037 C 
BRANCH  21  22
HETATM   22  C12 UNL     1      28.473   6.084  48.239  1.00  0.00     0.090 C 
HETATM   23  C13 UNL     1      27.712   5.080  48.556  1.00  0.00     0.171 C 
HETATM   24  O2  UNL     1      26.401   5.310  48.922  1.00  0.00    -0.358 OA
HETATM   25  C14 UNL     1      25.760   6.546  48.804  1.00  0.00     0.201 C 
HETATM   26  C15 UNL     1      26.572   7.537  48.044  1.00  0.00     0.202 C 
HETATM   27  O3  UNL     1      27.957   7.357  48.274  1.00  0.00    -0.347 OA
ENDBRANCH  21  22
ENDBRANCH   8  20
BRANCH   1  28
HETATM   28  O1  UNL     1      32.969   5.280  43.373  1.00  0.00    -0.388 OA
HETATM   29  C1  UNL     1      34.071   5.281  42.492  1.00  0.00     0.202 C 
ENDBRANCH   1  28
TORSDOF 3
ENDMDL
MODEL 3
REMARK VINA RESULT:      -7.3      1.547      2.074
REMARK  3 active torsions:
REMARK  status: ('A' for Active; 'I' for Inactive)
REMARK    1  A    between atoms: O1_2  and  C2_3 
REMARK    2  A    between atoms: C9_10  and  C10_11 
REMARK    3  A    between atoms: C11_12  and  C12_13 
ROOT
HETATM    1  C2  UNL     1      18.543   2.884  51.429  1.00  0.00     0.067 C 
HETATM    2  C3  UNL     1      17.216   2.821  51.015  1.00  0.00     0.106 C 
HETATM    3  C4  UNL     1      16.812   1.516  50.293  1.00  0.00     0.035 C 
HETATM    4  C5  UNL     1      17.529   0.460  51.062  1.00  0.00    -0.026 C 
HETATM    5  C6  UNL     1      17.976  -0.662  51.794  1.00  0.00    -0.008 C 
HETATM    6  C7  UNL     1      19.428  -0.540  52.177  1.00  0.00    -0.019 C 
HETATM    7  C8  UNL     1      20.432   0.332  52.091  1.00  0.00     0.063 C 
HETATM    8  C9  UNL     1      20.801   1.659  51.620  1.00  0.00     0.203 C 
HETATM    9  N1  UNL     1      21.478   1.712  50.406  1.00  0.00     0.102 N 
HETATM   10  C16 UNL     1      21.036   0.966  49.264  1.00  0.00     0.298 C 
HETATM   11  C17 UNL     1      21.859   1.392  48.059  1.00  0.00     0.003 C 
HETATM   12  C18 UNL     1      22.570   2.469  48.152  1.00  0.00    -0.000 C 
HETATM   13  C19 UNL     1      23.034   3.609  48.875  1.00  0.00     0.026 C 
HETATM   14  C20 UNL     1      22.789   4.104  50.070  1.00  0.00     0.160 C 
HETATM   15  O4  UNL     1      21.979   3.792  51.200  1.00  0.00    -0.276 OA
HETATM   16  N2  UNL     1      20.613   3.938  51.051  1.00  0.00    -0.191 NA
HETATM   17  C21 UNL     1      19.976   2.880  51.843  1.00  0.00     0.156 C 
HETATM   18  H18 UNL     1      22.501   1.386  50.606  1.00  0.00     0.317 HD
HETATM   19  H25 UNL     1      20.393   4.879  51.466  1.00  0.00     0.154 HD
ENDROOT
BRANCH   8  20
HETATM   20  C10 UNL     1      22.056   1.963  52.614  1.00  0.00     0.020 C 
HETATM   21  C11 UNL     1      23.157   1.220  52.595  1.00  0.00     0.037 C 
BRANCH  21  22
HETATM   22  C12 UNL     1      24.463   1.189  53.322  1.00  0.00     0.090 C 
HETATM   23  C13 UNL     1      25.207   2.245  53.456  1.00  0.00     0.171 C 
HETATM   24  O2  UNL     1      26.403   2.152  54.138  1.00  0.00    -0.358 OA
HETATM   25  C14 UNL     1      26.977   0.947  54.552  1.00  0.00     0.201 C 
HETATM   26  C15 UNL     1      26.271  -0.239  53.995  1.00  0.00     0.202 C 
HETATM   27  O3  UNL     1      24.882  -0.002  53.864  1.00  0.00    -0.347 OA
ENDBRANCH  21  22
ENDBRANCH   8  20
BRANCH   1  28
HETATM   28  O1  UNL     1      18.094   4.193  51.898  1.00  0.00    -0.388 OA
HETATM   29  C1  UNL     1      16.689   4.329  51.869  1.00  0.00     0.202 C 
ENDBRANCH   1  28
TORSDOF 3
ENDMDL
MODEL 4
REMARK VINA RESULT:      -7.2     10.070     13.258
REMARK  3 active torsions:
REMARK  status: ('A' for Active; 'I' for Inactive)
REMARK    1  A    between atoms: O1_2  and  C2_3 
REMARK    2  A    between atoms: C9_10  and  C10_11 
REMARK    3  A    between atoms: C11_12  and  C12_13 
ROOT
HETATM    1  C2  UNL     1      29.101   9.896  46.439  1.00  0.00     0.067 C 
HETATM    2  C3  UNL     1      28.700  11.090  45.846  1.00  0.00     0.106 C 
HETATM    3  C4  UNL     1      28.392  12.242  46.828  1.00  0.00     0.035 C 
HETATM    4  C5  UNL     1      29.454  12.106  47.865  1.00  0.00    -0.026 C 
HETATM    5  C6  UNL     1      30.495  12.232  48.811  1.00  0.00    -0.008 C 
HETATM    6  C7  UNL     1      30.851  10.908  49.435  1.00  0.00    -0.019 C 
HETATM    7  C8  UNL     1      30.527   9.619  49.338  1.00  0.00     0.063 C 
HETATM    8  C9  UNL     1      29.689   8.667  48.624  1.00  0.00     0.203 C 
HETATM    9  N1  UNL     1      28.528   8.265  49.274  1.00  0.00     0.102 N 
HETATM   10  C16 UNL     1      27.651   9.210  49.904  1.00  0.00     0.298 C 
HETATM   11  C17 UNL     1      26.389   8.484  50.341  1.00  0.00     0.003 C 
HETATM   12  C18 UNL     1      26.171   7.298  49.872  1.00  0.00    -0.000 C 
HETATM   13  C19 UNL     1      26.530   6.185  49.053  1.00  0.00     0.026 C 
HETATM   14  C20 UNL     1      27.518   5.936  48.220  1.00  0.00     0.160 C 
HETATM   15  O4  UNL     1      28.675   6.601  47.720  1.00  0.00    -0.276 OA
HETATM   16  N2  UNL     1      28.464   7.672  46.874  1.00  0.00    -0.191 NA
HETATM   17  C21 UNL     1      29.523   8.651  47.143  1.00  0.00     0.156 C 
HETATM   18  H18 UNL     1      28.834   7.566  50.056  1.00  0.00     0.317 HD
HETATM   19  H25 UNL     1      28.576   7.280  45.904  1.00  0.00     0.154 HD
ENDROOT
BRANCH   8  20
HETATM   20  C10 UNL     1      30.571   7.312  48.838  1.00  0.00     0.020 C 
HETATM   21  C11 UNL     1      31.824   7.220  48.405  1.00  0.00     0.037 C 
BRANCH  21  22
HETATM   22  C12 UNL     1      32.905   6.188  48.414  1.00  0.00     0.090 C 
HETATM   23  C13 UNL     1      34.153   6.493  48.612  1.00  0.00     0.171 C 
HETATM   24  O2  UNL     1      35.105   5.494  48.608  1.00  0.00    -0.358 OA
HETATM   25  C14 UNL     1      34.854   4.174  48.222  1.00  0.00     0.201 C 
HETATM   26  C15 UNL     1      33.506   4.006  47.614  1.00  0.00     0.202 C 
HETATM   27  O3  UNL     1      32.558   4.875  48.205  1.00  0.00    -0.347 OA
ENDBRANCH  21  22
ENDBRANCH   8  20
BRANCH   1  28
HETATM   28  O1  UNL     1      29.150   9.485  45.036  1.00  0.00    -0.388 OA
HETATM   29  C1  UNL     1      30.411   9.716  44.446  1.00  0.00     0.202 C 
ENDBRANCH   1  28
TORSDOF 3
ENDMDL
MODEL 5
REMARK VINA RESULT:      -7.2      3.129      4.663
REMARK  3 active torsions:
REMARK  status: ('A' for Active; 'I' for Inactive)
REMARK    1  A    between atoms: O1_2  and  C2_3 
REMARK    2  A    between atoms: C9_10  and  C10_11 
REMARK    3  A    between atoms: C11_12  and  C12_13 
ROOT
HETATM    1  C2  UNL     1      20.876   3.843  50.849  1.00  0.00     0.067 C 
HETATM    2  C3  UNL     1      19.526   3.710  50.536  1.00  0.00     0.106 C 
HETATM    3  C4  UNL     1      19.202   3.656  49.025  1.00  0.00     0.035 C 
HETATM    4  C5  UNL     1      20.306   2.826  48.465  1.00  0.00    -0.026 C 
HETATM    5  C6  UNL     1      21.161   1.908  47.816  1.00  0.00    -0.008 C 
HETATM    6  C7  UNL     1      22.606   2.134  48.175  1.00  0.00    -0.019 C 
HETATM    7  C8  UNL     1      23.347   2.906  48.969  1.00  0.00     0.063 C 
HETATM    8  C9  UNL     1      23.291   3.968  49.963  1.00  0.00     0.203 C 
HETATM    9  N1  UNL     1      23.567   5.251  49.505  1.00  0.00     0.102 N 
HETATM   10  C16 UNL     1      22.975   5.766  48.304  1.00  0.00     0.298 C 
HETATM   11  C17 UNL     1      23.315   7.243  48.191  1.00  0.00     0.003 C 
HETATM   12  C18 UNL     1      23.792   7.844  49.232  1.00  0.00    -0.000 C 
HETATM   13  C19 UNL     1      24.205   7.851  50.598  1.00  0.00     0.026 C 
HETATM   14  C20 UNL     1      24.218   6.954  51.561  1.00  0.00     0.160 C 
HETATM   15  O4  UNL     1      23.847   5.591  51.744  1.00  0.00    -0.276 OA
HETATM   16  N2  UNL     1      22.495   5.304  51.734  1.00  0.00    -0.191 NA
HETATM   17  C21 UNL     1      22.338   3.986  51.108  1.00  0.00     0.156 C 
HETATM   18  H18 UNL     1      24.648   5.304  49.359  1.00  0.00     0.317 HD
HETATM   19  H25 UNL     1      22.219   5.256  52.748  1.00  0.00     0.154 HD
ENDROOT
BRANCH   8  20
HETATM   20  C10 UNL     1      24.691   3.682  50.748  1.00  0.00     0.020 C 
HETATM   21  C11 UNL     1      25.067   2.450  51.076  1.00  0.00     0.037 C 
BRANCH  21  22
HETATM   22  C12 UNL     1      26.231   1.816  51.768  1.00  0.00     0.090 C 
HETATM   23  C13 UNL     1      26.211   0.579  52.166  1.00  0.00     0.171 C 
HETATM   24  O2  UNL     1      27.317   0.052  52.801  1.00  0.00    -0.358 OA
HETATM   25  C14 UNL     1      28.415   0.809  53.219  1.00  0.00     0.201 C 
HETATM   26  C15 UNL     1      28.175   2.273  53.101  1.00  0.00     0.202 C 
HETATM   27  O3  UNL     1      27.355   2.575  51.987  1.00  0.00    -0.347 OA
ENDBRANCH  21  22
ENDBRANCH   8  20
BRANCH   1  28
HETATM   28  O1  UNL     1      20.326   3.819  52.203  1.00  0.00    -0.388 OA
HETATM   29  C1  UNL     1      20.251   2.514  52.736  1.00  0.00     0.202 C 
ENDBRANCH   1  28
TORSDOF 3
ENDMDL
MODEL 6
REMARK VINA RESULT:      -7.2      4.127      6.849
REMARK  3 active torsions:
REMARK  status: ('A' for Active; 'I' for Inactive)
REMARK    1  A    between atoms: O1_2  and  C2_3 
REMARK    2  A    between atoms: C9_10  and  C10_11 
REMARK    3  A    between atoms: C11_12  and  C12_13 
ROOT
HETATM    1  C2  UNL     1      22.404   3.367  51.673  1.00  0.00     0.067 C 
HETATM    2  C3  UNL     1      21.732   2.380  52.388  1.00  0.00     0.106 C 
HETATM    3  C4  UNL     1      20.639   1.624  51.600  1.00  0.00     0.035 C 
HETATM    4  C5  UNL     1      21.244   1.452  50.249  1.00  0.00    -0.026 C 
HETATM    5  C6  UNL     1      21.745   1.041  48.993  1.00  0.00    -0.008 C 
HETATM    6  C7  UNL     1      22.427   2.168  48.263  1.00  0.00    -0.019 C 
HETATM    7  C8  UNL     1      22.764   3.444  48.451  1.00  0.00     0.063 C 
HETATM    8  C9  UNL     1      22.725   4.543  49.404  1.00  0.00     0.203 C 
HETATM    9  N1  UNL     1      21.723   5.487  49.209  1.00  0.00     0.102 N 
HETATM   10  C16 UNL     1      20.366   5.104  48.951  1.00  0.00     0.298 C 
HETATM   11  C17 UNL     1      19.495   6.350  48.986  1.00  0.00     0.003 C 
HETATM   12  C18 UNL     1      19.996   7.433  49.484  1.00  0.00    -0.000 C 
HETATM   13  C19 UNL     1      21.060   8.157  50.102  1.00  0.00     0.026 C 
HETATM   14  C20 UNL     1      22.267   7.841  50.520  1.00  0.00     0.160 C 
HETATM   15  O4  UNL     1      23.098   6.685  50.581  1.00  0.00    -0.276 OA
HETATM   16  N2  UNL     1      22.723   5.690  51.462  1.00  0.00    -0.191 NA
HETATM   17  C21 UNL     1      23.080   4.408  50.845  1.00  0.00     0.156 C 
HETATM   18  H18 UNL     1      22.034   6.099  48.359  1.00  0.00     0.317 HD
HETATM   19  H25 UNL     1      23.309   5.851  52.321  1.00  0.00     0.154 HD
ENDROOT
BRANCH   8  20
HETATM   20  C10 UNL     1      23.993   5.416  48.867  1.00  0.00     0.020 C 
HETATM   21  C11 UNL     1      25.243   4.985  49.003  1.00  0.00     0.037 C 
BRANCH  21  22
HETATM   22  C12 UNL     1      26.609   5.482  48.653  1.00  0.00     0.090 C 
HETATM   23  C13 UNL     1      27.665   4.732  48.749  1.00  0.00     0.171 C 
HETATM   24  O2  UNL     1      28.899   5.250  48.412  1.00  0.00    -0.358 OA
HETATM   25  C14 UNL     1      29.134   6.600  48.139  1.00  0.00     0.201 C 
HETATM   26  C15 UNL     1      27.960   7.457  48.457  1.00  0.00     0.202 C 
HETATM   27  O3  UNL     1      26.741   6.778  48.215  1.00  0.00    -0.347 OA
ENDBRANCH  21  22
ENDBRANCH   8  20
BRANCH   1  28
HETATM   28  O1  UNL     1      23.088   3.507  52.957  1.00  0.00    -0.388 OA
HETATM   29  C1  UNL     1      24.256   2.719  53.040  1.00  0.00     0.202 C 
ENDBRANCH   1  28
TORSDOF 3
ENDMDL
MODEL 7
REMARK VINA RESULT:      -7.1      3.161      5.662
REMARK  3 active torsions:
REMARK  status: ('A' for Active; 'I' for Inactive)
REMARK    1  A    between atoms: O1_2  and  C2_3 
REMARK    2  A    between atoms: C9_10  and  C10_11 
REMARK    3  A    between atoms: C11_12  and  C12_13 
ROOT
HETATM    1  C2  UNL     1      22.567   4.149  48.560  1.00  0.00     0.067 C 
HETATM    2  C3  UNL     1      22.069   5.156  47.738  1.00  0.00     0.106 C 
HETATM    3  C4  UNL     1      21.490   6.383  48.477  1.00  0.00     0.035 C 
HETATM    4  C5  UNL     1      22.436   6.582  49.611  1.00  0.00    -0.026 C 
HETATM    5  C6  UNL     1      23.335   7.020  50.609  1.00  0.00    -0.008 C 
HETATM    6  C7  UNL     1      23.805   5.884  51.480  1.00  0.00    -0.019 C 
HETATM    7  C8  UNL     1      23.682   4.560  51.577  1.00  0.00     0.063 C 
HETATM    8  C9  UNL     1      23.075   3.387  50.967  1.00  0.00     0.203 C 
HETATM    9  N1  UNL     1      21.918   2.911  51.573  1.00  0.00     0.102 N 
HETATM   10  C16 UNL     1      20.850   3.789  51.951  1.00  0.00     0.298 C 
HETATM   11  C17 UNL     1      19.664   2.948  52.394  1.00  0.00     0.003 C 
HETATM   12  C18 UNL     1      19.672   1.684  52.119  1.00  0.00    -0.000 C 
HETATM   13  C19 UNL     1      20.277   0.529  51.538  1.00  0.00     0.026 C 
HETATM   14  C20 UNL     1      21.378   0.314  50.850  1.00  0.00     0.160 C 
HETATM   15  O4  UNL     1      22.477   1.069  50.346  1.00  0.00    -0.276 OA
HETATM   16  N2  UNL     1      22.212   1.948  49.313  1.00  0.00    -0.191 NA
HETATM   17  C21 UNL     1      23.082   3.113  49.502  1.00  0.00     0.156 C 
HETATM   18  H18 UNL     1      22.232   2.401  52.486  1.00  0.00     0.317 HD
HETATM   19  H25 UNL     1      22.487   1.432  48.439  1.00  0.00     0.154 HD
ENDROOT
BRANCH   8  20
HETATM   20  C10 UNL     1      24.113   2.241  51.487  1.00  0.00     0.020 C 
HETATM   21  C11 UNL     1      25.385   2.520  51.749  1.00  0.00     0.037 C 
BRANCH  21  22
HETATM   22  C12 UNL     1      26.588   1.770  52.223  1.00  0.00     0.090 C 
HETATM   23  C13 UNL     1      26.579   0.482  52.397  1.00  0.00     0.171 C 
HETATM   24  O2  UNL     1      27.722  -0.152  52.838  1.00  0.00    -0.358 OA
HETATM   25  C14 UNL     1      28.862   0.515  53.294  1.00  0.00     0.201 C 
HETATM   26  C15 UNL     1      28.638   1.978  53.456  1.00  0.00     0.202 C 
HETATM   27  O3  UNL     1      27.739   2.475  52.482  1.00  0.00    -0.347 OA
ENDBRANCH  21  22
ENDBRANCH   8  20
BRANCH   1  28
HETATM   28  O1  UNL     1      22.833   3.537  47.259  1.00  0.00    -0.388 OA
HETATM   29  C1  UNL     1      21.732   3.625  46.381  1.00  0.00     0.202 C 
ENDBRANCH   1  28
TORSDOF 3
ENDMDL
MODEL 8
REMARK VINA RESULT:      -7.1      9.681     12.884
REMARK  3 active torsions:
REMARK  status: ('A' for Active; 'I' for Inactive)
REMARK    1  A    between atoms: O1_2  and  C2_3 
REMARK    2  A    between atoms: C9_10  and  C10_11 
REMARK    3  A    between atoms: C11_12  and  C12_13 
ROOT
HETATM    1  C2  UNL     1      30.829   9.981  47.903  1.00  0.00     0.067 C 
HETATM    2  C3  UNL     1      31.197  11.247  47.458  1.00  0.00     0.106 C 
HETATM    3  C4  UNL     1      31.359  11.385  45.928  1.00  0.00     0.035 C 
HETATM    4  C5  UNL     1      30.235  10.571  45.386  1.00  0.00    -0.026 C 
HETATM    5  C6  UNL     1      29.121  10.009  44.724  1.00  0.00    -0.008 C 
HETATM    6  C7  UNL     1      28.803   8.627  45.233  1.00  0.00    -0.019 C 
HETATM    7  C8  UNL     1      29.212   7.770  46.167  1.00  0.00     0.063 C 
HETATM    8  C9  UNL     1      30.158   7.580  47.257  1.00  0.00     0.203 C 
HETATM    9  N1  UNL     1      31.291   6.830  46.960  1.00  0.00     0.102 N 
HETATM   10  C16 UNL     1      32.058   7.061  45.771  1.00  0.00     0.298 C 
HETATM   11  C17 UNL     1      33.327   6.228  45.843  1.00  0.00     0.003 C 
HETATM   12  C18 UNL     1      33.653   5.704  46.979  1.00  0.00    -0.000 C 
HETATM   13  C19 UNL     1      33.425   5.480  48.371  1.00  0.00     0.026 C 
HETATM   14  C20 UNL     1      32.519   5.890  49.233  1.00  0.00     0.160 C 
HETATM   15  O4  UNL     1      31.363   6.723  49.239  1.00  0.00    -0.276 OA
HETATM   16  N2  UNL     1      31.568   8.079  49.077  1.00  0.00    -0.191 NA
HETATM   17  C21 UNL     1      30.433   8.600  48.307  1.00  0.00     0.156 C 
HETATM   18  H18 UNL     1      30.972   5.786  46.919  1.00  0.00     0.317 HD
HETATM   19  H25 UNL     1      31.553   8.475  50.052  1.00  0.00     0.154 HD
ENDROOT
BRANCH   8  20
HETATM   20  C10 UNL     1      29.349   6.466  48.130  1.00  0.00     0.020 C 
HETATM   21  C11 UNL     1      28.021   6.427  48.152  1.00  0.00     0.037 C 
BRANCH  21  22
HETATM   22  C12 UNL     1      26.967   5.591  48.804  1.00  0.00     0.090 C 
HETATM   23  C13 UNL     1      25.881   6.105  49.298  1.00  0.00     0.171 C 
HETATM   24  O2  UNL     1      24.946   5.279  49.889  1.00  0.00    -0.358 OA
HETATM   25  C14 UNL     1      25.159   3.926  50.165  1.00  0.00     0.201 C 
HETATM   26  C15 UNL     1      26.575   3.518  49.950  1.00  0.00     0.202 C 
HETATM   27  O3  UNL     1      27.164   4.233  48.879  1.00  0.00    -0.347 OA
ENDBRANCH  21  22
ENDBRANCH   8  20
BRANCH   1  28
HETATM   28  O1  UNL     1      30.908  10.664  49.193  1.00  0.00    -0.388 OA
HETATM   29  C1  UNL     1      30.384  11.974  49.148  1.00  0.00     0.202 C 
ENDBRANCH   1  28
TORSDOF 3
ENDMDL
MODEL 9
REMARK VINA RESULT:      -7.0      3.678      8.087
REMARK  3 active torsions:
REMARK  status: ('A' for Active; 'I' for Inactive)
REMARK    1  A    between atoms: O1_2  and  C2_3 
REMARK    2  A    between atoms: C9_10  and  C10_11 
REMARK    3  A    between atoms: C11_12  and  C12_13 
ROOT
HETATM    1  C2  UNL     1      24.690   3.072  51.984  1.00  0.00     0.067 C 
HETATM    2  C3  UNL     1      25.822   2.285  52.176  1.00  0.00     0.106 C 
HETATM    3  C4  UNL     1      26.582   1.898  50.887  1.00  0.00     0.035 C 
HETATM    4  C5  UNL     1      26.522   3.140  50.065  1.00  0.00    -0.026 C 
HETATM    5  C6  UNL     1      26.722   4.280  49.256  1.00  0.00    -0.008 C 
HETATM    6  C7  UNL     1      25.449   5.063  49.064  1.00  0.00    -0.019 C 
HETATM    7  C8  UNL     1      24.179   5.053  49.467  1.00  0.00     0.063 C 
HETATM    8  C9  UNL     1      23.216   4.353  50.304  1.00  0.00     0.203 C 
HETATM    9  N1  UNL     1      22.362   3.472  49.650  1.00  0.00     0.102 N 
HETATM   10  C16 UNL     1      22.846   2.529  48.685  1.00  0.00     0.298 C 
HETATM   11  C17 UNL     1      21.710   1.592  48.310  1.00  0.00     0.003 C 
HETATM   12  C18 UNL     1      20.651   1.585  49.052  1.00  0.00    -0.000 C 
HETATM   13  C19 UNL     1      19.905   2.041  50.181  1.00  0.00     0.026 C 
HETATM   14  C20 UNL     1      20.146   2.881  51.165  1.00  0.00     0.160 C 
HETATM   15  O4  UNL     1      21.209   3.722  51.604  1.00  0.00    -0.276 OA
HETATM   16  N2  UNL     1      22.339   3.096  52.095  1.00  0.00    -0.191 NA
HETATM   17  C21 UNL     1      23.492   3.915  51.702  1.00  0.00     0.156 C 
HETATM   18  H18 UNL     1      21.621   4.085  49.132  1.00  0.00     0.317 HD
HETATM   19  H25 UNL     1      22.227   3.113  53.140  1.00  0.00     0.154 HD
ENDROOT
BRANCH   8  20
HETATM   20  C10 UNL     1      22.159   5.564  50.577  1.00  0.00     0.020 C 
HETATM   21  C11 UNL     1      22.007   6.563  49.714  1.00  0.00     0.037 C 
BRANCH  21  22
HETATM   22  C12 UNL     1      21.173   7.800  49.619  1.00  0.00     0.090 C 
HETATM   23  C13 UNL     1      19.875   7.764  49.611  1.00  0.00     0.171 C 
HETATM   24  O2  UNL     1      19.162   8.942  49.520  1.00  0.00    -0.358 OA
HETATM   25  C14 UNL     1      19.737  10.186  49.249  1.00  0.00     0.201 C 
HETATM   26  C15 UNL     1      21.169  10.078  48.858  1.00  0.00     0.202 C 
HETATM   27  O3  UNL     1      21.812   9.014  49.536  1.00  0.00    -0.347 OA
ENDBRANCH  21  22
ENDBRANCH   8  20
BRANCH   1  28
HETATM   28  O1  UNL     1      24.642   2.951  53.440  1.00  0.00    -0.388 OA
HETATM   29  C1  UNL     1      25.738   2.232  53.963  1.00  0.00     0.202 C 
ENDBRANCH   1  28
TORSDOF 3
ENDMDL
