MODEL 1
REMARK VINA RESULT:      -7.5      0.000      0.000
REMARK  11 active torsions:
REMARK  status: ('A' for Active; 'I' for Inactive)
REMARK    1  A    between atoms: C2_2  and  C3_3 
REMARK       I    between atoms: C3_3  and  N1_5 
REMARK    2  A    between atoms: N1_5  and  C4_6 
REMARK    3  A    between atoms: C4_6  and  C14_19 
REMARK    4  A    between atoms: C5_7  and  C6_8 
REMARK    5  A    between atoms: C6_8  and  C7_9 
REMARK    6  A    between atoms: C8_10  and  C9_11 
REMARK    7  A    between atoms: C9_11  and  C10_12 
REMARK    8  A    between atoms: C10_12  and  N2_13 
REMARK    9  A    between atoms: C14_19  and  N4_20 
REMARK   10  A    between atoms: N4_20  and  C15_21 
REMARK   11  A    between atoms: C18_25  and  N5_26 
ROOT
HETATM    1  C4  UNL     1      25.993   0.201  53.089  1.00  0.00     0.026 C 
HETATM    2  C5  UNL     1      25.716   1.232  52.272  1.00  0.00     0.006 C 
ENDROOT
BRANCH   1   3
HETATM    3  N1  UNL     1      27.346   0.041  52.707  1.00  0.00    -0.326 N 
HETATM    4  C3  UNL     1      28.225   0.292  53.797  1.00  0.00     0.244 C 
HETATM    5  O1  UNL     1      27.785   0.609  54.917  1.00  0.00    -0.268 OA
HETATM    6  H4  UNL     1      27.757  -0.232  51.790  1.00  0.00     0.169 HD
BRANCH   4   7
HETATM    7  C2  UNL     1      29.677   0.203  53.696  1.00  0.00     0.064 C 
HETATM    8  C1  UNL     1      29.499  -1.086  53.458  1.00  0.00     0.017 C 
ENDBRANCH   4   7
ENDBRANCH   1   3
BRANCH   1   9
HETATM    9  C14 UNL     1      24.939  -0.300  53.965  1.00  0.00     0.171 C 
BRANCH   9  10
HETATM   10  N4  UNL     1      23.796  -0.897  53.417  1.00  0.00    -0.412 N 
HETATM   11  H19 UNL     1      23.944  -1.464  52.568  1.00  0.00     0.153 HD
BRANCH  10  12
HETATM   12  C15 UNL     1      22.536  -0.242  53.474  1.00  0.00     0.083 C 
HETATM   13  C16 UNL     1      21.606  -0.899  54.410  1.00  0.00     0.051 C 
HETATM   14  C17 UNL     1      20.208  -0.949  53.780  1.00  0.00     0.172 C 
HETATM   15  O2  UNL     1      19.934   0.341  53.375  1.00  0.00    -0.357 OA
HETATM   16  C18 UNL     1      20.540   0.506  52.136  1.00  0.00     0.359 C 
HETATM   17  C21 UNL     1      21.964   0.049  52.109  1.00  0.00     0.089 C 
BRANCH  16  18
HETATM   18  N5  UNL     1      20.460   1.919  51.813  1.00  0.00     0.108 N 
HETATM   19  C19 UNL     1      19.057   2.241  51.743  1.00  0.00     0.312 C 
HETATM   20  C20 UNL     1      21.096   2.246  50.579  1.00  0.00     0.312 C 
ENDBRANCH  16  18
ENDBRANCH  10  12
ENDBRANCH   9  10
ENDBRANCH   1   9
BRANCH   2  21
HETATM   21  C6  UNL     1      26.434   2.034  51.276  1.00  0.00     0.088 C 
BRANCH  21  22
HETATM   22  C7  UNL     1      25.710   3.261  50.891  1.00  0.00     0.039 A 
HETATM   23  C8  UNL     1      25.938   4.160  49.948  1.00  0.00    -0.053 A 
HETATM   24  C11 UNL     1      25.127   5.363  49.654  1.00  0.00     0.041 A 
HETATM   25  C12 UNL     1      23.966   5.544  50.572  1.00  0.00     0.051 A 
HETATM   26  C13 UNL     1      23.818   4.471  51.582  1.00  0.00     0.090 A 
HETATM   27  N3  UNL     1      24.574   3.440  51.753  1.00  0.00    -0.269 NA
BRANCH  23  28
HETATM   28  C9  UNL     1      27.105   4.003  49.067  1.00  0.00     0.058 C 
BRANCH  28  29
HETATM   29  C10 UNL     1      27.686   5.306  48.561  1.00  0.00     0.163 C 
BRANCH  29  30
HETATM   30  N2  UNL     1      29.109   5.168  48.378  1.00  0.00    -0.245 NA
HETATM   31  S1  UNL     1      29.944   6.201  47.993  1.00  0.00     0.062 SA
ENDBRANCH  29  30
ENDBRANCH  28  29
ENDBRANCH  23  28
ENDBRANCH  21  22
ENDBRANCH   2  21
TORSDOF 11
ENDMDL
MODEL 2
REMARK VINA RESULT:      -7.5      3.692      7.677
REMARK  11 active torsions:
REMARK  status: ('A' for Active; 'I' for Inactive)
REMARK    1  A    between atoms: C2_2  and  C3_3 
REMARK       I    between atoms: C3_3  and  N1_5 
REMARK    2  A    between atoms: N1_5  and  C4_6 
REMARK    3  A    between atoms: C4_6  and  C14_19 
REMARK    4  A    between atoms: C5_7  and  C6_8 
REMARK    5  A    between atoms: C6_8  and  C7_9 
REMARK    6  A    between atoms: C8_10  and  C9_11 
REMARK    7  A    between atoms: C9_11  and  C10_12 
REMARK    8  A    between atoms: C10_12  and  N2_13 
REMARK    9  A    between atoms: C14_19  and  N4_20 
REMARK   10  A    between atoms: N4_20  and  C15_21 
REMARK   11  A    between atoms: C18_25  and  N5_26 
ROOT
HETATM    1  C4  UNL     1      23.998   4.080  51.725  1.00  0.00     0.026 C 
HETATM    2  C5  UNL     1      23.237   2.974  51.806  1.00  0.00     0.006 C 
ENDROOT
BRANCH   1   3
HETATM    3  N1  UNL     1      25.198   3.432  51.349  1.00  0.00    -0.326 N 
HETATM    4  C3  UNL     1      25.593   3.798  50.032  1.00  0.00     0.244 C 
HETATM    5  O1  UNL     1      24.917   4.594  49.356  1.00  0.00    -0.268 OA
HETATM    6  H4  UNL     1      25.800   2.772  51.883  1.00  0.00     0.169 HD
BRANCH   4   7
HETATM    7  C2  UNL     1      26.794   3.285  49.381  1.00  0.00     0.064 C 
HETATM    8  C1  UNL     1      27.023   4.532  49.004  1.00  0.00     0.017 C 
ENDBRANCH   4   7
ENDBRANCH   1   3
BRANCH   1   9
HETATM    9  C14 UNL     1      23.383   5.373  52.003  1.00  0.00     0.171 C 
BRANCH   9  10
HETATM   10  N4  UNL     1      24.184   6.512  52.161  1.00  0.00    -0.412 N 
HETATM   11  H19 UNL     1      24.308   6.846  53.129  1.00  0.00     0.153 HD
BRANCH  10  12
HETATM   12  C15 UNL     1      24.187   7.540  51.180  1.00  0.00     0.083 C 
HETATM   13  C16 UNL     1      22.973   7.519  50.344  1.00  0.00     0.051 C 
HETATM   14  C17 UNL     1      23.363   7.768  48.882  1.00  0.00     0.172 C 
HETATM   15  O2  UNL     1      24.136   8.910  48.891  1.00  0.00    -0.357 OA
HETATM   16  C18 UNL     1      25.426   8.513  49.218  1.00  0.00     0.359 C 
HETATM   17  C21 UNL     1      25.484   7.617  50.414  1.00  0.00     0.089 C 
BRANCH  16  18
HETATM   18  N5  UNL     1      26.191   9.723  49.460  1.00  0.00     0.108 N 
HETATM   19  C19 UNL     1      26.295  10.399  48.191  1.00  0.00     0.312 C 
HETATM   20  C20 UNL     1      27.493   9.466  49.983  1.00  0.00     0.312 C 
ENDBRANCH  16  18
ENDBRANCH  10  12
ENDBRANCH   9  10
ENDBRANCH   1   9
BRANCH   2  21
HETATM   21  C6  UNL     1      23.417   1.532  51.609  1.00  0.00     0.088 C 
BRANCH  21  22
HETATM   22  C7  UNL     1      22.922   0.727  52.743  1.00  0.00     0.039 A 
HETATM   23  C8  UNL     1      23.521  -0.151  53.529  1.00  0.00    -0.053 A 
HETATM   24  C11 UNL     1      22.911  -0.902  54.650  1.00  0.00     0.041 A 
HETATM   25  C12 UNL     1      21.458  -0.623  54.839  1.00  0.00     0.051 A 
HETATM   26  C13 UNL     1      20.905   0.379  53.897  1.00  0.00     0.090 A 
HETATM   27  N3  UNL     1      21.526   1.000  52.954  1.00  0.00    -0.269 NA
BRANCH  23  28
HETATM   28  C9  UNL     1      24.945  -0.455  53.318  1.00  0.00     0.058 C 
BRANCH  28  29
HETATM   29  C10 UNL     1      25.802  -0.323  54.559  1.00  0.00     0.163 C 
BRANCH  29  30
HETATM   30  N2  UNL     1      27.180  -0.591  54.232  1.00  0.00    -0.245 NA
HETATM   31  S1  UNL     1      28.240   0.199  54.636  1.00  0.00     0.062 SA
ENDBRANCH  29  30
ENDBRANCH  28  29
ENDBRANCH  23  28
ENDBRANCH  21  22
ENDBRANCH   2  21
TORSDOF 11
ENDMDL
MODEL 3
REMARK VINA RESULT:      -7.4      2.985      6.429
REMARK  11 active torsions:
REMARK  status: ('A' for Active; 'I' for Inactive)
REMARK    1  A    between atoms: C2_2  and  C3_3 
REMARK       I    between atoms: C3_3  and  N1_5 
REMARK    2  A    between atoms: N1_5  and  C4_6 
REMARK    3  A    between atoms: C4_6  and  C14_19 
REMARK    4  A    between atoms: C5_7  and  C6_8 
REMARK    5  A    between atoms: C6_8  and  C7_9 
REMARK    6  A    between atoms: C8_10  and  C9_11 
REMARK    7  A    between atoms: C9_11  and  C10_12 
REMARK    8  A    between atoms: C10_12  and  N2_13 
REMARK    9  A    between atoms: C14_19  and  N4_20 
REMARK   10  A    between atoms: N4_20  and  C15_21 
REMARK   11  A    between atoms: C18_25  and  N5_26 
ROOT
HETATM    1  C4  UNL     1      26.217   3.863  50.305  1.00  0.00     0.026 C 
HETATM    2  C5  UNL     1      26.847   4.403  49.246  1.00  0.00     0.006 C 
ENDROOT
BRANCH   1   3
HETATM    3  N1  UNL     1      25.484   5.016  50.672  1.00  0.00    -0.326 N 
HETATM    4  C3  UNL     1      24.083   4.773  50.632  1.00  0.00     0.244 C 
HETATM    5  O1  UNL     1      23.633   3.660  50.306  1.00  0.00    -0.268 OA
HETATM    6  H4  UNL     1      25.817   5.959  50.961  1.00  0.00     0.169 HD
BRANCH   4   7
HETATM    7  C2  UNL     1      23.082   5.781  50.962  1.00  0.00     0.064 C 
HETATM    8  C1  UNL     1      22.816   5.049  52.030  1.00  0.00     0.017 C 
ENDBRANCH   4   7
ENDBRANCH   1   3
BRANCH   1   9
HETATM    9  C14 UNL     1      26.477   2.466  50.634  1.00  0.00     0.171 C 
BRANCH   9  10
HETATM   10  N4  UNL     1      25.701   1.818  51.605  1.00  0.00    -0.412 N 
HETATM   11  H19 UNL     1      24.961   2.385  52.045  1.00  0.00     0.153 HD
BRANCH  10  12
HETATM   12  C15 UNL     1      26.277   0.839  52.460  1.00  0.00     0.083 C 
HETATM   13  C16 UNL     1      25.356  -0.280  52.729  1.00  0.00     0.051 C 
HETATM   14  C17 UNL     1      25.445  -0.662  54.211  1.00  0.00     0.172 C 
HETATM   15  O2  UNL     1      26.788  -0.837  54.472  1.00  0.00    -0.357 OA
HETATM   16  C18 UNL     1      27.313   0.426  54.716  1.00  0.00     0.359 C 
HETATM   17  C21 UNL     1      26.924   1.436  53.685  1.00  0.00     0.089 C 
BRANCH  16  18
HETATM   18  N5  UNL     1      28.756   0.281  54.758  1.00  0.00     0.108 N 
HETATM   19  C19 UNL     1      29.305   1.553  54.359  1.00  0.00     0.312 C 
HETATM   20  C20 UNL     1      29.240  -0.748  53.895  1.00  0.00     0.312 C 
ENDBRANCH  16  18
ENDBRANCH  10  12
ENDBRANCH   9  10
ENDBRANCH   1   9
BRANCH   2  21
HETATM   21  C6  UNL     1      26.882   5.702  48.568  1.00  0.00     0.088 C 
BRANCH  21  22
HETATM   22  C7  UNL     1      28.253   6.173  48.289  1.00  0.00     0.039 A 
HETATM   23  C8  UNL     1      28.751   7.385  48.113  1.00  0.00    -0.053 A 
HETATM   24  C11 UNL     1      30.163   7.734  47.838  1.00  0.00     0.041 A 
HETATM   25  C12 UNL     1      31.062   6.550  47.722  1.00  0.00     0.051 A 
HETATM   26  C13 UNL     1      30.386   5.250  47.940  1.00  0.00     0.090 A 
HETATM   27  N3  UNL     1      29.139   5.044  48.195  1.00  0.00    -0.269 NA
BRANCH  23  28
HETATM   28  C9  UNL     1      27.857   8.550  48.189  1.00  0.00     0.058 C 
BRANCH  28  29
HETATM   29  C10 UNL     1      27.806   9.211  49.550  1.00  0.00     0.163 C 
BRANCH  29  30
HETATM   30  N2  UNL     1      26.764  10.207  49.572  1.00  0.00    -0.245 NA
HETATM   31  S1  UNL     1      26.069  10.625  48.452  1.00  0.00     0.062 SA
ENDBRANCH  29  30
ENDBRANCH  28  29
ENDBRANCH  23  28
ENDBRANCH  21  22
ENDBRANCH   2  21
TORSDOF 11
ENDMDL
MODEL 4
REMARK VINA RESULT:      -7.4      3.752      9.127
REMARK  11 active torsions:
REMARK  status: ('A' for Active; 'I' for Inactive)
REMARK    1  A    between atoms: C2_2  and  C3_3 
REMARK       I    between atoms: C3_3  and  N1_5 
REMARK    2  A    between atoms: N1_5  and  C4_6 
REMARK    3  A    between atoms: C4_6  and  C14_19 
REMARK    4  A    between atoms: C5_7  and  C6_8 
REMARK    5  A    between atoms: C6_8  and  C7_9 
REMARK    6  A    between atoms: C8_10  and  C9_11 
REMARK    7  A    between atoms: C9_11  and  C10_12 
REMARK    8  A    between atoms: C10_12  and  N2_13 
REMARK    9  A    between atoms: C14_19  and  N4_20 
REMARK   10  A    between atoms: N4_20  and  C15_21 
REMARK   11  A    between atoms: C18_25  and  N5_26 
ROOT
HETATM    1  C4  UNL     1      26.282   3.947  50.075  1.00  0.00     0.026 C 
HETATM    2  C5  UNL     1      26.447   2.704  50.563  1.00  0.00     0.006 C 
ENDROOT
BRANCH   1   3
HETATM    3  N1  UNL     1      25.272   4.351  50.980  1.00  0.00    -0.326 N 
HETATM    4  C3  UNL     1      24.098   4.765  50.294  1.00  0.00     0.244 C 
HETATM    5  O1  UNL     1      24.039   4.746  49.051  1.00  0.00    -0.268 OA
HETATM    6  H4  UNL     1      25.274   4.373  52.021  1.00  0.00     0.169 HD
BRANCH   4   7
HETATM    7  C2  UNL     1      22.894   5.234  50.971  1.00  0.00     0.064 C 
HETATM    8  C1  UNL     1      23.406   4.708  52.070  1.00  0.00     0.017 C 
ENDBRANCH   4   7
ENDBRANCH   1   3
BRANCH   1   9
HETATM    9  C14 UNL     1      27.107   4.371  48.949  1.00  0.00     0.171 C 
BRANCH   9  10
HETATM   10  N4  UNL     1      27.019   5.685  48.470  1.00  0.00    -0.412 N 
HETATM   11  H19 UNL     1      26.328   5.847  47.721  1.00  0.00     0.153 HD
BRANCH  10  12
HETATM   12  C15 UNL     1      28.174   6.509  48.393  1.00  0.00     0.083 C 
HETATM   13  C16 UNL     1      28.036   7.573  47.383  1.00  0.00     0.051 C 
HETATM   14  C17 UNL     1      29.353   7.708  46.609  1.00  0.00     0.172 C 
HETATM   15  O2  UNL     1      30.338   7.833  47.566  1.00  0.00    -0.357 OA
HETATM   16  C18 UNL     1      30.656   6.546  47.980  1.00  0.00     0.359 C 
HETATM   17  C21 UNL     1      29.455   5.718  48.311  1.00  0.00     0.089 C 
BRANCH  16  18
HETATM   18  N5  UNL     1      31.512   6.677  49.144  1.00  0.00     0.108 N 
HETATM   19  C19 UNL     1      31.604   8.088  49.425  1.00  0.00     0.312 C 
HETATM   20  C20 UNL     1      32.817   6.136  48.941  1.00  0.00     0.312 C 
ENDBRANCH  16  18
ENDBRANCH  10  12
ENDBRANCH   9  10
ENDBRANCH   1   9
BRANCH   2  21
HETATM   21  C6  UNL     1      25.876   1.891  51.641  1.00  0.00     0.088 C 
BRANCH  21  22
HETATM   22  C7  UNL     1      26.892   1.386  52.584  1.00  0.00     0.039 A 
HETATM   23  C8  UNL     1      26.992   0.244  53.244  1.00  0.00    -0.053 A 
HETATM   24  C11 UNL     1      28.075  -0.153  54.173  1.00  0.00     0.041 A 
HETATM   25  C12 UNL     1      29.112   0.900  54.371  1.00  0.00     0.051 A 
HETATM   26  C13 UNL     1      28.888   2.130  53.576  1.00  0.00     0.090 A 
HETATM   27  N3  UNL     1      27.913   2.381  52.771  1.00  0.00    -0.269 NA
BRANCH  23  28
HETATM   28  C9  UNL     1      25.949  -0.779  53.079  1.00  0.00     0.058 C 
BRANCH  28  29
HETATM   29  C10 UNL     1      24.764  -0.619  54.006  1.00  0.00     0.163 C 
BRANCH  29  30
HETATM   30  N2  UNL     1      23.541  -0.639  53.245  1.00  0.00    -0.245 NA
HETATM   31  S1  UNL     1      22.503   0.259  53.421  1.00  0.00     0.062 SA
ENDBRANCH  29  30
ENDBRANCH  28  29
ENDBRANCH  23  28
ENDBRANCH  21  22
ENDBRANCH   2  21
TORSDOF 11
ENDMDL
MODEL 5
REMARK VINA RESULT:      -7.3      3.300      5.802
REMARK  11 active torsions:
REMARK  status: ('A' for Active; 'I' for Inactive)
REMARK    1  A    between atoms: C2_2  and  C3_3 
REMARK       I    between atoms: C3_3  and  N1_5 
REMARK    2  A    between atoms: N1_5  and  C4_6 
REMARK    3  A    between atoms: C4_6  and  C14_19 
REMARK    4  A    between atoms: C5_7  and  C6_8 
REMARK    5  A    between atoms: C6_8  and  C7_9 
REMARK    6  A    between atoms: C8_10  and  C9_11 
REMARK    7  A    between atoms: C9_11  and  C10_12 
REMARK    8  A    between atoms: C10_12  and  N2_13 
REMARK    9  A    between atoms: C14_19  and  N4_20 
REMARK   10  A    between atoms: N4_20  and  C15_21 
REMARK   11  A    between atoms: C18_25  and  N5_26 
ROOT
HETATM    1  C4  UNL     1      24.529   3.567  51.480  1.00  0.00     0.026 C 
HETATM    2  C5  UNL     1      25.158   2.380  51.549  1.00  0.00     0.006 C 
ENDROOT
BRANCH   1   3
HETATM    3  N1  UNL     1      25.618   4.306  50.960  1.00  0.00    -0.326 N 
HETATM    4  C3  UNL     1      25.344   4.777  49.647  1.00  0.00     0.244 C 
HETATM    5  O1  UNL     1      24.259   4.532  49.089  1.00  0.00    -0.268 OA
HETATM    6  H4  UNL     1      26.535   4.544  51.393  1.00  0.00     0.169 HD
BRANCH   4   7
HETATM    7  C2  UNL     1      26.286   5.569  48.864  1.00  0.00     0.064 C 
HETATM    8  C1  UNL     1      27.102   4.532  48.950  1.00  0.00     0.017 C 
ENDBRANCH   4   7
ENDBRANCH   1   3
BRANCH   1   9
HETATM    9  C14 UNL     1      23.134   3.643  51.898  1.00  0.00     0.171 C 
BRANCH   9  10
HETATM   10  N4  UNL     1      22.423   2.472  52.190  1.00  0.00    -0.412 N 
HETATM   11  H19 UNL     1      22.966   1.710  52.623  1.00  0.00     0.153 HD
BRANCH  10  12
HETATM   12  C15 UNL     1      21.365   2.034  51.348  1.00  0.00     0.083 C 
HETATM   13  C16 UNL     1      21.813   1.038  50.359  1.00  0.00     0.051 C 
HETATM   14  C17 UNL     1      21.165   1.347  49.003  1.00  0.00     0.172 C 
HETATM   15  O2  UNL     1      19.814   1.464  49.253  1.00  0.00    -0.357 OA
HETATM   16  C18 UNL     1      19.604   2.761  49.703  1.00  0.00     0.359 C 
HETATM   17  C21 UNL     1      20.556   3.174  50.780  1.00  0.00     0.089 C 
BRANCH  16  18
HETATM   18  N5  UNL     1      18.239   2.823  50.189  1.00  0.00     0.108 N 
HETATM   19  C19 UNL     1      18.231   3.788  51.260  1.00  0.00     0.312 C 
HETATM   20  C20 UNL     1      17.757   1.567  50.665  1.00  0.00     0.312 C 
ENDBRANCH  16  18
ENDBRANCH  10  12
ENDBRANCH   9  10
ENDBRANCH   1   9
BRANCH   2  21
HETATM   21  C6  UNL     1      26.491   1.853  51.239  1.00  0.00     0.088 C 
BRANCH  21  22
HETATM   22  C7  UNL     1      27.235   1.421  52.438  1.00  0.00     0.039 A 
HETATM   23  C8  UNL     1      27.111   0.361  53.219  1.00  0.00    -0.053 A 
HETATM   24  C11 UNL     1      27.931   0.032  54.407  1.00  0.00     0.041 A 
HETATM   25  C12 UNL     1      28.964   1.059  54.726  1.00  0.00     0.051 A 
HETATM   26  C13 UNL     1      29.003   2.196  53.778  1.00  0.00     0.090 A 
HETATM   27  N3  UNL     1      28.251   2.390  52.749  1.00  0.00    -0.269 NA
BRANCH  23  28
HETATM   28  C9  UNL     1      26.068  -0.633  52.926  1.00  0.00     0.058 C 
BRANCH  28  29
HETATM   29  C10 UNL     1      24.908  -0.626  53.899  1.00  0.00     0.163 C 
BRANCH  29  30
HETATM   30  N2  UNL     1      23.670  -0.447  53.184  1.00  0.00    -0.245 NA
HETATM   31  S1  UNL     1      22.446  -0.917  53.624  1.00  0.00     0.062 SA
ENDBRANCH  29  30
ENDBRANCH  28  29
ENDBRANCH  23  28
ENDBRANCH  21  22
ENDBRANCH   2  21
TORSDOF 11
ENDMDL
MODEL 6
REMARK VINA RESULT:      -7.2      3.389      7.065
REMARK  11 active torsions:
REMARK  status: ('A' for Active; 'I' for Inactive)
REMARK    1  A    between atoms: C2_2  and  C3_3 
REMARK       I    between atoms: C3_3  and  N1_5 
REMARK    2  A    between atoms: N1_5  and  C4_6 
REMARK    3  A    between atoms: C4_6  and  C14_19 
REMARK    4  A    between atoms: C5_7  and  C6_8 
REMARK    5  A    between atoms: C6_8  and  C7_9 
REMARK    6  A    between atoms: C8_10  and  C9_11 
REMARK    7  A    between atoms: C9_11  and  C10_12 
REMARK    8  A    between atoms: C10_12  and  N2_13 
REMARK    9  A    between atoms: C14_19  and  N4_20 
REMARK   10  A    between atoms: N4_20  and  C15_21 
REMARK   11  A    between atoms: C18_25  and  N5_26 
ROOT
HETATM    1  C4  UNL     1      25.957   1.813  51.305  1.00  0.00     0.026 C 
HETATM    2  C5  UNL     1      24.700   1.911  51.771  1.00  0.00     0.006 C 
ENDROOT
BRANCH   1   3
HETATM    3  N1  UNL     1      26.372   0.762  52.157  1.00  0.00    -0.326 N 
HETATM    4  C3  UNL     1      27.570   1.099  52.847  1.00  0.00     0.244 C 
HETATM    5  O1  UNL     1      28.125   2.198  52.673  1.00  0.00    -0.268 OA
HETATM    6  H4  UNL     1      25.936  -0.164  52.342  1.00  0.00     0.169 HD
BRANCH   4   7
HETATM    7  C2  UNL     1      28.230   0.206  53.794  1.00  0.00     0.064 C 
HETATM    8  C1  UNL     1      27.740  -0.788  53.073  1.00  0.00     0.017 C 
ENDBRANCH   4   7
ENDBRANCH   1   3
BRANCH   1   9
HETATM    9  C14 UNL     1      26.373   2.699  50.223  1.00  0.00     0.171 C 
BRANCH   9  10
HETATM   10  N4  UNL     1      26.551   4.068  50.466  1.00  0.00    -0.412 N 
HETATM   11  H19 UNL     1      26.409   4.376  51.439  1.00  0.00     0.153 HD
BRANCH  10  12
HETATM   12  C15 UNL     1      26.191   5.032  49.486  1.00  0.00     0.083 C 
HETATM   13  C16 UNL     1      27.314   5.368  48.593  1.00  0.00     0.051 C 
HETATM   14  C17 UNL     1      27.330   6.883  48.351  1.00  0.00     0.172 C 
HETATM   15  O2  UNL     1      26.052   7.211  47.952  1.00  0.00    -0.357 OA
HETATM   16  C18 UNL     1      25.298   7.355  49.110  1.00  0.00     0.359 C 
HETATM   17  C21 UNL     1      25.466   6.219  50.068  1.00  0.00     0.089 C 
BRANCH  16  18
HETATM   18  N5  UNL     1      23.911   7.466  48.700  1.00  0.00     0.108 N 
HETATM   19  C19 UNL     1      23.135   6.771  49.697  1.00  0.00     0.312 C 
HETATM   20  C20 UNL     1      23.662   6.903  47.412  1.00  0.00     0.312 C 
ENDBRANCH  16  18
ENDBRANCH  10  12
ENDBRANCH   9  10
ENDBRANCH   1   9
BRANCH   2  21
HETATM   21  C6  UNL     1      23.880   1.249  52.791  1.00  0.00     0.088 C 
BRANCH  21  22
HETATM   22  C7  UNL     1      22.514   0.941  52.324  1.00  0.00     0.039 A 
HETATM   23  C8  UNL     1      21.470   0.412  52.939  1.00  0.00    -0.053 A 
HETATM   24  C11 UNL     1      20.133   0.152  52.357  1.00  0.00     0.041 A 
HETATM   25  C12 UNL     1      20.027   0.512  50.914  1.00  0.00     0.051 A 
HETATM   26  C13 UNL     1      21.262   1.096  50.342  1.00  0.00     0.090 A 
HETATM   27  N3  UNL     1      22.386   1.303  50.938  1.00  0.00    -0.269 NA
BRANCH  23  28
HETATM   28  C9  UNL     1      21.587   0.021  54.352  1.00  0.00     0.058 C 
BRANCH  28  29
HETATM   29  C10 UNL     1      21.864  -1.451  54.572  1.00  0.00     0.163 C 
BRANCH  29  30
HETATM   30  N2  UNL     1      22.833  -1.614  55.626  1.00  0.00    -0.245 NA
HETATM   31  S1  UNL     1      24.174  -1.302  55.502  1.00  0.00     0.062 SA
ENDBRANCH  29  30
ENDBRANCH  28  29
ENDBRANCH  23  28
ENDBRANCH  21  22
ENDBRANCH   2  21
TORSDOF 11
ENDMDL
MODEL 7
REMARK VINA RESULT:      -7.1      3.117      7.544
REMARK  11 active torsions:
REMARK  status: ('A' for Active; 'I' for Inactive)
REMARK    1  A    between atoms: C2_2  and  C3_3 
REMARK       I    between atoms: C3_3  and  N1_5 
REMARK    2  A    between atoms: N1_5  and  C4_6 
REMARK    3  A    between atoms: C4_6  and  C14_19 
REMARK    4  A    between atoms: C5_7  and  C6_8 
REMARK    5  A    between atoms: C6_8  and  C7_9 
REMARK    6  A    between atoms: C8_10  and  C9_11 
REMARK    7  A    between atoms: C9_11  and  C10_12 
REMARK    8  A    between atoms: C10_12  and  N2_13 
REMARK    9  A    between atoms: C14_19  and  N4_20 
REMARK   10  A    between atoms: N4_20  and  C15_21 
REMARK   11  A    between atoms: C18_25  and  N5_26 
ROOT
HETATM    1  C4  UNL     1      22.589   3.664  51.587  1.00  0.00     0.026 C 
HETATM    2  C5  UNL     1      23.563   2.805  51.936  1.00  0.00     0.006 C 
ENDROOT
BRANCH   1   3
HETATM    3  N1  UNL     1      21.796   2.739  50.868  1.00  0.00    -0.326 N 
HETATM    4  C3  UNL     1      21.587   3.168  49.528  1.00  0.00     0.244 C 
HETATM    5  O1  UNL     1      22.073   4.234  49.111  1.00  0.00    -0.268 OA
HETATM    6  H4  UNL     1      21.380   1.834  51.171  1.00  0.00     0.169 HD
BRANCH   4   7
HETATM    7  C2  UNL     1      20.806   2.412  48.554  1.00  0.00     0.064 C 
HETATM    8  C1  UNL     1      21.605   1.394  48.827  1.00  0.00     0.017 C 
ENDBRANCH   4   7
ENDBRANCH   1   3
BRANCH   1   9
HETATM    9  C14 UNL     1      22.688   5.050  52.031  1.00  0.00     0.171 C 
BRANCH   9  10
HETATM   10  N4  UNL     1      23.936   5.687  52.073  1.00  0.00    -0.412 N 
HETATM   11  H19 UNL     1      24.266   5.973  53.007  1.00  0.00     0.153 HD
BRANCH  10  12
HETATM   12  C15 UNL     1      24.352   6.541  51.016  1.00  0.00     0.083 C 
HETATM   13  C16 UNL     1      23.337   7.558  50.686  1.00  0.00     0.051 C 
HETATM   14  C17 UNL     1      23.241   7.699  49.162  1.00  0.00     0.172 C 
HETATM   15  O2  UNL     1      24.534   7.893  48.722  1.00  0.00    -0.357 OA
HETATM   16  C18 UNL     1      25.110   6.633  48.618  1.00  0.00     0.359 C 
HETATM   17  C21 UNL     1      24.900   5.785  49.831  1.00  0.00     0.089 C 
BRANCH  16  18
HETATM   18  N5  UNL     1      26.528   6.837  48.386  1.00  0.00     0.108 N 
HETATM   19  C19 UNL     1      27.171   5.577  48.664  1.00  0.00     0.312 C 
HETATM   20  C20 UNL     1      27.088   7.859  49.209  1.00  0.00     0.312 C 
ENDBRANCH  16  18
ENDBRANCH  10  12
ENDBRANCH   9  10
ENDBRANCH   1   9
BRANCH   2  21
HETATM   21  C6  UNL     1      23.861   1.383  51.735  1.00  0.00     0.088 C 
BRANCH  21  22
HETATM   22  C7  UNL     1      23.452   0.540  52.876  1.00  0.00     0.039 A 
HETATM   23  C8  UNL     1      24.150  -0.208  53.714  1.00  0.00    -0.053 A 
HETATM   24  C11 UNL     1      23.619  -1.017  54.835  1.00  0.00     0.041 A 
HETATM   25  C12 UNL     1      22.134  -0.970  54.958  1.00  0.00     0.051 A 
HETATM   26  C13 UNL     1      21.469  -0.097  53.963  1.00  0.00     0.090 A 
HETATM   27  N3  UNL     1      22.023   0.590  53.023  1.00  0.00    -0.269 NA
BRANCH  23  28
HETATM   28  C9  UNL     1      25.611  -0.285  53.568  1.00  0.00     0.058 C 
BRANCH  28  29
HETATM   29  C10 UNL     1      26.385   0.437  54.650  1.00  0.00     0.163 C 
BRANCH  29  30
HETATM   30  N2  UNL     1      26.734   1.761  54.201  1.00  0.00    -0.245 NA
HETATM   31  S1  UNL     1      27.816   2.043  53.386  1.00  0.00     0.062 SA
ENDBRANCH  29  30
ENDBRANCH  28  29
ENDBRANCH  23  28
ENDBRANCH  21  22
ENDBRANCH   2  21
TORSDOF 11
ENDMDL
MODEL 8
REMARK VINA RESULT:      -7.0      4.281      9.684
REMARK  11 active torsions:
REMARK  status: ('A' for Active; 'I' for Inactive)
REMARK    1  A    between atoms: C2_2  and  C3_3 
REMARK       I    between atoms: C3_3  and  N1_5 
REMARK    2  A    between atoms: N1_5  and  C4_6 
REMARK    3  A    between atoms: C4_6  and  C14_19 
REMARK    4  A    between atoms: C5_7  and  C6_8 
REMARK    5  A    between atoms: C6_8  and  C7_9 
REMARK    6  A    between atoms: C8_10  and  C9_11 
REMARK    7  A    between atoms: C9_11  and  C10_12 
REMARK    8  A    between atoms: C10_12  and  N2_13 
REMARK    9  A    between atoms: C14_19  and  N4_20 
REMARK   10  A    between atoms: N4_20  and  C15_21 
REMARK   11  A    between atoms: C18_25  and  N5_26 
ROOT
HETATM    1  C4  UNL     1      27.211   5.573  48.582  1.00  0.00     0.026 C 
HETATM    2  C5  UNL     1      26.690   4.521  49.238  1.00  0.00     0.006 C 
ENDROOT
BRANCH   1   3
HETATM    3  N1  UNL     1      26.026   6.345  48.530  1.00  0.00    -0.326 N 
HETATM    4  C3  UNL     1      26.229   7.642  49.079  1.00  0.00     0.244 C 
HETATM    5  O1  UNL     1      27.337   7.983  49.528  1.00  0.00    -0.268 OA
HETATM    6  H4  UNL     1      25.085   6.106  48.155  1.00  0.00     0.169 HD
BRANCH   4   7
HETATM    7  C2  UNL     1      25.181   8.654  49.157  1.00  0.00     0.064 C 
HETATM    8  C1  UNL     1      24.685   7.945  50.157  1.00  0.00     0.017 C 
ENDBRANCH   4   7
ENDBRANCH   1   3
BRANCH   1   9
HETATM    9  C14 UNL     1      28.625   5.543  48.224  1.00  0.00     0.171 C 
BRANCH   9  10
HETATM   10  N4  UNL     1      29.561   6.242  48.999  1.00  0.00    -0.412 N 
HETATM   11  H19 UNL     1      29.404   7.257  49.090  1.00  0.00     0.153 HD
BRANCH  10  12
HETATM   12  C15 UNL     1      30.928   5.855  49.011  1.00  0.00     0.083 C 
HETATM   13  C16 UNL     1      31.816   6.952  49.432  1.00  0.00     0.051 C 
HETATM   14  C17 UNL     1      33.065   6.961  48.541  1.00  0.00     0.172 C 
HETATM   15  O2  UNL     1      33.553   5.672  48.569  1.00  0.00    -0.357 OA
HETATM   16  C18 UNL     1      32.827   4.952  47.628  1.00  0.00     0.359 C 
HETATM   17  C21 UNL     1      31.349   5.146  47.748  1.00  0.00     0.089 C 
BRANCH  16  18
HETATM   18  N5  UNL     1      33.166   3.553  47.815  1.00  0.00     0.108 N 
HETATM   19  C19 UNL     1      34.605   3.474  47.766  1.00  0.00     0.312 C 
HETATM   20  C20 UNL     1      32.599   2.703  46.820  1.00  0.00     0.312 C 
ENDBRANCH  16  18
ENDBRANCH  10  12
ENDBRANCH   9  10
ENDBRANCH   1   9
BRANCH   2  21
HETATM   21  C6  UNL     1      25.384   4.139  49.784  1.00  0.00     0.088 C 
BRANCH  21  22
HETATM   22  C7  UNL     1      25.468   3.042  50.768  1.00  0.00     0.039 A 
HETATM   23  C8  UNL     1      24.534   2.331  51.377  1.00  0.00    -0.053 A 
HETATM   24  C11 UNL     1      24.746   1.240  52.356  1.00  0.00     0.041 A 
HETATM   25  C12 UNL     1      26.181   0.988  52.673  1.00  0.00     0.051 A 
HETATM   26  C13 UNL     1      27.128   1.848  51.926  1.00  0.00     0.090 A 
HETATM   27  N3  UNL     1      26.847   2.771  51.070  1.00  0.00    -0.269 NA
BRANCH  23  28
HETATM   28  C9  UNL     1      23.118   2.605  51.093  1.00  0.00     0.058 C 
BRANCH  28  29
HETATM   29  C10 UNL     1      22.463   1.608  50.160  1.00  0.00     0.163 C 
BRANCH  29  30
HETATM   30  N2  UNL     1      21.867   2.301  49.046  1.00  0.00    -0.245 NA
HETATM   31  S1  UNL     1      22.396   2.313  47.768  1.00  0.00     0.062 SA
ENDBRANCH  29  30
ENDBRANCH  28  29
ENDBRANCH  23  28
ENDBRANCH  21  22
ENDBRANCH   2  21
TORSDOF 11
ENDMDL
MODEL 9
REMARK VINA RESULT:      -6.9      2.260      5.174
REMARK  11 active torsions:
REMARK  status: ('A' for Active; 'I' for Inactive)
REMARK    1  A    between atoms: C2_2  and  C3_3 
REMARK       I    between atoms: C3_3  and  N1_5 
REMARK    2  A    between atoms: N1_5  and  C4_6 
REMARK    3  A    between atoms: C4_6  and  C14_19 
REMARK    4  A    between atoms: C5_7  and  C6_8 
REMARK    5  A    between atoms: C6_8  and  C7_9 
REMARK    6  A    between atoms: C8_10  and  C9_11 
REMARK    7  A    between atoms: C9_11  and  C10_12 
REMARK    8  A    between atoms: C10_12  and  N2_13 
REMARK    9  A    between atoms: C14_19  and  N4_20 
REMARK   10  A    between atoms: N4_20  and  C15_21 
REMARK   11  A    between atoms: C18_25  and  N5_26 
ROOT
HETATM    1  C4  UNL     1      24.129   3.316  51.200  1.00  0.00     0.026 C 
HETATM    2  C5  UNL     1      25.312   3.587  50.620  1.00  0.00     0.006 C 
ENDROOT
BRANCH   1   3
HETATM    3  N1  UNL     1      23.368   3.250  50.008  1.00  0.00    -0.326 N 
HETATM    4  C3  UNL     1      22.647   2.027  49.922  1.00  0.00     0.244 C 
HETATM    5  O1  UNL     1      22.725   1.170  50.821  1.00  0.00    -0.268 OA
HETATM    6  H4  UNL     1      23.264   3.943  49.239  1.00  0.00     0.169 HD
BRANCH   4   7
HETATM    7  C2  UNL     1      21.777   1.683  48.803  1.00  0.00     0.064 C 
HETATM    8  C1  UNL     1      22.591   2.409  48.055  1.00  0.00     0.017 C 
ENDBRANCH   4   7
ENDBRANCH   1   3
BRANCH   1   9
HETATM    9  C14 UNL     1      24.075   3.192  52.652  1.00  0.00     0.171 C 
BRANCH   9  10
HETATM   10  N4  UNL     1      25.260   3.099  53.394  1.00  0.00    -0.412 N 
HETATM   11  H19 UNL     1      26.018   3.741  53.117  1.00  0.00     0.153 HD
BRANCH  10  12
HETATM   12  C15 UNL     1      25.705   1.847  53.898  1.00  0.00     0.083 C 
HETATM   13  C16 UNL     1      27.150   1.642  53.690  1.00  0.00     0.051 C 
HETATM   14  C17 UNL     1      27.395   0.197  53.240  1.00  0.00     0.172 C 
HETATM   15  O2  UNL     1      26.743  -0.597  54.161  1.00  0.00    -0.357 OA
HETATM   16  C18 UNL     1      25.412  -0.649  53.769  1.00  0.00     0.359 C 
HETATM   17  C21 UNL     1      24.832   0.696  53.465  1.00  0.00     0.089 C 
BRANCH  16  18
HETATM   18  N5  UNL     1      24.678  -1.279  54.851  1.00  0.00     0.108 N 
HETATM   19  C19 UNL     1      23.298  -0.896  54.684  1.00  0.00     0.312 C 
HETATM   20  C20 UNL     1      25.139  -0.886  56.142  1.00  0.00     0.312 C 
ENDBRANCH  16  18
ENDBRANCH  10  12
ENDBRANCH   9  10
ENDBRANCH   1   9
BRANCH   2  21
HETATM   21  C6  UNL     1      25.819   3.778  49.257  1.00  0.00     0.088 C 
BRANCH  21  22
HETATM   22  C7  UNL     1      26.070   5.194  48.927  1.00  0.00     0.039 A 
HETATM   23  C8  UNL     1      27.172   5.837  48.581  1.00  0.00    -0.053 A 
HETATM   24  C11 UNL     1      27.298   7.279  48.267  1.00  0.00     0.041 A 
HETATM   25  C12 UNL     1      26.021   8.037  48.408  1.00  0.00     0.051 A 
HETATM   26  C13 UNL     1      24.860   7.205  48.798  1.00  0.00     0.090 A 
HETATM   27  N3  UNL     1      24.844   5.938  49.037  1.00  0.00    -0.269 NA
BRANCH  23  28
HETATM   28  C9  UNL     1      28.438   5.097  48.479  1.00  0.00     0.058 C 
BRANCH  28  29
HETATM   29  C10 UNL     1      29.636   5.953  48.128  1.00  0.00     0.163 C 
BRANCH  29  30
HETATM   30  N2  UNL     1      30.822   5.412  48.743  1.00  0.00    -0.245 NA
HETATM   31  S1  UNL     1      32.031   5.256  48.091  1.00  0.00     0.062 SA
ENDBRANCH  29  30
ENDBRANCH  28  29
ENDBRANCH  23  28
ENDBRANCH  21  22
ENDBRANCH   2  21
TORSDOF 11
ENDMDL
