MODEL 1
REMARK VINA RESULT:      -8.6      0.000      0.000
REMARK  5 active torsions:
REMARK  status: ('A' for Active; 'I' for Inactive)
REMARK    1  A    between atoms: C1_2  and  O2_3 
REMARK    2  A    between atoms: C1_2  and  C2_4 
REMARK    3  A    between atoms: C6_8  and  O3_9 
REMARK    4  A    between atoms: C9_13  and  N2_14 
REMARK    5  A    between atoms: N2_14  and  C10_15 
ROOT
HETATM    1  C2  UNL     1      27.474   1.444  53.398  1.00  0.00     0.068 A 
HETATM    2  C3  UNL     1      26.881   1.406  52.220  1.00  0.00     0.010 A 
HETATM    3  C4  UNL     1      25.715   0.520  52.359  1.00  0.00     0.097 A 
HETATM    4  C5  UNL     1      25.728   0.056  53.791  1.00  0.00    -0.015 A 
HETATM    5  C6  UNL     1      26.792   0.628  54.378  1.00  0.00     0.087 A 
HETATM    6  C7  UNL     1      24.625  -0.857  54.154  1.00  0.00     0.158 C 
HETATM    7  N1  UNL     1      23.419  -0.408  53.449  1.00  0.00    -0.381 N 
HETATM    8  C8  UNL     1      23.333   0.894  52.832  1.00  0.00     0.101 A 
HETATM    9  C9  UNL     1      22.164   1.622  52.796  1.00  0.00     0.158 A 
HETATM   10  N3  UNL     1      22.199   2.814  52.190  1.00  0.00    -0.222 NA
HETATM   11  C16 UNL     1      23.291   3.309  51.637  1.00  0.00     0.235 A 
HETATM   12  N4  UNL     1      24.432   2.604  51.671  1.00  0.00    -0.243 NA
HETATM   13  C17 UNL     1      24.491   1.383  52.264  1.00  0.00     0.078 A 
HETATM   14  H7  UNL     1      22.552  -1.014  53.356  1.00  0.00     0.160 HD
ENDROOT
BRANCH   9  15
HETATM   15  N2  UNL     1      21.009   1.069  53.407  1.00  0.00    -0.339 N 
HETATM   16  H8  UNL     1      20.909   1.097  54.444  1.00  0.00     0.167 HD
BRANCH  15  17
HETATM   17  C10 UNL     1      19.882   0.445  52.813  1.00  0.00     0.035 A 
HETATM   18  C11 UNL     1      19.256   0.913  51.653  1.00  0.00     0.029 A 
HETATM   19  C12 UNL     1      18.173   0.310  51.087  1.00  0.00     0.004 A 
HETATM   20  C13 UNL     1      17.625  -0.814  51.639  1.00  0.00     0.019 A 
HETATM   21  C14 UNL     1      18.193  -1.329  52.785  1.00  0.00     0.013 A 
HETATM   22 BR1  UNL     1      17.404  -2.896  53.525  1.00  0.00    -0.051 Br
HETATM   23  C15 UNL     1      19.289  -0.686  53.324  1.00  0.00     0.048 A 
ENDBRANCH  15  17
ENDBRANCH   9  15
BRANCH   5  24
HETATM   24  O3  UNL     1      27.075   0.391  55.712  1.00  0.00    -0.359 OA
HETATM   25  H4  UNL     1      27.281   1.176  56.319  1.00  0.00     0.217 HD
ENDBRANCH   5  24
BRANCH   1  26
HETATM   26  C1  UNL     1      28.678   2.205  53.717  1.00  0.00     0.178 C 
HETATM   27  O1  UNL     1      29.401   2.103  54.748  1.00  0.00    -0.646 OA
BRANCH  26  28
HETATM   28  O2  UNL     1      29.226   3.189  52.907  1.00  0.00    -0.773 OA
HETATM   29  H1  UNL     1      30.206   3.449  52.945  1.00  0.00     0.167 HD
ENDBRANCH  26  28
ENDBRANCH   1  26
TORSDOF 5
ENDMDL
MODEL 2
REMARK VINA RESULT:      -8.4      1.319      1.613
REMARK  5 active torsions:
REMARK  status: ('A' for Active; 'I' for Inactive)
REMARK    1  A    between atoms: C1_2  and  O2_3 
REMARK    2  A    between atoms: C1_2  and  C2_4 
REMARK    3  A    between atoms: C6_8  and  O3_9 
REMARK    4  A    between atoms: C9_13  and  N2_14 
REMARK    5  A    between atoms: N2_14  and  C10_15 
ROOT
HETATM    1  C2  UNL     1      27.533   1.485  53.349  1.00  0.00     0.068 A 
HETATM    2  C3  UNL     1      26.951   1.581  52.169  1.00  0.00     0.010 A 
HETATM    3  C4  UNL     1      25.794   0.673  52.191  1.00  0.00     0.097 A 
HETATM    4  C5  UNL     1      25.800   0.043  53.558  1.00  0.00    -0.015 A 
HETATM    5  C6  UNL     1      26.852   0.553  54.220  1.00  0.00     0.087 A 
HETATM    6  C7  UNL     1      24.703  -0.917  53.800  1.00  0.00     0.158 C 
HETATM    7  N1  UNL     1      23.498  -0.400  53.141  1.00  0.00    -0.381 N 
HETATM    8  C8  UNL     1      23.404   0.965  52.681  1.00  0.00     0.101 A 
HETATM    9  C9  UNL     1      22.227   1.680  52.718  1.00  0.00     0.158 A 
HETATM   10  N3  UNL     1      22.254   2.935  52.257  1.00  0.00    -0.222 NA
HETATM   11  C16 UNL     1      23.346   3.503  51.778  1.00  0.00     0.235 A 
HETATM   12  N4  UNL     1      24.494   2.810  51.740  1.00  0.00    -0.243 NA
HETATM   13  C17 UNL     1      24.562   1.528  52.186  1.00  0.00     0.078 A 
HETATM   14  H7  UNL     1      22.640  -1.000  52.968  1.00  0.00     0.160 HD
ENDROOT
BRANCH   9  15
HETATM   15  N2  UNL     1      21.073   1.048  53.249  1.00  0.00    -0.339 N 
HETATM   16  H8  UNL     1      21.028   0.820  54.264  1.00  0.00     0.167 HD
BRANCH  15  17
HETATM   17  C10 UNL     1      19.880   0.646  52.594  1.00  0.00     0.035 A 
HETATM   18  C11 UNL     1      19.138  -0.484  52.955  1.00  0.00     0.029 A 
HETATM   19  C12 UNL     1      17.993  -0.865  52.321  1.00  0.00     0.004 A 
HETATM   20  C13 UNL     1      17.497  -0.145  51.271  1.00  0.00     0.019 A 
HETATM   21  C14 UNL     1      18.179   0.981  50.863  1.00  0.00     0.013 A 
HETATM   22 BR1  UNL     1      17.457   1.960  49.399  1.00  0.00    -0.051 Br
HETATM   23  C15 UNL     1      19.334   1.330  51.533  1.00  0.00     0.048 A 
ENDBRANCH  15  17
ENDBRANCH   9  15
BRANCH   5  24
HETATM   24  O3  UNL     1      27.125   0.163  55.519  1.00  0.00    -0.359 OA
HETATM   25  H4  UNL     1      28.064  -0.134  55.757  1.00  0.00     0.217 HD
ENDBRANCH   5  24
BRANCH   1  26
HETATM   26  C1  UNL     1      28.726   2.215  53.769  1.00  0.00     0.178 C 
HETATM   27  O1  UNL     1      29.315   2.149  54.883  1.00  0.00    -0.646 OA
BRANCH  26  28
HETATM   28  O2  UNL     1      29.413   3.124  52.975  1.00  0.00    -0.773 OA
HETATM   29  H1  UNL     1      30.298   2.905  52.531  1.00  0.00     0.167 HD
ENDBRANCH  26  28
ENDBRANCH   1  26
TORSDOF 5
ENDMDL
MODEL 3
REMARK VINA RESULT:      -7.9      5.281      8.040
REMARK  5 active torsions:
REMARK  status: ('A' for Active; 'I' for Inactive)
REMARK    1  A    between atoms: C1_2  and  O2_3 
REMARK    2  A    between atoms: C1_2  and  C2_4 
REMARK    3  A    between atoms: C6_8  and  O3_9 
REMARK    4  A    between atoms: C9_13  and  N2_14 
REMARK    5  A    between atoms: N2_14  and  C10_15 
ROOT
HETATM    1  C2  UNL     1      23.999   0.283  53.480  1.00  0.00     0.068 A 
HETATM    2  C3  UNL     1      23.643   1.550  53.405  1.00  0.00     0.010 A 
HETATM    3  C4  UNL     1      24.854   2.314  53.066  1.00  0.00     0.097 A 
HETATM    4  C5  UNL     1      25.956   1.294  52.958  1.00  0.00    -0.015 A 
HETATM    5  C6  UNL     1      25.408   0.095  53.211  1.00  0.00     0.087 A 
HETATM    6  C7  UNL     1      27.282   1.853  52.618  1.00  0.00     0.158 C 
HETATM    7  N1  UNL     1      27.077   2.944  51.658  1.00  0.00    -0.381 N 
HETATM    8  C8  UNL     1      25.827   3.126  50.961  1.00  0.00     0.101 A 
HETATM    9  C9  UNL     1      25.761   3.590  49.665  1.00  0.00     0.158 A 
HETATM   10  N3  UNL     1      24.547   3.728  49.122  1.00  0.00    -0.222 NA
HETATM   11  C16 UNL     1      23.432   3.440  49.767  1.00  0.00     0.235 A 
HETATM   12  N4  UNL     1      23.491   2.987  51.029  1.00  0.00    -0.243 NA
HETATM   13  C17 UNL     1      24.681   2.816  51.663  1.00  0.00     0.078 A 
HETATM   14  H7  UNL     1      27.834   3.653  51.430  1.00  0.00     0.160 HD
ENDROOT
BRANCH   9  15
HETATM   15  N2  UNL     1      26.976   3.880  48.993  1.00  0.00    -0.339 N 
HETATM   16  H8  UNL     1      27.616   3.104  48.721  1.00  0.00     0.167 HD
BRANCH  15  17
HETATM   17  C10 UNL     1      27.511   5.131  48.591  1.00  0.00     0.035 A 
HETATM   18  C11 UNL     1      26.756   6.305  48.496  1.00  0.00     0.029 A 
HETATM   19  C12 UNL     1      27.275   7.504  48.108  1.00  0.00     0.004 A 
HETATM   20  C13 UNL     1      28.596   7.626  47.782  1.00  0.00     0.019 A 
HETATM   21  C14 UNL     1      29.399   6.508  47.854  1.00  0.00     0.013 A 
HETATM   22 BR1  UNL     1      31.235   6.716  47.393  1.00  0.00    -0.051 Br
HETATM   23  C15 UNL     1      28.831   5.314  48.251  1.00  0.00     0.048 A 
ENDBRANCH  15  17
ENDBRANCH   9  15
BRANCH   5  24
HETATM   24  O3  UNL     1      26.178  -1.054  53.187  1.00  0.00    -0.359 OA
HETATM   25  H4  UNL     1      26.400  -1.479  52.294  1.00  0.00     0.217 HD
ENDBRANCH   5  24
BRANCH   1  26
HETATM   26  C1  UNL     1      23.109  -0.832  53.794  1.00  0.00     0.178 C 
HETATM   27  O1  UNL     1      22.370  -1.473  52.997  1.00  0.00    -0.646 OA
BRANCH  26  28
HETATM   28  O2  UNL     1      22.938  -1.369  55.062  1.00  0.00    -0.773 OA
HETATM   29  H1  UNL     1      22.873  -0.796  55.896  1.00  0.00     0.167 HD
ENDBRANCH  26  28
ENDBRANCH   1  26
TORSDOF 5
ENDMDL
MODEL 4
REMARK VINA RESULT:      -7.8      5.148      7.623
REMARK  5 active torsions:
REMARK  status: ('A' for Active; 'I' for Inactive)
REMARK    1  A    between atoms: C1_2  and  O2_3 
REMARK    2  A    between atoms: C1_2  and  C2_4 
REMARK    3  A    between atoms: C6_8  and  O3_9 
REMARK    4  A    between atoms: C9_13  and  N2_14 
REMARK    5  A    between atoms: N2_14  and  C10_15 
ROOT
HETATM    1  C2  UNL     1      19.634  -0.537  52.861  1.00  0.00     0.068 A 
HETATM    2  C3  UNL     1      19.661   0.159  51.740  1.00  0.00     0.010 A 
HETATM    3  C4  UNL     1      18.293   0.148  51.199  1.00  0.00     0.097 A 
HETATM    4  C5  UNL     1      17.479  -0.658  52.177  1.00  0.00    -0.015 A 
HETATM    5  C6  UNL     1      18.314  -1.049  53.154  1.00  0.00     0.087 A 
HETATM    6  C7  UNL     1      16.052  -0.798  51.823  1.00  0.00     0.158 C 
HETATM    7  N1  UNL     1      15.607   0.472  51.237  1.00  0.00    -0.381 N 
HETATM    8  C8  UNL     1      16.382   1.684  51.357  1.00  0.00     0.101 A 
HETATM    9  C9  UNL     1      15.801   2.926  51.482  1.00  0.00     0.158 A 
HETATM   10  N3  UNL     1      16.617   3.981  51.578  1.00  0.00    -0.222 NA
HETATM   11  C16 UNL     1      17.933   3.878  51.559  1.00  0.00     0.235 A 
HETATM   12  N4  UNL     1      18.503   2.669  51.438  1.00  0.00    -0.243 NA
HETATM   13  C17 UNL     1      17.754   1.541  51.334  1.00  0.00     0.078 A 
HETATM   14  H7  UNL     1      14.698   0.564  50.695  1.00  0.00     0.160 HD
ENDROOT
BRANCH   9  15
HETATM   15  N2  UNL     1      14.385   3.006  51.511  1.00  0.00    -0.339 N 
HETATM   16  H8  UNL     1      13.847   2.991  50.619  1.00  0.00     0.167 HD
BRANCH  15  17
HETATM   17  C10 UNL     1      13.506   3.104  52.621  1.00  0.00     0.035 A 
HETATM   18  C11 UNL     1      13.019   4.316  53.122  1.00  0.00     0.029 A 
HETATM   19  C12 UNL     1      12.176   4.403  54.190  1.00  0.00     0.004 A 
HETATM   20  C13 UNL     1      11.753   3.282  54.846  1.00  0.00     0.019 A 
HETATM   21  C14 UNL     1      12.195   2.053  54.404  1.00  0.00     0.013 A 
HETATM   22 BR1  UNL     1      11.584   0.513  55.342  1.00  0.00    -0.051 Br
HETATM   23  C15 UNL     1      13.048   2.011  53.320  1.00  0.00     0.048 A 
ENDBRANCH  15  17
ENDBRANCH   9  15
BRANCH   5  24
HETATM   24  O3  UNL     1      17.855  -1.814  54.211  1.00  0.00    -0.359 OA
HETATM   25  H4  UNL     1      18.437  -2.563  54.566  1.00  0.00     0.217 HD
ENDBRANCH   5  24
BRANCH   1  26
HETATM   26  C1  UNL     1      20.779  -0.785  53.732  1.00  0.00     0.178 C 
HETATM   27  O1  UNL     1      21.929  -0.271  53.655  1.00  0.00    -0.646 OA
BRANCH  26  28
HETATM   28  O2  UNL     1      20.772  -1.657  54.813  1.00  0.00    -0.773 OA
HETATM   29  H1  UNL     1      20.266  -2.536  54.805  1.00  0.00     0.167 HD
ENDBRANCH  26  28
ENDBRANCH   1  26
TORSDOF 5
ENDMDL
MODEL 5
REMARK VINA RESULT:      -7.7      5.816      7.897
REMARK  5 active torsions:
REMARK  status: ('A' for Active; 'I' for Inactive)
REMARK    1  A    between atoms: C1_2  and  O2_3 
REMARK    2  A    between atoms: C1_2  and  C2_4 
REMARK    3  A    between atoms: C6_8  and  O3_9 
REMARK    4  A    between atoms: C9_13  and  N2_14 
REMARK    5  A    between atoms: N2_14  and  C10_15 
ROOT
HETATM    1  C2  UNL     1      27.996   9.201  48.635  1.00  0.00     0.068 A 
HETATM    2  C3  UNL     1      26.913   8.735  48.041  1.00  0.00     0.010 A 
HETATM    3  C4  UNL     1      27.127   7.294  47.836  1.00  0.00     0.097 A 
HETATM    4  C5  UNL     1      28.492   7.004  48.400  1.00  0.00    -0.015 A 
HETATM    5  C6  UNL     1      28.979   8.166  48.867  1.00  0.00     0.087 A 
HETATM    6  C7  UNL     1      28.915   5.592  48.297  1.00  0.00     0.158 C 
HETATM    7  N1  UNL     1      27.736   4.751  48.533  1.00  0.00    -0.381 N 
HETATM    8  C8  UNL     1      26.521   5.280  49.106  1.00  0.00     0.101 A 
HETATM    9  C9  UNL     1      25.719   4.545  49.951  1.00  0.00     0.158 A 
HETATM   10  N3  UNL     1      24.612   5.134  50.416  1.00  0.00    -0.222 NA
HETATM   11  C16 UNL     1      24.267   6.369  50.102  1.00  0.00     0.235 A 
HETATM   12  N4  UNL     1      25.045   7.089  49.280  1.00  0.00    -0.243 NA
HETATM   13  C17 UNL     1      26.189   6.573  48.758  1.00  0.00     0.078 A 
HETATM   14  H7  UNL     1      27.715   3.717  48.294  1.00  0.00     0.160 HD
ENDROOT
BRANCH   9  15
HETATM   15  N2  UNL     1      26.121   3.225  50.280  1.00  0.00    -0.339 N 
HETATM   16  H8  UNL     1      26.889   2.769  49.744  1.00  0.00     0.167 HD
BRANCH  15  17
HETATM   17  C10 UNL     1      25.629   2.354  51.287  1.00  0.00     0.035 A 
HETATM   18  C11 UNL     1      24.296   1.938  51.371  1.00  0.00     0.029 A 
HETATM   19  C12 UNL     1      23.829   1.102  52.341  1.00  0.00     0.004 A 
HETATM   20  C13 UNL     1      24.662   0.613  53.309  1.00  0.00     0.019 A 
HETATM   21  C14 UNL     1      25.989   0.983  53.285  1.00  0.00     0.013 A 
HETATM   22 BR1  UNL     1      27.119   0.281  54.648  1.00  0.00    -0.051 Br
HETATM   23  C15 UNL     1      26.419   1.832  52.285  1.00  0.00     0.048 A 
ENDBRANCH  15  17
ENDBRANCH   9  15
BRANCH   5  24
HETATM   24  O3  UNL     1      30.231   8.223  49.452  1.00  0.00    -0.359 OA
HETATM   25  H4  UNL     1      30.944   8.809  49.033  1.00  0.00     0.217 HD
ENDBRANCH   5  24
BRANCH   1  26
HETATM   26  C1  UNL     1      28.217  10.590  49.027  1.00  0.00     0.178 C 
HETATM   27  O1  UNL     1      27.362  11.517  49.086  1.00  0.00    -0.646 OA
BRANCH  26  28
HETATM   28  O2  UNL     1      29.444  11.115  49.406  1.00  0.00    -0.773 OA
HETATM   29  H1  UNL     1      29.613  12.112  49.483  1.00  0.00     0.167 HD
ENDBRANCH  26  28
ENDBRANCH   1  26
TORSDOF 5
ENDMDL
MODEL 6
REMARK VINA RESULT:      -7.7      5.284      8.165
REMARK  5 active torsions:
REMARK  status: ('A' for Active; 'I' for Inactive)
REMARK    1  A    between atoms: C1_2  and  O2_3 
REMARK    2  A    between atoms: C1_2  and  C2_4 
REMARK    3  A    between atoms: C6_8  and  O3_9 
REMARK    4  A    between atoms: C9_13  and  N2_14 
REMARK    5  A    between atoms: N2_14  and  C10_15 
ROOT
HETATM    1  C2  UNL     1      23.348   0.717  53.009  1.00  0.00     0.068 A 
HETATM    2  C3  UNL     1      23.127   2.016  52.955  1.00  0.00     0.010 A 
HETATM    3  C4  UNL     1      24.436   2.662  52.766  1.00  0.00     0.097 A 
HETATM    4  C5  UNL     1      25.437   1.539  52.719  1.00  0.00    -0.015 A 
HETATM    5  C6  UNL     1      24.751   0.395  52.868  1.00  0.00     0.087 A 
HETATM    6  C7  UNL     1      26.838   1.970  52.532  1.00  0.00     0.158 C 
HETATM    7  N1  UNL     1      26.839   3.107  51.604  1.00  0.00    -0.381 N 
HETATM    8  C8  UNL     1      25.687   3.439  50.799  1.00  0.00     0.101 A 
HETATM    9  C9  UNL     1      25.796   3.950  49.525  1.00  0.00     0.158 A 
HETATM   10  N3  UNL     1      24.661   4.229  48.874  1.00  0.00    -0.222 NA
HETATM   11  C16 UNL     1      23.464   4.036  49.398  1.00  0.00     0.235 A 
HETATM   12  N4  UNL     1      23.354   3.538  50.639  1.00  0.00    -0.243 NA
HETATM   13  C17 UNL     1      24.452   3.226  51.376  1.00  0.00     0.078 A 
HETATM   14  H7  UNL     1      27.680   3.742  51.479  1.00  0.00     0.160 HD
ENDROOT
BRANCH   9  15
HETATM   15  N2  UNL     1      27.094   4.136  48.984  1.00  0.00    -0.339 N 
HETATM   16  H8  UNL     1      27.733   3.320  48.879  1.00  0.00     0.167 HD
BRANCH  15  17
HETATM   17  C10 UNL     1      27.720   5.323  48.521  1.00  0.00     0.035 A 
HETATM   18  C11 UNL     1      29.080   5.412  48.206  1.00  0.00     0.029 A 
HETATM   19  C12 UNL     1      29.676   6.555  47.763  1.00  0.00     0.004 A 
HETATM   20  C13 UNL     1      28.956   7.706  47.600  1.00  0.00     0.019 A 
HETATM   21  C14 UNL     1      27.609   7.688  47.893  1.00  0.00     0.013 A 
HETATM   22 BR1  UNL     1      26.639   9.309  47.653  1.00  0.00    -0.051 Br
HETATM   23  C15 UNL     1      27.048   6.509  48.339  1.00  0.00     0.048 A 
ENDBRANCH  15  17
ENDBRANCH   9  15
BRANCH   5  24
HETATM   24  O3  UNL     1      25.403  -0.825  52.868  1.00  0.00    -0.359 OA
HETATM   25  H4  UNL     1      25.638  -1.258  51.982  1.00  0.00     0.217 HD
ENDBRANCH   5  24
BRANCH   1  26
HETATM   26  C1  UNL     1      22.326  -0.310  53.190  1.00  0.00     0.178 C 
HETATM   27  O1  UNL     1      22.457  -1.436  53.746  1.00  0.00    -0.646 OA
BRANCH  26  28
HETATM   28  O2  UNL     1      21.011  -0.198  52.759  1.00  0.00    -0.773 OA
HETATM   29  H1  UNL     1      20.276  -0.822  53.072  1.00  0.00     0.167 HD
ENDBRANCH  26  28
ENDBRANCH   1  26
TORSDOF 5
ENDMDL
MODEL 7
REMARK VINA RESULT:      -7.6      1.717      2.072
REMARK  5 active torsions:
REMARK  status: ('A' for Active; 'I' for Inactive)
REMARK    1  A    between atoms: C1_2  and  O2_3 
REMARK    2  A    between atoms: C1_2  and  C2_4 
REMARK    3  A    between atoms: C6_8  and  O3_9 
REMARK    4  A    between atoms: C9_13  and  N2_14 
REMARK    5  A    between atoms: N2_14  and  C10_15 
ROOT
HETATM    1  C2  UNL     1      27.248   0.311  53.267  1.00  0.00     0.068 A 
HETATM    2  C3  UNL     1      26.806   0.522  52.043  1.00  0.00     0.010 A 
HETATM    3  C4  UNL     1      25.359   0.255  52.060  1.00  0.00     0.097 A 
HETATM    4  C5  UNL     1      25.039  -0.141  53.477  1.00  0.00    -0.015 A 
HETATM    5  C6  UNL     1      26.190  -0.095  54.166  1.00  0.00     0.087 A 
HETATM    6  C7  UNL     1      23.617  -0.457  53.722  1.00  0.00     0.158 C 
HETATM    7  N1  UNL     1      22.805   0.472  52.927  1.00  0.00    -0.381 N 
HETATM    8  C8  UNL     1      23.365   1.664  52.335  1.00  0.00     0.101 A 
HETATM    9  C9  UNL     1      22.653   2.837  52.216  1.00  0.00     0.158 A 
HETATM   10  N3  UNL     1      23.271   3.876  51.643  1.00  0.00    -0.222 NA
HETATM   11  C16 UNL     1      24.512   3.820  51.198  1.00  0.00     0.235 A 
HETATM   12  N4  UNL     1      25.209   2.679  51.313  1.00  0.00    -0.243 NA
HETATM   13  C17 UNL     1      24.664   1.572  51.881  1.00  0.00     0.078 A 
HETATM   14  H7  UNL     1      21.771   0.316  52.746  1.00  0.00     0.160 HD
ENDROOT
BRANCH   9  15
HETATM   15  N2  UNL     1      21.325   2.870  52.713  1.00  0.00    -0.339 N 
HETATM   16  H8  UNL     1      21.158   2.957  53.737  1.00  0.00     0.167 HD
BRANCH  15  17
HETATM   17  C10 UNL     1      20.094   2.808  52.009  1.00  0.00     0.035 A 
HETATM   18  C11 UNL     1      19.447   3.927  51.474  1.00  0.00     0.029 A 
HETATM   19  C12 UNL     1      18.264   3.860  50.800  1.00  0.00     0.004 A 
HETATM   20  C13 UNL     1      17.630   2.665  50.608  1.00  0.00     0.019 A 
HETATM   21  C14 UNL     1      18.213   1.521  51.110  1.00  0.00     0.013 A 
HETATM   22 BR1  UNL     1      17.302  -0.125  50.822  1.00  0.00    -0.051 Br
HETATM   23  C15 UNL     1      19.411   1.635  51.786  1.00  0.00     0.048 A 
ENDBRANCH  15  17
ENDBRANCH   9  15
BRANCH   5  24
HETATM   24  O3  UNL     1      26.220  -0.410  55.513  1.00  0.00    -0.359 OA
HETATM   25  H4  UNL     1      25.645   0.122  56.156  1.00  0.00     0.217 HD
ENDBRANCH   5  24
BRANCH   1  26
HETATM   26  C1  UNL     1      28.632   0.459  53.707  1.00  0.00     0.178 C 
HETATM   27  O1  UNL     1      29.258  -0.265  54.530  1.00  0.00    -0.646 OA
BRANCH  26  28
HETATM   28  O2  UNL     1      29.496   1.453  53.269  1.00  0.00    -0.773 OA
HETATM   29  H1  UNL     1      29.229   2.147  52.579  1.00  0.00     0.167 HD
ENDBRANCH  26  28
ENDBRANCH   1  26
TORSDOF 5
ENDMDL
MODEL 8
REMARK VINA RESULT:      -7.5      3.989      6.231
REMARK  5 active torsions:
REMARK  status: ('A' for Active; 'I' for Inactive)
REMARK    1  A    between atoms: C1_2  and  O2_3 
REMARK    2  A    between atoms: C1_2  and  C2_4 
REMARK    3  A    between atoms: C6_8  and  O3_9 
REMARK    4  A    between atoms: C9_13  and  N2_14 
REMARK    5  A    between atoms: N2_14  and  C10_15 
ROOT
HETATM    1  C2  UNL     1      26.137  -0.756  52.985  1.00  0.00     0.068 A 
HETATM    2  C3  UNL     1      24.838  -0.679  53.202  1.00  0.00     0.010 A 
HETATM    3  C4  UNL     1      24.555   0.705  53.611  1.00  0.00     0.097 A 
HETATM    4  C5  UNL     1      25.885   1.410  53.596  1.00  0.00    -0.015 A 
HETATM    5  C6  UNL     1      26.804   0.506  53.218  1.00  0.00     0.087 A 
HETATM    6  C7  UNL     1      25.832   2.836  53.980  1.00  0.00     0.158 C 
HETATM    7  N1  UNL     1      24.597   3.405  53.427  1.00  0.00    -0.381 N 
HETATM    8  C8  UNL     1      23.826   2.724  52.414  1.00  0.00     0.101 A 
HETATM    9  C9  UNL     1      23.154   3.396  51.418  1.00  0.00     0.158 A 
HETATM   10  N3  UNL     1      22.465   2.663  50.537  1.00  0.00    -0.222 NA
HETATM   11  C16 UNL     1      22.407   1.345  50.586  1.00  0.00     0.235 A 
HETATM   12  N4  UNL     1      23.062   0.686  51.554  1.00  0.00    -0.243 NA
HETATM   13  C17 UNL     1      23.787   1.347  52.494  1.00  0.00     0.078 A 
HETATM   14  H7  UNL     1      24.207   4.340  53.745  1.00  0.00     0.160 HD
ENDROOT
BRANCH   9  15
HETATM   15  N2  UNL     1      23.243   4.812  51.384  1.00  0.00    -0.339 N 
HETATM   16  H8  UNL     1      22.519   5.388  51.861  1.00  0.00     0.167 HD
BRANCH  15  17
HETATM   17  C10 UNL     1      24.220   5.642  50.774  1.00  0.00     0.035 A 
HETATM   18  C11 UNL     1      24.176   7.040  50.802  1.00  0.00     0.029 A 
HETATM   19  C12 UNL     1      25.117   7.833  50.214  1.00  0.00     0.004 A 
HETATM   20  C13 UNL     1      26.178   7.289  49.548  1.00  0.00     0.019 A 
HETATM   21  C14 UNL     1      26.283   5.916  49.482  1.00  0.00     0.013 A 
HETATM   22 BR1  UNL     1      27.776   5.194  48.547  1.00  0.00    -0.051 Br
HETATM   23  C15 UNL     1      25.308   5.152  50.092  1.00  0.00     0.048 A 
ENDBRANCH  15  17
ENDBRANCH   9  15
BRANCH   5  24
HETATM   24  O3  UNL     1      28.137   0.858  53.108  1.00  0.00    -0.359 OA
HETATM   25  H4  UNL     1      28.380   1.832  52.972  1.00  0.00     0.217 HD
ENDBRANCH   5  24
BRANCH   1  26
HETATM   26  C1  UNL     1      26.857  -1.953  52.560  1.00  0.00     0.178 C 
HETATM   27  O1  UNL     1      27.928  -2.416  53.042  1.00  0.00    -0.646 OA
BRANCH  26  28
HETATM   28  O2  UNL     1      26.457  -2.787  51.526  1.00  0.00    -0.773 OA
HETATM   29  H1  UNL     1      25.876  -3.605  51.675  1.00  0.00     0.167 HD
ENDBRANCH  26  28
ENDBRANCH   1  26
TORSDOF 5
ENDMDL
MODEL 9
REMARK VINA RESULT:      -7.4      4.276      6.328
REMARK  5 active torsions:
REMARK  status: ('A' for Active; 'I' for Inactive)
REMARK    1  A    between atoms: C1_2  and  O2_3 
REMARK    2  A    between atoms: C1_2  and  C2_4 
REMARK    3  A    between atoms: C6_8  and  O3_9 
REMARK    4  A    between atoms: C9_13  and  N2_14 
REMARK    5  A    between atoms: N2_14  and  C10_15 
ROOT
HETATM    1  C2  UNL     1      25.771   7.467  48.192  1.00  0.00     0.068 A 
HETATM    2  C3  UNL     1      24.621   6.831  48.083  1.00  0.00     0.010 A 
HETATM    3  C4  UNL     1      24.840   5.466  48.587  1.00  0.00     0.097 A 
HETATM    4  C5  UNL     1      26.287   5.416  49.001  1.00  0.00    -0.015 A 
HETATM    5  C6  UNL     1      26.808   6.628  48.750  1.00  0.00     0.087 A 
HETATM    6  C7  UNL     1      26.727   4.116  49.547  1.00  0.00     0.158 C 
HETATM    7  N1  UNL     1      25.626   3.568  50.347  1.00  0.00    -0.381 N 
HETATM    8  C8  UNL     1      24.506   4.376  50.764  1.00  0.00     0.101 A 
HETATM    9  C9  UNL     1      23.873   4.199  51.974  1.00  0.00     0.158 A 
HETATM   10  N3  UNL     1      22.839   5.001  52.252  1.00  0.00    -0.222 NA
HETATM   11  C16 UNL     1      22.412   5.939  51.426  1.00  0.00     0.235 A 
HETATM   12  N4  UNL     1      23.027   6.115  50.246  1.00  0.00    -0.243 NA
HETATM   13  C17 UNL     1      24.085   5.346  49.878  1.00  0.00     0.078 A 
HETATM   14  H7  UNL     1      25.597   2.553  50.658  1.00  0.00     0.160 HD
ENDROOT
BRANCH   9  15
HETATM   15  N2  UNL     1      24.361   3.192  52.846  1.00  0.00    -0.339 N 
HETATM   16  H8  UNL     1      25.169   3.395  53.470  1.00  0.00     0.167 HD
BRANCH  15  17
HETATM   17  C10 UNL     1      23.904   1.862  53.037  1.00  0.00     0.035 A 
HETATM   18  C11 UNL     1      24.754   0.773  53.257  1.00  0.00     0.029 A 
HETATM   19  C12 UNL     1      24.310  -0.503  53.438  1.00  0.00     0.004 A 
HETATM   20  C13 UNL     1      22.975  -0.793  53.412  1.00  0.00     0.019 A 
HETATM   21  C14 UNL     1      22.081   0.234  53.199  1.00  0.00     0.013 A 
HETATM   22 BR1  UNL     1      20.229  -0.208  53.171  1.00  0.00    -0.051 Br
HETATM   23  C15 UNL     1      22.575   1.510  53.021  1.00  0.00     0.048 A 
ENDBRANCH  15  17
ENDBRANCH   9  15
BRANCH   5  24
HETATM   24  O3  UNL     1      28.137   6.897  49.028  1.00  0.00    -0.359 OA
HETATM   25  H4  UNL     1      28.818   6.840  48.280  1.00  0.00     0.217 HD
ENDBRANCH   5  24
BRANCH   1  26
HETATM   26  C1  UNL     1      26.013   8.855  47.807  1.00  0.00     0.178 C 
HETATM   27  O1  UNL     1      25.154   9.731  47.512  1.00  0.00    -0.646 OA
BRANCH  26  28
HETATM   28  O2  UNL     1      27.269   9.436  47.703  1.00  0.00    -0.773 OA
HETATM   29  H1  UNL     1      27.404  10.436  47.604  1.00  0.00     0.167 HD
ENDBRANCH  26  28
ENDBRANCH   1  26
TORSDOF 5
ENDMDL
