MODEL 1
REMARK VINA RESULT:      -7.6      0.000      0.000
REMARK  5 active torsions:
REMARK  status: ('A' for Active; 'I' for Inactive)
REMARK    1  A    between atoms: N1_1  and  C1_2 
REMARK    2  A    between atoms: C3_4  and  C4_5 
REMARK    3  A    between atoms: C4_5  and  C5_6 
REMARK    4  A    between atoms: C6_7  and  C7_8 
REMARK    5  A    between atoms: C7_8  and  C8_9 
ROOT
HETATM    1  C1  UNL     1      23.238   2.233  51.796  1.00  0.00     0.095 C 
HETATM    2  C2  UNL     1      23.760   1.385  52.660  1.00  0.00     0.017 C 
HETATM    3  C3  UNL     1      25.191   1.546  52.926  1.00  0.00     0.051 C 
HETATM    4  N2  UNL     1      25.718   0.745  53.715  1.00  0.00    -0.246 NA
HETATM    5  C9  UNL     1      27.005   0.640  54.156  1.00  0.00     0.229 C 
HETATM    6  N3  UNL     1      26.815  -0.662  54.033  1.00  0.00    -0.257 NA
HETATM    7  C10 UNL     1      25.496  -1.103  53.552  1.00  0.00     0.325 C 
HETATM    8  O1  UNL     1      24.538  -0.514  54.410  1.00  0.00    -0.329 OA
HETATM    9  C11 UNL     1      23.183  -0.635  54.187  1.00  0.00     0.082 A 
HETATM   10  C12 UNL     1      22.322  -1.540  54.729  1.00  0.00     0.038 A 
HETATM   11  C13 UNL     1      21.006  -1.445  54.338  1.00  0.00     0.003 A 
HETATM   12  C14 UNL     1      20.629  -0.469  53.441  1.00  0.00     0.001 A 
HETATM   13  C15 UNL     1      21.585   0.396  52.955  1.00  0.00     0.015 A 
HETATM   14  C16 UNL     1      22.923   0.375  53.291  1.00  0.00     0.011 A 
ENDROOT
BRANCH   3  15
HETATM   15  C4  UNL     1      26.035   2.609  52.346  1.00  0.00     0.087 C 
BRANCH  15  16
HETATM   16  C5  UNL     1      26.556   2.132  51.038  1.00  0.00    -0.021 C 
HETATM   17  C6  UNL     1      26.556   2.925  49.999  1.00  0.00    -0.002 C 
BRANCH  17  18
HETATM   18  C7  UNL     1      26.195   4.263  49.580  1.00  0.00     0.026 C 
BRANCH  18  19
HETATM   19  C8  UNL     1      26.130   5.543  49.283  1.00  0.00     0.052 C 
HETATM   20 BR1  UNL     1      27.139   6.798  48.301  1.00  0.00    -0.044 Br
HETATM   21  I1  UNL     1      24.358   6.046  50.291  1.00  0.00    -0.036 I 
ENDBRANCH  18  19
ENDBRANCH  17  18
ENDBRANCH  15  16
ENDBRANCH   3  15
BRANCH   1  22
HETATM   22  N1  UNL     1      22.141   2.720  51.077  1.00  0.00    -0.407 N 
HETATM   23  H1  UNL     1      21.278   3.176  51.467  1.00  0.00     0.155 HD
HETATM   24  H2  UNL     1      22.024   2.708  50.029  1.00  0.00     0.155 HD
ENDBRANCH   1  22
TORSDOF 5
ENDMDL
MODEL 2
REMARK VINA RESULT:      -7.5      4.541      6.576
REMARK  5 active torsions:
REMARK  status: ('A' for Active; 'I' for Inactive)
REMARK    1  A    between atoms: N1_1  and  C1_2 
REMARK    2  A    between atoms: C3_4  and  C4_5 
REMARK    3  A    between atoms: C4_5  and  C5_6 
REMARK    4  A    between atoms: C6_7  and  C7_8 
REMARK    5  A    between atoms: C7_8  and  C8_9 
ROOT
HETATM    1  C1  UNL     1      22.988   2.583  52.350  1.00  0.00     0.095 C 
HETATM    2  C2  UNL     1      23.123   1.342  52.775  1.00  0.00     0.017 C 
HETATM    3  C3  UNL     1      21.891   0.682  53.211  1.00  0.00     0.051 C 
HETATM    4  N2  UNL     1      21.989  -0.479  53.643  1.00  0.00    -0.246 NA
HETATM    5  C9  UNL     1      21.041  -1.341  54.113  1.00  0.00     0.229 C 
HETATM    6  N3  UNL     1      21.948  -1.655  55.021  1.00  0.00    -0.257 NA
HETATM    7  C10 UNL     1      23.239  -0.952  54.948  1.00  0.00     0.325 C 
HETATM    8  O1  UNL     1      23.727  -1.141  53.635  1.00  0.00    -0.329 OA
HETATM    9  C11 UNL     1      24.877  -0.528  53.185  1.00  0.00     0.082 A 
HETATM   10  C12 UNL     1      26.139  -1.036  53.151  1.00  0.00     0.038 A 
HETATM   11  C13 UNL     1      27.120  -0.212  52.650  1.00  0.00     0.003 A 
HETATM   12  C14 UNL     1      26.791   1.055  52.218  1.00  0.00     0.001 A 
HETATM   13  C15 UNL     1      25.479   1.468  52.297  1.00  0.00     0.015 A 
HETATM   14  C16 UNL     1      24.434   0.710  52.785  1.00  0.00     0.011 A 
ENDROOT
BRANCH   3  15
HETATM   15  C4  UNL     1      20.547   1.287  53.142  1.00  0.00     0.087 C 
BRANCH  15  16
HETATM   16  C5  UNL     1      20.039   1.141  51.753  1.00  0.00    -0.021 C 
HETATM   17  C6  UNL     1      18.980   0.413  51.511  1.00  0.00    -0.002 C 
BRANCH  17  18
HETATM   18  C7  UNL     1      17.986  -0.413  52.162  1.00  0.00     0.026 C 
BRANCH  18  19
HETATM   19  C8  UNL     1      17.274  -1.369  52.719  1.00  0.00     0.052 C 
HETATM   20 BR1  UNL     1      17.589  -3.009  53.595  1.00  0.00    -0.044 Br
HETATM   21  I1  UNL     1      15.346  -0.601  52.400  1.00  0.00    -0.036 I 
ENDBRANCH  18  19
ENDBRANCH  17  18
ENDBRANCH  15  16
ENDBRANCH   3  15
BRANCH   1  22
HETATM   22  N1  UNL     1      23.539   3.762  51.836  1.00  0.00    -0.407 N 
HETATM   23  H1  UNL     1      24.407   4.254  52.166  1.00  0.00     0.155 HD
HETATM   24  H2  UNL     1      23.163   4.330  51.031  1.00  0.00     0.155 HD
ENDBRANCH   1  22
TORSDOF 5
ENDMDL
MODEL 3
REMARK VINA RESULT:      -7.4      2.888      4.973
REMARK  5 active torsions:
REMARK  status: ('A' for Active; 'I' for Inactive)
REMARK    1  A    between atoms: N1_1  and  C1_2 
REMARK    2  A    between atoms: C3_4  and  C4_5 
REMARK    3  A    between atoms: C4_5  and  C5_6 
REMARK    4  A    between atoms: C6_7  and  C7_8 
REMARK    5  A    between atoms: C7_8  and  C8_9 
ROOT
HETATM    1  C1  UNL     1      22.672   2.377  52.323  1.00  0.00     0.095 C 
HETATM    2  C2  UNL     1      22.947   1.173  52.786  1.00  0.00     0.017 C 
HETATM    3  C3  UNL     1      21.820   0.445  53.372  1.00  0.00     0.051 C 
HETATM    4  N2  UNL     1      22.052  -0.682  53.841  1.00  0.00    -0.246 NA
HETATM    5  C9  UNL     1      21.227  -1.588  54.442  1.00  0.00     0.229 C 
HETATM    6  N3  UNL     1      22.240  -1.786  55.266  1.00  0.00    -0.257 NA
HETATM    7  C10 UNL     1      23.457  -0.992  55.032  1.00  0.00     0.325 C 
HETATM    8  O1  UNL     1      23.829  -1.211  53.686  1.00  0.00    -0.329 OA
HETATM    9  C11 UNL     1      24.876  -0.536  53.096  1.00  0.00     0.082 A 
HETATM   10  C12 UNL     1      26.166  -0.949  52.956  1.00  0.00     0.038 A 
HETATM   11  C13 UNL     1      27.024  -0.079  52.323  1.00  0.00     0.003 A 
HETATM   12  C14 UNL     1      26.554   1.136  51.873  1.00  0.00     0.001 A 
HETATM   13  C15 UNL     1      25.227   1.452  52.067  1.00  0.00     0.015 A 
HETATM   14  C16 UNL     1      24.298   0.643  52.690  1.00  0.00     0.011 A 
ENDROOT
BRANCH   3  15
HETATM   15  C4  UNL     1      20.431   0.943  53.414  1.00  0.00     0.087 C 
BRANCH  15  16
HETATM   16  C5  UNL     1      19.590   0.054  52.571  1.00  0.00    -0.021 C 
HETATM   17  C6  UNL     1      19.495   0.262  51.284  1.00  0.00    -0.002 C 
BRANCH  17  18
HETATM   18  C7  UNL     1      19.954   1.141  50.229  1.00  0.00     0.026 C 
BRANCH  18  19
HETATM   19  C8  UNL     1      20.600   1.967  49.435  1.00  0.00     0.052 C 
HETATM   20 BR1  UNL     1      22.022   1.884  48.199  1.00  0.00    -0.044 Br
HETATM   21  I1  UNL     1      19.569   3.745  49.866  1.00  0.00    -0.036 I 
ENDBRANCH  18  19
ENDBRANCH  17  18
ENDBRANCH  15  16
ENDBRANCH   3  15
BRANCH   1  22
HETATM   22  N1  UNL     1      23.074   3.567  51.706  1.00  0.00    -0.407 N 
HETATM   23  H1  UNL     1      22.708   3.971  50.807  1.00  0.00     0.155 HD
HETATM   24  H2  UNL     1      23.804   4.241  52.060  1.00  0.00     0.155 HD
ENDBRANCH   1  22
TORSDOF 5
ENDMDL
MODEL 4
REMARK VINA RESULT:      -7.2      3.524      5.126
REMARK  5 active torsions:
REMARK  status: ('A' for Active; 'I' for Inactive)
REMARK    1  A    between atoms: N1_1  and  C1_2 
REMARK    2  A    between atoms: C3_4  and  C4_5 
REMARK    3  A    between atoms: C4_5  and  C5_6 
REMARK    4  A    between atoms: C6_7  and  C7_8 
REMARK    5  A    between atoms: C7_8  and  C8_9 
ROOT
HETATM    1  C1  UNL     1      21.488  -0.242  53.812  1.00  0.00     0.095 C 
HETATM    2  C2  UNL     1      21.641   0.418  52.681  1.00  0.00     0.017 C 
HETATM    3  C3  UNL     1      22.978   0.966  52.439  1.00  0.00     0.051 C 
HETATM    4  N2  UNL     1      23.146   1.616  51.394  1.00  0.00    -0.246 NA
HETATM    5  C9  UNL     1      24.254   2.239  50.898  1.00  0.00     0.229 C 
HETATM    6  N3  UNL     1      23.413   3.197  50.549  1.00  0.00    -0.257 NA
HETATM    7  C10 UNL     1      21.995   2.997  50.887  1.00  0.00     0.325 C 
HETATM    8  O1  UNL     1      21.622   1.749  50.336  1.00  0.00    -0.329 OA
HETATM    9  C11 UNL     1      20.377   1.197  50.551  1.00  0.00     0.082 A 
HETATM   10  C12 UNL     1      19.278   1.271  49.751  1.00  0.00     0.038 A 
HETATM   11  C13 UNL     1      18.148   0.625  50.198  1.00  0.00     0.003 A 
HETATM   12  C14 UNL     1      18.178  -0.047  51.400  1.00  0.00     0.001 A 
HETATM   13  C15 UNL     1      19.347  -0.059  52.130  1.00  0.00     0.015 A 
HETATM   14  C16 UNL     1      20.523   0.559  51.760  1.00  0.00     0.011 A 
ENDROOT
BRANCH   3  15
HETATM   15  C4  UNL     1      24.136   0.770  53.332  1.00  0.00     0.087 C 
BRANCH  15  16
HETATM   16  C5  UNL     1      24.642  -0.615  53.145  1.00  0.00    -0.021 C 
HETATM   17  C6  UNL     1      25.928  -0.847  53.105  1.00  0.00    -0.002 C 
BRANCH  17  18
HETATM   18  C7  UNL     1      27.214  -0.187  53.181  1.00  0.00     0.026 C 
BRANCH  18  19
HETATM   19  C8  UNL     1      28.252   0.578  53.440  1.00  0.00     0.052 C 
HETATM   20 BR1  UNL     1      28.613   2.420  53.628  1.00  0.00    -0.044 Br
HETATM   21  I1  UNL     1      29.731  -0.897  53.651  1.00  0.00    -0.036 I 
ENDBRANCH  18  19
ENDBRANCH  17  18
ENDBRANCH  15  16
ENDBRANCH   3  15
BRANCH   1  22
HETATM   22  N1  UNL     1      20.690  -0.973  54.699  1.00  0.00    -0.407 N 
HETATM   23  H1  UNL     1      20.068  -0.590  55.456  1.00  0.00     0.155 HD
HETATM   24  H2  UNL     1      20.590  -2.022  54.734  1.00  0.00     0.155 HD
ENDBRANCH   1  22
TORSDOF 5
ENDMDL
MODEL 5
REMARK VINA RESULT:      -7.1      2.193      3.873
REMARK  5 active torsions:
REMARK  status: ('A' for Active; 'I' for Inactive)
REMARK    1  A    between atoms: N1_1  and  C1_2 
REMARK    2  A    between atoms: C3_4  and  C4_5 
REMARK    3  A    between atoms: C4_5  and  C5_6 
REMARK    4  A    between atoms: C6_7  and  C7_8 
REMARK    5  A    between atoms: C7_8  and  C8_9 
ROOT
HETATM    1  C1  UNL     1      25.608   2.534  52.809  1.00  0.00     0.095 C 
HETATM    2  C2  UNL     1      24.567   2.252  52.050  1.00  0.00     0.017 C 
HETATM    3  C3  UNL     1      24.401   3.091  50.861  1.00  0.00     0.051 C 
HETATM    4  N2  UNL     1      23.415   2.868  50.140  1.00  0.00    -0.246 NA
HETATM    5  C9  UNL     1      22.996   3.467  48.988  1.00  0.00     0.229 C 
HETATM    6  N3  UNL     1      21.786   3.349  49.506  1.00  0.00    -0.257 NA
HETATM    7  C10 UNL     1      21.687   2.725  50.835  1.00  0.00     0.325 C 
HETATM    8  O1  UNL     1      22.340   1.474  50.743  1.00  0.00    -0.329 OA
HETATM    9  C11 UNL     1      22.525   0.662  51.842  1.00  0.00     0.082 A 
HETATM   10  C12 UNL     1      21.751  -0.379  52.254  1.00  0.00     0.038 A 
HETATM   11  C13 UNL     1      22.158  -1.035  53.393  1.00  0.00     0.003 A 
HETATM   12  C14 UNL     1      23.298  -0.620  54.047  1.00  0.00     0.001 A 
HETATM   13  C15 UNL     1      24.008   0.447  53.541  1.00  0.00     0.015 A 
HETATM   14  C16 UNL     1      23.674   1.161  52.409  1.00  0.00     0.011 A 
ENDROOT
BRANCH   3  15
HETATM   15  C4  UNL     1      25.338   4.155  50.451  1.00  0.00     0.087 C 
BRANCH  15  16
HETATM   16  C5  UNL     1      26.450   3.530  49.688  1.00  0.00    -0.021 C 
HETATM   17  C6  UNL     1      27.236   4.266  48.947  1.00  0.00    -0.002 C 
BRANCH  17  18
HETATM   18  C7  UNL     1      27.467   5.632  48.529  1.00  0.00     0.026 C 
BRANCH  18  19
HETATM   19  C8  UNL     1      27.414   6.855  48.048  1.00  0.00     0.052 C 
HETATM   20 BR1  UNL     1      26.089   8.134  47.638  1.00  0.00    -0.044 Br
HETATM   21  I1  UNL     1      29.463   7.208  47.759  1.00  0.00    -0.036 I 
ENDBRANCH  18  19
ENDBRANCH  17  18
ENDBRANCH  15  16
ENDBRANCH   3  15
BRANCH   1  22
HETATM   22  N1  UNL     1      26.395   2.286  53.939  1.00  0.00    -0.407 N 
HETATM   23  H1  UNL     1      26.686   2.979  54.675  1.00  0.00     0.155 HD
HETATM   24  H2  UNL     1      26.810   1.359  54.223  1.00  0.00     0.155 HD
ENDBRANCH   1  22
TORSDOF 5
ENDMDL
MODEL 6
REMARK VINA RESULT:      -6.9      4.454      6.742
REMARK  5 active torsions:
REMARK  status: ('A' for Active; 'I' for Inactive)
REMARK    1  A    between atoms: N1_1  and  C1_2 
REMARK    2  A    between atoms: C3_4  and  C4_5 
REMARK    3  A    between atoms: C4_5  and  C5_6 
REMARK    4  A    between atoms: C6_7  and  C7_8 
REMARK    5  A    between atoms: C7_8  and  C8_9 
ROOT
HETATM    1  C1  UNL     1      21.912  -0.209  53.340  1.00  0.00     0.095 C 
HETATM    2  C2  UNL     1      22.623   0.768  52.812  1.00  0.00     0.017 C 
HETATM    3  C3  UNL     1      21.869   1.959  52.413  1.00  0.00     0.051 C 
HETATM    4  N2  UNL     1      22.507   2.886  51.887  1.00  0.00    -0.246 NA
HETATM    5  C9  UNL     1      22.097   4.101  51.419  1.00  0.00     0.229 C 
HETATM    6  N3  UNL     1      22.940   3.871  50.428  1.00  0.00    -0.257 NA
HETATM    7  C10 UNL     1      23.684   2.602  50.465  1.00  0.00     0.325 C 
HETATM    8  O1  UNL     1      24.329   2.549  51.722  1.00  0.00    -0.329 OA
HETATM    9  C11 UNL     1      25.037   1.442  52.137  1.00  0.00     0.082 A 
HETATM   10  C12 UNL     1      26.378   1.221  52.043  1.00  0.00     0.038 A 
HETATM   11  C13 UNL     1      26.839   0.022  52.537  1.00  0.00     0.003 A 
HETATM   12  C14 UNL     1      25.950  -0.876  53.087  1.00  0.00     0.001 A 
HETATM   13  C15 UNL     1      24.612  -0.549  53.132  1.00  0.00     0.015 A 
HETATM   14  C16 UNL     1      24.063   0.627  52.662  1.00  0.00     0.011 A 
ENDROOT
BRANCH   3  15
HETATM   15  C4  UNL     1      20.420   2.142  52.623  1.00  0.00     0.087 C 
BRANCH  15  16
HETATM   16  C5  UNL     1      19.729   1.932  51.324  1.00  0.00    -0.021 C 
HETATM   17  C6  UNL     1      18.908   0.928  51.169  1.00  0.00    -0.002 C 
BRANCH  17  18
HETATM   18  C7  UNL     1      18.341  -0.206  51.868  1.00  0.00     0.026 C 
BRANCH  18  19
HETATM   19  C8  UNL     1      17.653  -1.042  52.616  1.00  0.00     0.052 C 
HETATM   20 BR1  UNL     1      18.002  -2.527  53.725  1.00  0.00    -0.044 Br
HETATM   21  I1  UNL     1      15.720  -0.287  52.299  1.00  0.00    -0.036 I 
ENDBRANCH  18  19
ENDBRANCH  17  18
ENDBRANCH  15  16
ENDBRANCH   3  15
BRANCH   1  22
HETATM   22  N1  UNL     1      21.825  -1.486  53.904  1.00  0.00    -0.407 N 
HETATM   23  H1  UNL     1      22.048  -1.760  54.895  1.00  0.00     0.155 HD
HETATM   24  H2  UNL     1      21.515  -2.368  53.415  1.00  0.00     0.155 HD
ENDBRANCH   1  22
TORSDOF 5
ENDMDL
MODEL 7
REMARK VINA RESULT:      -6.8      3.804      6.058
REMARK  5 active torsions:
REMARK  status: ('A' for Active; 'I' for Inactive)
REMARK    1  A    between atoms: N1_1  and  C1_2 
REMARK    2  A    between atoms: C3_4  and  C4_5 
REMARK    3  A    between atoms: C4_5  and  C5_6 
REMARK    4  A    between atoms: C6_7  and  C7_8 
REMARK    5  A    between atoms: C7_8  and  C8_9 
ROOT
HETATM    1  C1  UNL     1      24.006   0.236  53.535  1.00  0.00     0.095 C 
HETATM    2  C2  UNL     1      24.811   1.150  53.030  1.00  0.00     0.017 C 
HETATM    3  C3  UNL     1      24.189   2.109  52.114  1.00  0.00     0.051 C 
HETATM    4  N2  UNL     1      24.927   2.966  51.601  1.00  0.00    -0.246 NA
HETATM    5  C9  UNL     1      24.650   3.976  50.726  1.00  0.00     0.229 C 
HETATM    6  N3  UNL     1      25.794   3.638  50.158  1.00  0.00    -0.257 NA
HETATM    7  C10 UNL     1      26.536   2.520  50.762  1.00  0.00     0.325 C 
HETATM    8  O1  UNL     1      26.707   2.842  52.128  1.00  0.00    -0.329 OA
HETATM    9  C11 UNL     1      27.277   1.961  53.022  1.00  0.00     0.082 A 
HETATM   10  C12 UNL     1      28.575   1.902  53.428  1.00  0.00     0.038 A 
HETATM   11  C13 UNL     1      28.891   0.920  54.338  1.00  0.00     0.003 A 
HETATM   12  C14 UNL     1      27.907   0.063  54.785  1.00  0.00     0.001 A 
HETATM   13  C15 UNL     1      26.623   0.214  54.308  1.00  0.00     0.015 A 
HETATM   14  C16 UNL     1      26.219   1.168  53.397  1.00  0.00     0.011 A 
ENDROOT
BRANCH   3  15
HETATM   15  C4  UNL     1      22.750   2.144  51.788  1.00  0.00     0.087 C 
BRANCH  15  16
HETATM   16  C5  UNL     1      22.542   1.413  50.511  1.00  0.00    -0.021 C 
HETATM   17  C6  UNL     1      21.429   0.761  50.298  1.00  0.00    -0.002 C 
BRANCH  17  18
HETATM   18  C7  UNL     1      20.158   0.436  50.909  1.00  0.00     0.026 C 
BRANCH  18  19
HETATM   19  C8  UNL     1      19.145   0.174  51.706  1.00  0.00     0.052 C 
HETATM   20 BR1  UNL     1      18.797  -0.924  53.200  1.00  0.00    -0.044 Br
HETATM   21  I1  UNL     1      17.697   1.438  50.861  1.00  0.00    -0.036 I 
ENDBRANCH  18  19
ENDBRANCH  17  18
ENDBRANCH  15  16
ENDBRANCH   3  15
BRANCH   1  22
HETATM   22  N1  UNL     1      23.787  -0.879  54.352  1.00  0.00    -0.407 N 
HETATM   23  H1  UNL     1      23.053  -1.621  54.230  1.00  0.00     0.155 HD
HETATM   24  H2  UNL     1      24.336  -1.142  55.214  1.00  0.00     0.155 HD
ENDBRANCH   1  22
TORSDOF 5
ENDMDL
MODEL 8
REMARK VINA RESULT:      -6.8      2.290      4.256
REMARK  5 active torsions:
REMARK  status: ('A' for Active; 'I' for Inactive)
REMARK    1  A    between atoms: N1_1  and  C1_2 
REMARK    2  A    between atoms: C3_4  and  C4_5 
REMARK    3  A    between atoms: C4_5  and  C5_6 
REMARK    4  A    between atoms: C6_7  and  C7_8 
REMARK    5  A    between atoms: C7_8  and  C8_9 
ROOT
HETATM    1  C1  UNL     1      24.891   3.060  51.128  1.00  0.00     0.095 C 
HETATM    2  C2  UNL     1      24.476   1.922  51.648  1.00  0.00     0.017 C 
HETATM    3  C3  UNL     1      23.041   1.653  51.528  1.00  0.00     0.051 C 
HETATM    4  N2  UNL     1      22.614   0.601  52.031  1.00  0.00    -0.246 NA
HETATM    5  C9  UNL     1      21.354   0.081  52.082  1.00  0.00     0.229 C 
HETATM    6  N3  UNL     1      21.672  -0.261  53.318  1.00  0.00    -0.257 NA
HETATM    7  C10 UNL     1      23.020   0.102  53.785  1.00  0.00     0.325 C 
HETATM    8  O1  UNL     1      23.930  -0.433  52.844  1.00  0.00    -0.329 OA
HETATM    9  C11 UNL     1      25.286  -0.193  52.918  1.00  0.00     0.082 A 
HETATM   10  C12 UNL     1      26.245  -0.975  53.485  1.00  0.00     0.038 A 
HETATM   11  C13 UNL     1      27.537  -0.504  53.424  1.00  0.00     0.003 A 
HETATM   12  C14 UNL     1      27.794   0.703  52.810  1.00  0.00     0.001 A 
HETATM   13  C15 UNL     1      26.745   1.413  52.267  1.00  0.00     0.015 A 
HETATM   14  C16 UNL     1      25.423   1.018  52.283  1.00  0.00     0.011 A 
ENDROOT
BRANCH   3  15
HETATM   15  C4  UNL     1      22.082   2.528  50.826  1.00  0.00     0.087 C 
BRANCH  15  16
HETATM   16  C5  UNL     1      21.478   3.453  51.820  1.00  0.00    -0.021 C 
HETATM   17  C6  UNL     1      21.658   4.744  51.714  1.00  0.00    -0.002 C 
BRANCH  17  18
HETATM   18  C7  UNL     1      22.303   5.746  50.893  1.00  0.00     0.026 C 
BRANCH  18  19
HETATM   19  C8  UNL     1      23.122   6.502  50.193  1.00  0.00     0.052 C 
HETATM   20 BR1  UNL     1      24.182   8.037  50.472  1.00  0.00    -0.044 Br
HETATM   21  I1  UNL     1      23.025   5.505  48.347  1.00  0.00    -0.036 I 
ENDBRANCH  18  19
ENDBRANCH  17  18
ENDBRANCH  15  16
ENDBRANCH   3  15
BRANCH   1  22
HETATM   22  N1  UNL     1      25.918   3.966  50.841  1.00  0.00    -0.407 N 
HETATM   23  H1  UNL     1      26.442   4.065  49.935  1.00  0.00     0.155 HD
HETATM   24  H2  UNL     1      26.313   4.693  51.494  1.00  0.00     0.155 HD
ENDBRANCH   1  22
TORSDOF 5
ENDMDL
MODEL 9
REMARK VINA RESULT:      -6.7      4.080      7.895
REMARK  5 active torsions:
REMARK  status: ('A' for Active; 'I' for Inactive)
REMARK    1  A    between atoms: N1_1  and  C1_2 
REMARK    2  A    between atoms: C3_4  and  C4_5 
REMARK    3  A    between atoms: C4_5  and  C5_6 
REMARK    4  A    between atoms: C6_7  and  C7_8 
REMARK    5  A    between atoms: C7_8  and  C8_9 
ROOT
HETATM    1  C1  UNL     1      25.588   3.029  50.548  1.00  0.00     0.095 C 
HETATM    2  C2  UNL     1      25.092   4.152  50.067  1.00  0.00     0.017 C 
HETATM    3  C3  UNL     1      23.680   4.404  50.365  1.00  0.00     0.051 C 
HETATM    4  N2  UNL     1      23.177   5.441  49.903  1.00  0.00    -0.246 NA
HETATM    5  C9  UNL     1      21.913   5.943  50.005  1.00  0.00     0.229 C 
HETATM    6  N3  UNL     1      22.066   6.266  48.733  1.00  0.00    -0.257 NA
HETATM    7  C10 UNL     1      23.349   5.913  48.104  1.00  0.00     0.325 C 
HETATM    8  O1  UNL     1      24.363   6.477  48.912  1.00  0.00    -0.329 OA
HETATM    9  C11 UNL     1      25.701   6.254  48.670  1.00  0.00     0.082 A 
HETATM   10  C12 UNL     1      26.569   7.038  47.972  1.00  0.00     0.038 A 
HETATM   11  C13 UNL     1      27.865   6.586  47.876  1.00  0.00     0.003 A 
HETATM   12  C14 UNL     1      28.217   5.394  48.472  1.00  0.00     0.001 A 
HETATM   13  C15 UNL     1      27.257   4.679  49.155  1.00  0.00     0.015 A 
HETATM   14  C16 UNL     1      25.937   5.056  49.302  1.00  0.00     0.011 A 
ENDROOT
BRANCH   3  15
HETATM   15  C4  UNL     1      22.832   3.529  51.198  1.00  0.00     0.087 C 
BRANCH  15  16
HETATM   16  C5  UNL     1      22.371   2.391  50.361  1.00  0.00    -0.021 C 
HETATM   17  C6  UNL     1      22.163   1.218  50.899  1.00  0.00    -0.002 C 
BRANCH  17  18
HETATM   18  C7  UNL     1      22.218   0.512  52.161  1.00  0.00     0.026 C 
BRANCH  18  19
HETATM   19  C8  UNL     1      22.516  -0.226  53.210  1.00  0.00     0.052 C 
HETATM   20 BR1  UNL     1      21.607  -1.334  54.436  1.00  0.00    -0.044 Br
HETATM   21  I1  UNL     1      24.587   0.109  53.297  1.00  0.00    -0.036 I 
ENDBRANCH  18  19
ENDBRANCH  17  18
ENDBRANCH  15  16
ENDBRANCH   3  15
BRANCH   1  22
HETATM   22  N1  UNL     1      26.657   2.142  50.717  1.00  0.00    -0.407 N 
HETATM   23  H1  UNL     1      27.270   2.041  51.565  1.00  0.00     0.155 HD
HETATM   24  H2  UNL     1      27.001   1.434  50.015  1.00  0.00     0.155 HD
ENDBRANCH   1  22
TORSDOF 5
ENDMDL
