MODEL 1
REMARK VINA RESULT:      -9.7      0.000      0.000
REMARK  3 active torsions:
REMARK  status: ('A' for Active; 'I' for Inactive)
REMARK    1  A    between atoms: C2_3  and  N1_4 
REMARK    2  A    between atoms: N1_4  and  C3_5 
REMARK    3  A    between atoms: C16_22  and  C17_23 
ROOT
HETATM    1  C3  UNL     1      23.132   3.305  51.290  1.00  0.00     0.161 A 
HETATM    2  N2  UNL     1      22.469   4.080  52.201  1.00  0.00    -0.222 NA
HETATM    3  C4  UNL     1      22.387   5.406  51.910  1.00  0.00     0.238 A 
HETATM    4  N3  UNL     1      22.915   5.969  50.794  1.00  0.00    -0.215 NA
HETATM    5  C5  UNL     1      23.578   5.196  49.882  1.00  0.00     0.201 A 
HETATM    6  C6  UNL     1      23.677   3.853  50.152  1.00  0.00     0.132 A 
HETATM    7  N4  UNL     1      24.391   3.099  49.185  1.00  0.00    -0.359 N 
HETATM    8  C7  UNL     1      25.761   3.394  49.228  1.00  0.00     0.088 C 
HETATM    9  C8  UNL     1      26.655   4.329  49.128  1.00  0.00     0.017 C 
HETATM   10  C9  UNL     1      26.960   5.715  48.909  1.00  0.00     0.001 C 
HETATM   11  C10 UNL     1      26.332   6.839  48.670  1.00  0.00     0.002 C 
HETATM   12  C11 UNL     1      25.113   7.533  48.466  1.00  0.00     0.025 C 
HETATM   13  C12 UNL     1      23.867   7.134  48.460  1.00  0.00     0.144 C 
HETATM   14  O1  UNL     1      24.123   5.780  48.726  1.00  0.00    -0.302 OA
HETATM   15  H3  UNL     1      23.587   2.593  48.799  1.00  0.00     0.165 HD
ENDROOT
BRANCH   1  16
HETATM   16  N1  UNL     1      23.358   1.908  51.332  1.00  0.00    -0.336 N 
HETATM   17  H1  UNL     1      23.153   1.662  50.328  1.00  0.00     0.168 HD
BRANCH  16  18
HETATM   18  C2  UNL     1      23.738   0.983  52.331  1.00  0.00     0.073 A 
HETATM   19  C1  UNL     1      25.092   0.746  52.427  1.00  0.00     0.154 A 
HETATM   20  F1  UNL     1      25.993   1.356  51.617  1.00  0.00    -0.203 F 
HETATM   21  C16 UNL     1      25.505  -0.152  53.394  1.00  0.00     0.015 A 
HETATM   22  C15 UNL     1      24.569  -0.761  54.208  1.00  0.00     0.015 A 
HETATM   23  C14 UNL     1      23.226  -0.489  54.073  1.00  0.00     0.003 A 
HETATM   24  C13 UNL     1      22.758   0.408  53.112  1.00  0.00     0.033 A 
BRANCH  21  25
HETATM   25  C17 UNL     1      26.940  -0.434  53.530  1.00  0.00    -0.023 A 
HETATM   26  C18 UNL     1      27.613   0.469  54.323  1.00  0.00     0.012 A 
HETATM   27  C19 UNL     1      28.984   0.307  54.529  1.00  0.00     0.001 A 
HETATM   28  C20 UNL     1      29.656  -0.743  53.945  1.00  0.00     0.000 A 
HETATM   29  C21 UNL     1      28.972  -1.645  53.151  1.00  0.00     0.001 A 
HETATM   30  C22 UNL     1      27.616  -1.486  52.947  1.00  0.00     0.012 A 
ENDBRANCH  21  25
ENDBRANCH  16  18
ENDBRANCH   1  16
TORSDOF 3
ENDMDL
MODEL 2
REMARK VINA RESULT:      -9.4      1.108      1.623
REMARK  3 active torsions:
REMARK  status: ('A' for Active; 'I' for Inactive)
REMARK    1  A    between atoms: C2_3  and  N1_4 
REMARK    2  A    between atoms: N1_4  and  C3_5 
REMARK    3  A    between atoms: C16_22  and  C17_23 
ROOT
HETATM    1  C3  UNL     1      23.805   4.468  51.468  1.00  0.00     0.161 A 
HETATM    2  N2  UNL     1      22.723   5.086  52.031  1.00  0.00    -0.222 NA
HETATM    3  C4  UNL     1      22.016   5.912  51.214  1.00  0.00     0.238 A 
HETATM    4  N3  UNL     1      22.328   6.138  49.913  1.00  0.00    -0.215 NA
HETATM    5  C5  UNL     1      23.409   5.521  49.349  1.00  0.00     0.201 A 
HETATM    6  C6  UNL     1      24.142   4.682  50.152  1.00  0.00     0.132 A 
HETATM    7  N4  UNL     1      25.265   4.082  49.524  1.00  0.00    -0.359 N 
HETATM    8  C7  UNL     1      26.272   5.028  49.284  1.00  0.00     0.088 C 
HETATM    9  C8  UNL     1      26.567   6.146  48.696  1.00  0.00     0.017 C 
HETATM   10  C9  UNL     1      26.149   7.248  47.875  1.00  0.00     0.001 C 
HETATM   11  C10 UNL     1      25.074   7.663  47.253  1.00  0.00     0.002 C 
HETATM   12  C11 UNL     1      23.712   7.467  46.910  1.00  0.00     0.025 C 
HETATM   13  C12 UNL     1      22.859   6.522  47.214  1.00  0.00     0.144 C 
HETATM   14  O1  UNL     1      23.731   5.755  48.001  1.00  0.00    -0.302 OA
HETATM   15  H3  UNL     1      24.894   3.128  49.483  1.00  0.00     0.165 HD
ENDROOT
BRANCH   1  16
HETATM   16  N1  UNL     1      24.705   3.558  52.075  1.00  0.00    -0.336 N 
HETATM   17  H1  UNL     1      25.566   4.162  52.127  1.00  0.00     0.168 HD
BRANCH  16  18
HETATM   18  C2  UNL     1      24.625   2.221  52.526  1.00  0.00     0.073 A 
HETATM   19  C1  UNL     1      25.831   1.562  52.625  1.00  0.00     0.154 A 
HETATM   20  F1  UNL     1      27.009   2.156  52.309  1.00  0.00    -0.203 F 
HETATM   21  C16 UNL     1      25.797   0.251  53.065  1.00  0.00     0.015 A 
HETATM   22  C15 UNL     1      24.585  -0.333  53.382  1.00  0.00     0.015 A 
HETATM   23  C14 UNL     1      23.406   0.369  53.266  1.00  0.00     0.003 A 
HETATM   24  C13 UNL     1      23.388   1.693  52.826  1.00  0.00     0.033 A 
BRANCH  21  25
HETATM   25  C17 UNL     1      27.060  -0.488  53.185  1.00  0.00    -0.023 A 
HETATM   26  C18 UNL     1      27.005  -1.770  52.683  1.00  0.00     0.012 A 
HETATM   27  C19 UNL     1      28.145  -2.574  52.739  1.00  0.00     0.001 A 
HETATM   28  C20 UNL     1      29.311  -2.090  53.289  1.00  0.00     0.000 A 
HETATM   29  C21 UNL     1      29.357  -0.802  53.789  1.00  0.00     0.001 A 
HETATM   30  C22 UNL     1      28.230  -0.007  53.734  1.00  0.00     0.012 A 
ENDBRANCH  21  25
ENDBRANCH  16  18
ENDBRANCH   1  16
TORSDOF 3
ENDMDL
MODEL 3
REMARK VINA RESULT:      -9.2      1.810      2.182
REMARK  3 active torsions:
REMARK  status: ('A' for Active; 'I' for Inactive)
REMARK    1  A    between atoms: C2_3  and  N1_4 
REMARK    2  A    between atoms: N1_4  and  C3_5 
REMARK    3  A    between atoms: C16_22  and  C17_23 
ROOT
HETATM    1  C3  UNL     1      21.546   2.133  51.614  1.00  0.00     0.161 A 
HETATM    2  N2  UNL     1      20.316   2.219  52.205  1.00  0.00    -0.222 NA
HETATM    3  C4  UNL     1      19.609   3.353  51.951  1.00  0.00     0.238 A 
HETATM    4  N3  UNL     1      20.057   4.363  51.164  1.00  0.00    -0.215 NA
HETATM    5  C5  UNL     1      21.287   4.279  50.572  1.00  0.00     0.201 A 
HETATM    6  C6  UNL     1      22.022   3.145  50.813  1.00  0.00     0.132 A 
HETATM    7  N4  UNL     1      23.299   3.115  50.192  1.00  0.00    -0.359 N 
HETATM    8  C7  UNL     1      24.173   4.029  50.795  1.00  0.00     0.088 C 
HETATM    9  C8  UNL     1      24.372   5.276  51.098  1.00  0.00     0.017 C 
HETATM   10  C9  UNL     1      23.907   6.634  51.068  1.00  0.00     0.001 C 
HETATM   11  C10 UNL     1      22.876   7.316  50.634  1.00  0.00     0.002 C 
HETATM   12  C11 UNL     1      21.620   7.338  49.978  1.00  0.00     0.025 C 
HETATM   13  C12 UNL     1      20.886   6.389  49.455  1.00  0.00     0.144 C 
HETATM   14  O1  UNL     1      21.750   5.325  49.756  1.00  0.00    -0.302 OA
HETATM   15  H3  UNL     1      23.085   2.392  49.497  1.00  0.00     0.165 HD
ENDROOT
BRANCH   1  16
HETATM   16  N1  UNL     1      22.482   1.074  51.696  1.00  0.00    -0.336 N 
HETATM   17  H1  UNL     1      22.665   0.915  50.671  1.00  0.00     0.168 HD
BRANCH  16  18
HETATM   18  C2  UNL     1      23.081   0.344  52.748  1.00  0.00     0.073 A 
HETATM   19  C1  UNL     1      24.458   0.308  52.728  1.00  0.00     0.154 A 
HETATM   20  F1  UNL     1      25.184   0.929  51.765  1.00  0.00    -0.203 F 
HETATM   21  C16 UNL     1      25.082  -0.394  53.743  1.00  0.00     0.015 A 
HETATM   22  C15 UNL     1      24.321  -1.018  54.713  1.00  0.00     0.015 A 
HETATM   23  C14 UNL     1      22.946  -0.953  54.688  1.00  0.00     0.003 A 
HETATM   24  C13 UNL     1      22.268  -0.257  53.686  1.00  0.00     0.033 A 
BRANCH  21  25
HETATM   25  C17 UNL     1      26.549  -0.458  53.759  1.00  0.00    -0.023 A 
HETATM   26  C18 UNL     1      27.138   0.466  54.595  1.00  0.00     0.012 A 
HETATM   27  C19 UNL     1      28.529   0.505  54.697  1.00  0.00     0.001 A 
HETATM   28  C20 UNL     1      29.305  -0.370  53.971  1.00  0.00     0.000 A 
HETATM   29  C21 UNL     1      28.705  -1.294  53.135  1.00  0.00     0.001 A 
HETATM   30  C22 UNL     1      27.330  -1.334  53.033  1.00  0.00     0.012 A 
ENDBRANCH  21  25
ENDBRANCH  16  18
ENDBRANCH   1  16
TORSDOF 3
ENDMDL
MODEL 4
REMARK VINA RESULT:      -8.9      1.445      2.657
REMARK  3 active torsions:
REMARK  status: ('A' for Active; 'I' for Inactive)
REMARK    1  A    between atoms: C2_3  and  N1_4 
REMARK    2  A    between atoms: N1_4  and  C3_5 
REMARK    3  A    between atoms: C16_22  and  C17_23 
ROOT
HETATM    1  C3  UNL     1      25.229   3.551  50.069  1.00  0.00     0.161 A 
HETATM    2  N2  UNL     1      26.360   3.423  49.310  1.00  0.00    -0.222 NA
HETATM    3  C4  UNL     1      26.986   4.583  48.973  1.00  0.00     0.238 A 
HETATM    4  N3  UNL     1      26.552   5.813  49.346  1.00  0.00    -0.215 NA
HETATM    5  C5  UNL     1      25.421   5.942  50.104  1.00  0.00     0.201 A 
HETATM    6  C6  UNL     1      24.768   4.787  50.458  1.00  0.00     0.132 A 
HETATM    7  N4  UNL     1      23.591   4.976  51.228  1.00  0.00    -0.359 N 
HETATM    8  C7  UNL     1      22.566   5.533  50.450  1.00  0.00     0.088 C 
HETATM    9  C8  UNL     1      22.216   6.537  49.706  1.00  0.00     0.017 C 
HETATM   10  C9  UNL     1      22.554   7.800  49.113  1.00  0.00     0.001 C 
HETATM   11  C10 UNL     1      23.565   8.632  49.070  1.00  0.00     0.002 C 
HETATM   12  C11 UNL     1      24.888   8.962  49.458  1.00  0.00     0.025 C 
HETATM   13  C12 UNL     1      25.766   8.337  50.199  1.00  0.00     0.144 C 
HETATM   14  O1  UNL     1      24.973   7.217  50.491  1.00  0.00    -0.302 OA
HETATM   15  H3  UNL     1      23.957   4.611  52.113  1.00  0.00     0.165 HD
ENDROOT
BRANCH   1  16
HETATM   16  N1  UNL     1      24.392   2.523  50.567  1.00  0.00    -0.336 N 
HETATM   17  H1  UNL     1      23.601   2.583  49.874  1.00  0.00     0.168 HD
BRANCH  16  18
HETATM   18  C2  UNL     1      24.455   1.614  51.648  1.00  0.00     0.073 A 
HETATM   19  C1  UNL     1      25.657   0.959  51.795  1.00  0.00     0.154 A 
HETATM   20  F1  UNL     1      26.705   1.171  50.959  1.00  0.00    -0.203 F 
HETATM   21  C16 UNL     1      25.760   0.062  52.843  1.00  0.00     0.015 A 
HETATM   22  C15 UNL     1      24.680  -0.137  53.681  1.00  0.00     0.015 A 
HETATM   23  C14 UNL     1      23.498   0.543  53.492  1.00  0.00     0.003 A 
HETATM   24  C13 UNL     1      23.344   1.458  52.449  1.00  0.00     0.033 A 
BRANCH  21  25
HETATM   25  C17 UNL     1      27.024  -0.659  53.035  1.00  0.00    -0.023 A 
HETATM   26  C18 UNL     1      27.990   0.075  53.689  1.00  0.00     0.012 A 
HETATM   27  C19 UNL     1      29.238  -0.502  53.932  1.00  0.00     0.001 A 
HETATM   28  C20 UNL     1      29.500  -1.790  53.522  1.00  0.00     0.000 A 
HETATM   29  C21 UNL     1      28.525  -2.519  52.866  1.00  0.00     0.001 A 
HETATM   30  C22 UNL     1      27.291  -1.949  52.626  1.00  0.00     0.012 A 
ENDBRANCH  21  25
ENDBRANCH  16  18
ENDBRANCH   1  16
TORSDOF 3
ENDMDL
MODEL 5
REMARK VINA RESULT:      -8.9      3.169      5.425
REMARK  3 active torsions:
REMARK  status: ('A' for Active; 'I' for Inactive)
REMARK    1  A    between atoms: C2_3  and  N1_4 
REMARK    2  A    between atoms: N1_4  and  C3_5 
REMARK    3  A    between atoms: C16_22  and  C17_23 
ROOT
HETATM    1  C3  UNL     1      21.587   4.582  51.059  1.00  0.00     0.161 A 
HETATM    2  N2  UNL     1      21.219   5.471  50.087  1.00  0.00    -0.222 NA
HETATM    3  C4  UNL     1      19.896   5.499  49.773  1.00  0.00     0.238 A 
HETATM    4  N3  UNL     1      18.962   4.711  50.363  1.00  0.00    -0.215 NA
HETATM    5  C5  UNL     1      19.328   3.821  51.335  1.00  0.00     0.201 A 
HETATM    6  C6  UNL     1      20.659   3.772  51.671  1.00  0.00     0.132 A 
HETATM    7  N4  UNL     1      20.990   2.820  52.670  1.00  0.00    -0.359 N 
HETATM    8  C7  UNL     1      20.879   1.513  52.176  1.00  0.00     0.088 C 
HETATM    9  C8  UNL     1      20.086   0.640  51.635  1.00  0.00     0.017 C 
HETATM   10  C9  UNL     1      18.779   0.312  51.140  1.00  0.00     0.001 C 
HETATM   11  C10 UNL     1      17.605   0.877  51.000  1.00  0.00     0.002 C 
HETATM   12  C11 UNL     1      16.774   2.014  51.161  1.00  0.00     0.025 C 
HETATM   13  C12 UNL     1      17.006   3.209  51.640  1.00  0.00     0.144 C 
HETATM   14  O1  UNL     1      18.360   3.007  51.947  1.00  0.00    -0.302 OA
HETATM   15  H3  UNL     1      21.198   3.488  53.419  1.00  0.00     0.165 HD
ENDROOT
BRANCH   1  16
HETATM   16  N1  UNL     1      22.881   4.351  51.586  1.00  0.00    -0.336 N 
HETATM   17  H1  UNL     1      22.708   4.586  52.598  1.00  0.00     0.168 HD
BRANCH  16  18
HETATM   18  C2  UNL     1      24.122   3.937  51.051  1.00  0.00     0.073 A 
HETATM   19  C1  UNL     1      24.784   2.975  51.781  1.00  0.00     0.154 A 
HETATM   20  F1  UNL     1      24.279   2.464  52.932  1.00  0.00    -0.203 F 
HETATM   21  C16 UNL     1      26.002   2.541  51.290  1.00  0.00     0.015 A 
HETATM   22  C15 UNL     1      26.496   3.074  50.115  1.00  0.00     0.015 A 
HETATM   23  C14 UNL     1      25.795   4.035  49.421  1.00  0.00     0.003 A 
HETATM   24  C13 UNL     1      24.562   4.506  49.875  1.00  0.00     0.033 A 
BRANCH  21  25
HETATM   25  C17 UNL     1      26.741   1.516  52.038  1.00  0.00    -0.023 A 
HETATM   26  C18 UNL     1      27.738   2.024  52.842  1.00  0.00     0.012 A 
HETATM   27  C19 UNL     1      28.513   1.148  53.604  1.00  0.00     0.001 A 
HETATM   28  C20 UNL     1      28.282  -0.209  53.553  1.00  0.00     0.000 A 
HETATM   29  C21 UNL     1      27.279  -0.709  52.744  1.00  0.00     0.001 A 
HETATM   30  C22 UNL     1      26.513   0.156  51.990  1.00  0.00     0.012 A 
ENDBRANCH  21  25
ENDBRANCH  16  18
ENDBRANCH   1  16
TORSDOF 3
ENDMDL
MODEL 6
REMARK VINA RESULT:      -8.9      1.948      2.635
REMARK  3 active torsions:
REMARK  status: ('A' for Active; 'I' for Inactive)
REMARK    1  A    between atoms: C2_3  and  N1_4 
REMARK    2  A    between atoms: N1_4  and  C3_5 
REMARK    3  A    between atoms: C16_22  and  C17_23 
ROOT
HETATM    1  C3  UNL     1      23.426   3.169  50.865  1.00  0.00     0.161 A 
HETATM    2  N2  UNL     1      24.106   4.184  51.480  1.00  0.00    -0.222 NA
HETATM    3  C4  UNL     1      23.731   5.446  51.138  1.00  0.00     0.238 A 
HETATM    4  N3  UNL     1      22.747   5.727  50.247  1.00  0.00    -0.215 NA
HETATM    5  C5  UNL     1      22.067   4.714  49.631  1.00  0.00     0.201 A 
HETATM    6  C6  UNL     1      22.426   3.429  49.957  1.00  0.00     0.132 A 
HETATM    7  N4  UNL     1      21.704   2.414  49.277  1.00  0.00    -0.359 N 
HETATM    8  C7  UNL     1      22.062   2.364  47.922  1.00  0.00     0.088 C 
HETATM    9  C8  UNL     1      22.131   3.031  46.811  1.00  0.00     0.017 C 
HETATM   10  C9  UNL     1      21.917   4.263  46.106  1.00  0.00     0.001 C 
HETATM   11  C10 UNL     1      21.472   5.472  46.341  1.00  0.00     0.002 C 
HETATM   12  C11 UNL     1      20.940   6.417  47.254  1.00  0.00     0.025 C 
HETATM   13  C12 UNL     1      20.653   6.340  48.529  1.00  0.00     0.144 C 
HETATM   14  O1  UNL     1      21.047   5.006  48.709  1.00  0.00    -0.302 OA
HETATM   15  H3  UNL     1      21.163   2.081  50.081  1.00  0.00     0.165 HD
ENDROOT
BRANCH   1  16
HETATM   16  N1  UNL     1      23.598   1.774  51.037  1.00  0.00    -0.336 N 
HETATM   17  H1  UNL     1      23.301   1.436  50.084  1.00  0.00     0.168 HD
BRANCH  16  18
HETATM   18  C2  UNL     1      24.023   0.939  52.095  1.00  0.00     0.073 A 
HETATM   19  C1  UNL     1      25.387   0.773  52.202  1.00  0.00     0.154 A 
HETATM   20  F1  UNL     1      26.257   1.370  51.350  1.00  0.00    -0.203 F 
HETATM   21  C16 UNL     1      25.843  -0.035  53.227  1.00  0.00     0.015 A 
HETATM   22  C15 UNL     1      24.937  -0.632  54.083  1.00  0.00     0.015 A 
HETATM   23  C14 UNL     1      23.583  -0.435  53.934  1.00  0.00     0.003 A 
HETATM   24  C13 UNL     1      23.072   0.371  52.916  1.00  0.00     0.033 A 
BRANCH  21  25
HETATM   25  C17 UNL     1      27.289  -0.238  53.377  1.00  0.00    -0.023 A 
HETATM   26  C18 UNL     1      27.715  -1.499  53.019  1.00  0.00     0.012 A 
HETATM   27  C19 UNL     1      29.072  -1.814  53.117  1.00  0.00     0.001 A 
HETATM   28  C20 UNL     1      29.973  -0.876  53.566  1.00  0.00     0.000 A 
HETATM   29  C21 UNL     1      29.537   0.387  53.922  1.00  0.00     0.001 A 
HETATM   30  C22 UNL     1      28.196   0.700  53.826  1.00  0.00     0.012 A 
ENDBRANCH  21  25
ENDBRANCH  16  18
ENDBRANCH   1  16
TORSDOF 3
ENDMDL
MODEL 7
REMARK VINA RESULT:      -8.8      2.995      4.860
REMARK  3 active torsions:
REMARK  status: ('A' for Active; 'I' for Inactive)
REMARK    1  A    between atoms: C2_3  and  N1_4 
REMARK    2  A    between atoms: N1_4  and  C3_5 
REMARK    3  A    between atoms: C16_22  and  C17_23 
ROOT
HETATM    1  C3  UNL     1      25.743   5.260  50.001  1.00  0.00     0.161 A 
HETATM    2  N2  UNL     1      26.717   4.799  49.158  1.00  0.00    -0.222 NA
HETATM    3  C4  UNL     1      27.430   5.747  48.494  1.00  0.00     0.238 A 
HETATM    4  N3  UNL     1      27.223   7.081  48.629  1.00  0.00    -0.215 NA
HETATM    5  C5  UNL     1      26.250   7.545  49.470  1.00  0.00     0.201 A 
HETATM    6  C6  UNL     1      25.514   6.608  50.153  1.00  0.00     0.132 A 
HETATM    7  N4  UNL     1      24.504   7.139  50.998  1.00  0.00    -0.359 N 
HETATM    8  C7  UNL     1      23.453   7.682  50.246  1.00  0.00     0.088 C 
HETATM    9  C8  UNL     1      23.127   8.554  49.342  1.00  0.00     0.017 C 
HETATM   10  C9  UNL     1      23.533   9.597  48.442  1.00  0.00     0.001 C 
HETATM   11  C10 UNL     1      24.625  10.228  48.089  1.00  0.00     0.002 C 
HETATM   12  C11 UNL     1      26.023  10.413  48.228  1.00  0.00     0.025 C 
HETATM   13  C12 UNL     1      26.916   9.819  48.978  1.00  0.00     0.144 C 
HETATM   14  O1  UNL     1      26.037   8.927  49.610  1.00  0.00    -0.302 OA
HETATM   15  H3  UNL     1      24.952   6.909  51.891  1.00  0.00     0.165 HD
ENDROOT
BRANCH   1  16
HETATM   16  N1  UNL     1      24.866   4.506  50.816  1.00  0.00    -0.336 N 
HETATM   17  H1  UNL     1      25.047   4.963  51.748  1.00  0.00     0.168 HD
BRANCH  16  18
HETATM   18  C2  UNL     1      23.965   3.438  50.600  1.00  0.00     0.073 A 
HETATM   19  C1  UNL     1      23.693   2.666  51.708  1.00  0.00     0.154 A 
HETATM   20  F1  UNL     1      24.252   2.914  52.919  1.00  0.00    -0.203 F 
HETATM   21  C16 UNL     1      22.813   1.612  51.538  1.00  0.00     0.015 A 
HETATM   22  C15 UNL     1      22.255   1.379  50.296  1.00  0.00     0.015 A 
HETATM   23  C14 UNL     1      22.560   2.181  49.219  1.00  0.00     0.003 A 
HETATM   24  C13 UNL     1      23.441   3.256  49.338  1.00  0.00     0.033 A 
BRANCH  21  25
HETATM   25  C17 UNL     1      22.496   0.763  52.694  1.00  0.00    -0.023 A 
HETATM   26  C18 UNL     1      21.243   0.987  53.222  1.00  0.00     0.012 A 
HETATM   27  C19 UNL     1      20.825   0.240  54.325  1.00  0.00     0.001 A 
HETATM   28  C20 UNL     1      21.655  -0.708  54.879  1.00  0.00     0.000 A 
HETATM   29  C21 UNL     1      22.910  -0.926  54.341  1.00  0.00     0.001 A 
HETATM   30  C22 UNL     1      23.325  -0.189  53.251  1.00  0.00     0.012 A 
ENDBRANCH  21  25
ENDBRANCH  16  18
ENDBRANCH   1  16
TORSDOF 3
ENDMDL
MODEL 8
REMARK VINA RESULT:      -8.8      2.828      7.637
REMARK  3 active torsions:
REMARK  status: ('A' for Active; 'I' for Inactive)
REMARK    1  A    between atoms: C2_3  and  N1_4 
REMARK    2  A    between atoms: N1_4  and  C3_5 
REMARK    3  A    between atoms: C16_22  and  C17_23 
ROOT
HETATM    1  C3  UNL     1      24.886   3.278  49.731  1.00  0.00     0.161 A 
HETATM    2  N2  UNL     1      23.772   3.085  48.961  1.00  0.00    -0.222 NA
HETATM    3  C4  UNL     1      22.772   2.359  49.531  1.00  0.00     0.238 A 
HETATM    4  N3  UNL     1      22.832   1.840  50.783  1.00  0.00    -0.215 NA
HETATM    5  C5  UNL     1      23.945   2.032  51.553  1.00  0.00     0.201 A 
HETATM    6  C6  UNL     1      24.971   2.760  51.002  1.00  0.00     0.132 A 
HETATM    7  N4  UNL     1      26.111   2.914  51.835  1.00  0.00    -0.359 N 
HETATM    8  C7  UNL     1      26.802   1.702  51.970  1.00  0.00     0.088 C 
HETATM    9  C8  UNL     1      26.719   0.463  52.347  1.00  0.00     0.017 C 
HETATM   10  C9  UNL     1      25.926  -0.603  52.890  1.00  0.00     0.001 C 
HETATM   11  C10 UNL     1      24.705  -0.807  53.319  1.00  0.00     0.002 C 
HETATM   12  C11 UNL     1      23.404  -0.304  53.571  1.00  0.00     0.025 C 
HETATM   13  C12 UNL     1      22.868   0.875  53.387  1.00  0.00     0.144 C 
HETATM   14  O1  UNL     1      24.007   1.495  52.850  1.00  0.00    -0.302 OA
HETATM   15  H3  UNL     1      25.991   3.913  52.032  1.00  0.00     0.165 HD
ENDROOT
BRANCH   1  16
HETATM   16  N1  UNL     1      26.061   3.994  49.400  1.00  0.00    -0.336 N 
HETATM   17  H1  UNL     1      26.748   3.197  49.338  1.00  0.00     0.168 HD
BRANCH  16  18
HETATM   18  C2  UNL     1      26.380   5.355  49.189  1.00  0.00     0.073 A 
HETATM   19  C1  UNL     1      27.561   5.585  48.518  1.00  0.00     0.154 A 
HETATM   20  F1  UNL     1      28.360   4.574  48.093  1.00  0.00    -0.203 F 
HETATM   21  C16 UNL     1      27.907   6.904  48.289  1.00  0.00     0.015 A 
HETATM   22  C15 UNL     1      27.077   7.916  48.731  1.00  0.00     0.015 A 
HETATM   23  C14 UNL     1      25.906   7.635  49.397  1.00  0.00     0.003 A 
HETATM   24  C13 UNL     1      25.512   6.320  49.653  1.00  0.00     0.033 A 
BRANCH  21  25
HETATM   25  C17 UNL     1      29.159   7.193  47.578  1.00  0.00    -0.023 A 
HETATM   26  C18 UNL     1      28.977   7.790  46.349  1.00  0.00     0.012 A 
HETATM   27  C19 UNL     1      30.092   8.114  45.575  1.00  0.00     0.001 A 
HETATM   28  C20 UNL     1      31.361   7.840  46.035  1.00  0.00     0.000 A 
HETATM   29  C21 UNL     1      31.534   7.241  47.270  1.00  0.00     0.001 A 
HETATM   30  C22 UNL     1      30.432   6.921  48.035  1.00  0.00     0.012 A 
ENDBRANCH  21  25
ENDBRANCH  16  18
ENDBRANCH   1  16
TORSDOF 3
ENDMDL
MODEL 9
REMARK VINA RESULT:      -8.7      3.370      5.622
REMARK  3 active torsions:
REMARK  status: ('A' for Active; 'I' for Inactive)
REMARK    1  A    between atoms: C2_3  and  N1_4 
REMARK    2  A    between atoms: N1_4  and  C3_5 
REMARK    3  A    between atoms: C16_22  and  C17_23 
ROOT
HETATM    1  C3  UNL     1      21.792   0.854  53.150  1.00  0.00     0.161 A 
HETATM    2  N2  UNL     1      21.535  -0.186  54.000  1.00  0.00    -0.222 NA
HETATM    3  C4  UNL     1      20.374  -0.861  53.783  1.00  0.00     0.238 A 
HETATM    4  N3  UNL     1      19.495  -0.555  52.795  1.00  0.00    -0.215 NA
HETATM    5  C5  UNL     1      19.750   0.485  51.945  1.00  0.00     0.201 A 
HETATM    6  C6  UNL     1      20.916   1.184  52.142  1.00  0.00     0.132 A 
HETATM    7  N4  UNL     1      21.125   2.265  51.246  1.00  0.00    -0.359 N 
HETATM    8  C7  UNL     1      20.237   3.316  51.511  1.00  0.00     0.088 C 
HETATM    9  C8  UNL     1      18.989   3.661  51.604  1.00  0.00     0.017 C 
HETATM   10  C9  UNL     1      17.605   3.290  51.520  1.00  0.00     0.001 C 
HETATM   11  C10 UNL     1      16.880   2.230  51.261  1.00  0.00     0.002 C 
HETATM   12  C11 UNL     1      16.812   0.855  50.922  1.00  0.00     0.025 C 
HETATM   13  C12 UNL     1      17.739  -0.042  50.706  1.00  0.00     0.144 C 
HETATM   14  O1  UNL     1      18.840   0.800  50.922  1.00  0.00    -0.302 OA
HETATM   15  H3  UNL     1      21.893   1.843  50.715  1.00  0.00     0.165 HD
ENDROOT
BRANCH   1  16
HETATM   16  N1  UNL     1      22.918   1.713  53.138  1.00  0.00    -0.336 N 
HETATM   17  H1  UNL     1      22.587   2.455  53.808  1.00  0.00     0.168 HD
BRANCH  16  18
HETATM   18  C2  UNL     1      24.170   1.715  52.481  1.00  0.00     0.073 A 
HETATM   19  C1  UNL     1      25.029   0.703  52.851  1.00  0.00     0.154 A 
HETATM   20  F1  UNL     1      24.695  -0.227  53.781  1.00  0.00    -0.203 F 
HETATM   21  C16 UNL     1      26.264   0.669  52.230  1.00  0.00     0.015 A 
HETATM   22  C15 UNL     1      26.582   1.626  51.286  1.00  0.00     0.015 A 
HETATM   23  C14 UNL     1      25.688   2.618  50.950  1.00  0.00     0.003 A 
HETATM   24  C13 UNL     1      24.429   2.696  51.549  1.00  0.00     0.033 A 
BRANCH  21  25
HETATM   25  C17 UNL     1      27.210  -0.392  52.596  1.00  0.00    -0.023 A 
HETATM   26  C18 UNL     1      28.392   0.073  53.129  1.00  0.00     0.012 A 
HETATM   27  C19 UNL     1      29.374  -0.841  53.516  1.00  0.00     0.001 A 
HETATM   28  C20 UNL     1      29.162  -2.193  53.367  1.00  0.00     0.000 A 
HETATM   29  C21 UNL     1      27.972  -2.652  52.832  1.00  0.00     0.001 A 
HETATM   30  C22 UNL     1      27.002  -1.748  52.449  1.00  0.00     0.012 A 
ENDBRANCH  21  25
ENDBRANCH  16  18
ENDBRANCH   1  16
TORSDOF 3
ENDMDL
