MODEL 1
REMARK VINA RESULT:      -7.8      0.000      0.000
REMARK  5 active torsions:
REMARK  status: ('A' for Active; 'I' for Inactive)
REMARK    1  A    between atoms: C7_7  and  C8_8 
REMARK    2  A    between atoms: C12_14  and  O1_15 
REMARK    3  A    between atoms: O1_15  and  C13_16 
REMARK    4  A    between atoms: C13_16  and  C14_17 
REMARK    5  A    between atoms: C14_17  and  O2_18 
ROOT
HETATM    1  C1  UNL     1      27.785  -2.558  52.688  1.00  0.00     0.018 C 
HETATM    2  C2  UNL     1      27.256  -1.488  52.856  1.00  0.00    -0.078 C 
HETATM    3  C3  UNL     1      26.622  -0.216  53.032  1.00  0.00     0.017 A 
HETATM    4  C4  UNL     1      27.060   0.540  54.091  1.00  0.00     0.020 A 
HETATM    5  C5  UNL     1      26.487   1.770  54.309  1.00  0.00     0.002 A 
HETATM    6  C6  UNL     1      25.499   2.217  53.473  1.00  0.00     0.014 A 
HETATM    7  C7  UNL     1      25.005   1.516  52.389  1.00  0.00    -0.005 A 
HETATM    8  C21 UNL     1      25.625   0.280  52.222  1.00  0.00     0.034 A 
ENDROOT
BRANCH   7   9
HETATM    9  C8  UNL     1      23.953   1.779  51.424  1.00  0.00     0.084 A 
HETATM   10  N1  UNL     1      24.411   2.601  50.457  1.00  0.00    -0.240 NA
HETATM   11  C9  UNL     1      23.609   2.992  49.452  1.00  0.00     0.234 A 
HETATM   12  N2  UNL     1      22.309   2.579  49.367  1.00  0.00    -0.241 NA
HETATM   13  C10 UNL     1      21.824   1.758  50.315  1.00  0.00     0.076 A 
HETATM   14  C11 UNL     1      20.541   1.268  50.316  1.00  0.00     0.072 A 
HETATM   15  C18 UNL     1      22.648   1.356  51.342  1.00  0.00     0.059 A 
HETATM   16  C12 UNL     1      20.072   0.396  51.309  1.00  0.00     0.107 A 
HETATM   17  C16 UNL     1      20.971   0.031  52.320  1.00  0.00     0.136 A 
HETATM   18  C17 UNL     1      22.266   0.504  52.350  1.00  0.00     0.119 A 
HETATM   19  O4  UNL     1      20.561  -0.838  53.337  1.00  0.00    -0.344 OA
HETATM   20  O3  UNL     1      23.080   0.086  53.377  1.00  0.00    -0.345 OA
HETATM   21  C19 UNL     1      22.654  -0.597  54.526  1.00  0.00     0.202 C 
HETATM   22  C20 UNL     1      21.142  -0.589  54.628  1.00  0.00     0.202 C 
BRANCH  16  23
HETATM   23  O1  UNL     1      18.874  -0.024  51.256  1.00  0.00    -0.346 OA
BRANCH  23  24
HETATM   24  C13 UNL     1      17.651  -0.478  51.191  1.00  0.00     0.201 C 
BRANCH  24  25
HETATM   25  C14 UNL     1      16.907  -0.157  52.499  1.00  0.00     0.193 C 
BRANCH  25  26
HETATM   26  O2  UNL     1      17.258  -0.992  53.509  1.00  0.00    -0.394 OA
HETATM   27  C15 UNL     1      17.376  -2.327  53.231  1.00  0.00     0.201 C 
ENDBRANCH  25  26
ENDBRANCH  24  25
ENDBRANCH  23  24
ENDBRANCH  16  23
ENDBRANCH   7   9
TORSDOF 5
ENDMDL
MODEL 2
REMARK VINA RESULT:      -7.8      2.185      3.313
REMARK  5 active torsions:
REMARK  status: ('A' for Active; 'I' for Inactive)
REMARK    1  A    between atoms: C7_7  and  C8_8 
REMARK    2  A    between atoms: C12_14  and  O1_15 
REMARK    3  A    between atoms: O1_15  and  C13_16 
REMARK    4  A    between atoms: C13_16  and  C14_17 
REMARK    5  A    between atoms: C14_17  and  O2_18 
ROOT
HETATM    1  C1  UNL     1      29.745  -1.814  53.331  1.00  0.00     0.018 C 
HETATM    2  C2  UNL     1      28.864  -0.998  53.437  1.00  0.00    -0.078 C 
HETATM    3  C3  UNL     1      27.801  -0.045  53.554  1.00  0.00     0.017 A 
HETATM    4  C4  UNL     1      28.160   1.277  53.482  1.00  0.00     0.020 A 
HETATM    5  C5  UNL     1      27.181   2.236  53.589  1.00  0.00     0.002 A 
HETATM    6  C6  UNL     1      25.876   1.859  53.762  1.00  0.00     0.014 A 
HETATM    7  C7  UNL     1      25.437   0.551  53.845  1.00  0.00    -0.005 A 
HETATM    8  C21 UNL     1      26.475  -0.371  53.730  1.00  0.00     0.034 A 
ENDROOT
BRANCH   7   9
HETATM    9  C8  UNL     1      24.137  -0.055  54.067  1.00  0.00     0.084 A 
HETATM   10  N1  UNL     1      24.197  -0.902  55.115  1.00  0.00    -0.240 NA
HETATM   11  C9  UNL     1      23.110  -1.589  55.506  1.00  0.00     0.234 A 
HETATM   12  N2  UNL     1      21.909  -1.460  54.867  1.00  0.00    -0.241 NA
HETATM   13  C10 UNL     1      21.817  -0.620  53.820  1.00  0.00     0.076 A 
HETATM   14  C11 UNL     1      20.657  -0.400  53.119  1.00  0.00     0.072 A 
HETATM   15  C18 UNL     1      22.932   0.083  53.422  1.00  0.00     0.059 A 
HETATM   16  C12 UNL     1      20.589   0.498  52.044  1.00  0.00     0.107 A 
HETATM   17  C16 UNL     1      21.764   1.178  51.701  1.00  0.00     0.136 A 
HETATM   18  C17 UNL     1      22.946   0.982  52.383  1.00  0.00     0.119 A 
HETATM   19  O4  UNL     1      21.757   2.088  50.638  1.00  0.00    -0.344 OA
HETATM   20  O3  UNL     1      24.049   1.700  51.980  1.00  0.00    -0.345 OA
HETATM   21  C19 UNL     1      24.145   2.446  50.796  1.00  0.00     0.202 C 
HETATM   22  C20 UNL     1      22.976   2.153  49.878  1.00  0.00     0.202 C 
BRANCH  16  23
HETATM   23  O1  UNL     1      19.486   0.658  51.434  1.00  0.00    -0.346 OA
BRANCH  23  24
HETATM   24  C13 UNL     1      18.351   0.797  50.802  1.00  0.00     0.201 C 
BRANCH  24  25
HETATM   25  C14 UNL     1      17.432  -0.396  51.117  1.00  0.00     0.193 C 
BRANCH  25  26
HETATM   26  O2  UNL     1      17.117  -0.469  52.434  1.00  0.00    -0.394 OA
HETATM   27  C15 UNL     1      17.196  -1.689  53.051  1.00  0.00     0.201 C 
ENDBRANCH  25  26
ENDBRANCH  24  25
ENDBRANCH  23  24
ENDBRANCH  16  23
ENDBRANCH   7   9
TORSDOF 5
ENDMDL
MODEL 3
REMARK VINA RESULT:      -7.5      3.319      7.140
REMARK  5 active torsions:
REMARK  status: ('A' for Active; 'I' for Inactive)
REMARK    1  A    between atoms: C7_7  and  C8_8 
REMARK    2  A    between atoms: C12_14  and  O1_15 
REMARK    3  A    between atoms: O1_15  and  C13_16 
REMARK    4  A    between atoms: C13_16  and  C14_17 
REMARK    5  A    between atoms: C14_17  and  O2_18 
ROOT
HETATM    1  C1  UNL     1      21.529   3.382  47.009  1.00  0.00     0.018 C 
HETATM    2  C2  UNL     1      21.653   3.553  48.195  1.00  0.00    -0.078 C 
HETATM    3  C3  UNL     1      21.791   3.733  49.609  1.00  0.00     0.017 A 
HETATM    4  C4  UNL     1      21.719   5.025  50.067  1.00  0.00     0.020 A 
HETATM    5  C5  UNL     1      21.845   5.258  51.416  1.00  0.00     0.002 A 
HETATM    6  C6  UNL     1      22.039   4.207  52.272  1.00  0.00     0.014 A 
HETATM    7  C7  UNL     1      22.123   2.882  51.888  1.00  0.00    -0.005 A 
HETATM    8  C21 UNL     1      21.988   2.712  50.513  1.00  0.00     0.034 A 
ENDROOT
BRANCH   7   9
HETATM    9  C8  UNL     1      22.365   1.646  52.610  1.00  0.00     0.084 A 
HETATM   10  N1  UNL     1      21.228   1.229  53.203  1.00  0.00    -0.240 NA
HETATM   11  C9  UNL     1      21.210   0.104  53.938  1.00  0.00     0.234 A 
HETATM   12  N2  UNL     1      22.330  -0.659  54.114  1.00  0.00    -0.241 NA
HETATM   13  C10 UNL     1      23.479  -0.270  53.533  1.00  0.00     0.076 A 
HETATM   14  C11 UNL     1      24.657  -0.970  53.629  1.00  0.00     0.072 A 
HETATM   15  C18 UNL     1      23.495   0.882  52.780  1.00  0.00     0.059 A 
HETATM   16  C12 UNL     1      25.833  -0.548  52.993  1.00  0.00     0.107 A 
HETATM   17  C16 UNL     1      25.770   0.633  52.242  1.00  0.00     0.136 A 
HETATM   18  C17 UNL     1      24.604   1.360  52.124  1.00  0.00     0.119 A 
HETATM   19  O4  UNL     1      26.912   1.103  51.584  1.00  0.00    -0.344 OA
HETATM   20  O3  UNL     1      24.634   2.504  51.360  1.00  0.00    -0.345 OA
HETATM   21  C19 UNL     1      25.793   3.125  50.871  1.00  0.00     0.202 C 
HETATM   22  C20 UNL     1      27.032   2.533  51.510  1.00  0.00     0.202 C 
BRANCH  16  23
HETATM   23  O1  UNL     1      26.893  -1.238  53.119  1.00  0.00    -0.346 OA
BRANCH  23  24
HETATM   24  C13 UNL     1      27.990  -1.931  53.268  1.00  0.00     0.201 C 
BRANCH  24  25
HETATM   25  C14 UNL     1      29.164  -0.986  53.579  1.00  0.00     0.193 C 
BRANCH  25  26
HETATM   26  O2  UNL     1      28.883  -0.135  54.596  1.00  0.00    -0.394 OA
HETATM   27  C15 UNL     1      29.079   1.205  54.391  1.00  0.00     0.201 C 
ENDBRANCH  25  26
ENDBRANCH  24  25
ENDBRANCH  23  24
ENDBRANCH  16  23
ENDBRANCH   7   9
TORSDOF 5
ENDMDL
MODEL 4
REMARK VINA RESULT:      -7.4      2.558      4.066
REMARK  5 active torsions:
REMARK  status: ('A' for Active; 'I' for Inactive)
REMARK    1  A    between atoms: C7_7  and  C8_8 
REMARK    2  A    between atoms: C12_14  and  O1_15 
REMARK    3  A    between atoms: O1_15  and  C13_16 
REMARK    4  A    between atoms: C13_16  and  C14_17 
REMARK    5  A    between atoms: C14_17  and  O2_18 
ROOT
HETATM    1  C1  UNL     1      29.152  -2.229  53.075  1.00  0.00     0.018 C 
HETATM    2  C2  UNL     1      28.376  -1.318  53.218  1.00  0.00    -0.078 C 
HETATM    3  C3  UNL     1      27.438  -0.247  53.374  1.00  0.00     0.017 A 
HETATM    4  C4  UNL     1      27.968   0.995  53.617  1.00  0.00     0.020 A 
HETATM    5  C5  UNL     1      27.115   2.061  53.776  1.00  0.00     0.002 A 
HETATM    6  C6  UNL     1      25.762   1.866  53.688  1.00  0.00     0.014 A 
HETATM    7  C7  UNL     1      25.153   0.650  53.447  1.00  0.00    -0.005 A 
HETATM    8  C21 UNL     1      26.070  -0.388  53.295  1.00  0.00     0.034 A 
ENDROOT
BRANCH   7   9
HETATM    9  C8  UNL     1      23.768   0.224  53.362  1.00  0.00     0.084 A 
HETATM   10  N1  UNL     1      23.514  -0.707  54.304  1.00  0.00    -0.240 NA
HETATM   11  C9  UNL     1      22.292  -1.257  54.413  1.00  0.00     0.234 A 
HETATM   12  N2  UNL     1      21.266  -0.901  53.585  1.00  0.00    -0.241 NA
HETATM   13  C10 UNL     1      21.488   0.027  52.637  1.00  0.00     0.076 A 
HETATM   14  C11 UNL     1      20.524   0.472  51.765  1.00  0.00     0.072 A 
HETATM   15  C18 UNL     1      22.739   0.590  52.527  1.00  0.00     0.059 A 
HETATM   16  C12 UNL     1      20.783   1.456  50.800  1.00  0.00     0.107 A 
HETATM   17  C16 UNL     1      22.080   1.983  50.752  1.00  0.00     0.136 A 
HETATM   18  C17 UNL     1      23.071   1.560  51.612  1.00  0.00     0.119 A 
HETATM   19  O4  UNL     1      22.397   2.969  49.812  1.00  0.00    -0.344 OA
HETATM   20  O3  UNL     1      24.314   2.140  51.497  1.00  0.00    -0.345 OA
HETATM   21  C19 UNL     1      24.733   2.959  50.439  1.00  0.00     0.202 C 
HETATM   22  C20 UNL     1      23.738   2.918  49.297  1.00  0.00     0.202 C 
BRANCH  16  23
HETATM   23  O1  UNL     1      19.850   1.826  50.021  1.00  0.00    -0.346 OA
BRANCH  23  24
HETATM   24  C13 UNL     1      18.882   2.182  49.220  1.00  0.00     0.201 C 
BRANCH  24  25
HETATM   25  C14 UNL     1      18.491   3.645  49.492  1.00  0.00     0.193 C 
BRANCH  25  26
HETATM   26  O2  UNL     1      19.397   4.520  48.990  1.00  0.00    -0.394 OA
HETATM   27  C15 UNL     1      19.550   5.726  49.621  1.00  0.00     0.201 C 
ENDBRANCH  25  26
ENDBRANCH  24  25
ENDBRANCH  23  24
ENDBRANCH  16  23
ENDBRANCH   7   9
TORSDOF 5
ENDMDL
MODEL 5
REMARK VINA RESULT:      -7.4      3.366      5.414
REMARK  5 active torsions:
REMARK  status: ('A' for Active; 'I' for Inactive)
REMARK    1  A    between atoms: C7_7  and  C8_8 
REMARK    2  A    between atoms: C12_14  and  O1_15 
REMARK    3  A    between atoms: O1_15  and  C13_16 
REMARK    4  A    between atoms: C13_16  and  C14_17 
REMARK    5  A    between atoms: C14_17  and  O2_18 
ROOT
HETATM    1  C1  UNL     1      29.755   2.048  54.950  1.00  0.00     0.018 C 
HETATM    2  C2  UNL     1      28.993   1.272  54.429  1.00  0.00    -0.078 C 
HETATM    3  C3  UNL     1      28.071   0.358  53.825  1.00  0.00     0.017 A 
HETATM    4  C4  UNL     1      28.617  -0.749  53.225  1.00  0.00     0.020 A 
HETATM    5  C5  UNL     1      27.780  -1.661  52.629  1.00  0.00     0.002 A 
HETATM    6  C6  UNL     1      26.426  -1.452  52.645  1.00  0.00     0.014 A 
HETATM    7  C7  UNL     1      25.802  -0.366  53.228  1.00  0.00    -0.005 A 
HETATM    8  C21 UNL     1      26.704   0.520  53.813  1.00  0.00     0.034 A 
ENDROOT
BRANCH   7   9
HETATM    9  C8  UNL     1      24.418   0.063  53.317  1.00  0.00     0.084 A 
HETATM   10  N1  UNL     1      23.734  -0.761  54.138  1.00  0.00    -0.240 NA
HETATM   11  C9  UNL     1      22.425  -0.565  54.370  1.00  0.00     0.234 A 
HETATM   12  N2  UNL     1      21.737   0.464  53.792  1.00  0.00    -0.241 NA
HETATM   13  C10 UNL     1      22.393   1.303  52.970  1.00  0.00     0.076 A 
HETATM   14  C11 UNL     1      21.804   2.380  52.352  1.00  0.00     0.072 A 
HETATM   15  C18 UNL     1      23.734   1.103  52.735  1.00  0.00     0.059 A 
HETATM   16  C12 UNL     1      22.521   3.248  51.517  1.00  0.00     0.107 A 
HETATM   17  C16 UNL     1      23.883   2.980  51.329  1.00  0.00     0.136 A 
HETATM   18  C17 UNL     1      24.506   1.909  51.933  1.00  0.00     0.119 A 
HETATM   19  O4  UNL     1      24.651   3.813  50.507  1.00  0.00    -0.344 OA
HETATM   20  O3  UNL     1      25.849   1.727  51.697  1.00  0.00    -0.345 OA
HETATM   21  C19 UNL     1      26.600   2.395  50.718  1.00  0.00     0.202 C 
HETATM   22  C20 UNL     1      25.695   3.155  49.770  1.00  0.00     0.202 C 
BRANCH  16  23
HETATM   23  O1  UNL     1      21.922   4.227  50.973  1.00  0.00    -0.346 OA
BRANCH  23  24
HETATM   24  C13 UNL     1      21.286   5.217  50.405  1.00  0.00     0.201 C 
BRANCH  24  25
HETATM   25  C14 UNL     1      21.739   6.551  51.025  1.00  0.00     0.193 C 
BRANCH  25  26
HETATM   26  O2  UNL     1      23.089   6.648  51.103  1.00  0.00    -0.394 OA
HETATM   27  C15 UNL     1      23.679   7.807  50.674  1.00  0.00     0.201 C 
ENDBRANCH  25  26
ENDBRANCH  24  25
ENDBRANCH  23  24
ENDBRANCH  16  23
ENDBRANCH   7   9
TORSDOF 5
ENDMDL
MODEL 6
REMARK VINA RESULT:      -7.3      2.057      7.159
REMARK  5 active torsions:
REMARK  status: ('A' for Active; 'I' for Inactive)
REMARK    1  A    between atoms: C7_7  and  C8_8 
REMARK    2  A    between atoms: C12_14  and  O1_15 
REMARK    3  A    between atoms: O1_15  and  C13_16 
REMARK    4  A    between atoms: C13_16  and  C14_17 
REMARK    5  A    between atoms: C14_17  and  O2_18 
ROOT
HETATM    1  C1  UNL     1      15.902   4.361  52.294  1.00  0.00     0.018 C 
HETATM    2  C2  UNL     1      16.562   3.426  51.916  1.00  0.00    -0.078 C 
HETATM    3  C3  UNL     1      17.363   2.331  51.457  1.00  0.00     0.017 A 
HETATM    4  C4  UNL     1      16.703   1.149  51.231  1.00  0.00     0.020 A 
HETATM    5  C5  UNL     1      17.422   0.064  50.790  1.00  0.00     0.002 A 
HETATM    6  C6  UNL     1      18.771   0.179  50.585  1.00  0.00     0.014 A 
HETATM    7  C7  UNL     1      19.504   1.332  50.791  1.00  0.00    -0.005 A 
HETATM    8  C21 UNL     1      18.721   2.393  51.236  1.00  0.00     0.034 A 
ENDROOT
BRANCH   7   9
HETATM    9  C8  UNL     1      20.917   1.651  50.682  1.00  0.00     0.084 A 
HETATM   10  N1  UNL     1      21.129   2.438  49.607  1.00  0.00    -0.240 NA
HETATM   11  C9  UNL     1      22.368   2.857  49.298  1.00  0.00     0.234 A 
HETATM   12  N2  UNL     1      23.454   2.509  50.050  1.00  0.00    -0.241 NA
HETATM   13  C10 UNL     1      23.274   1.727  51.129  1.00  0.00     0.076 A 
HETATM   14  C11 UNL     1      24.291   1.333  51.964  1.00  0.00     0.072 A 
HETATM   15  C18 UNL     1      22.004   1.299  51.445  1.00  0.00     0.059 A 
HETATM   16  C12 UNL     1      24.066   0.534  53.094  1.00  0.00     0.107 A 
HETATM   17  C16 UNL     1      22.746   0.141  53.351  1.00  0.00     0.136 A 
HETATM   18  C17 UNL     1      21.701   0.518  52.534  1.00  0.00     0.119 A 
HETATM   19  O4  UNL     1      22.461  -0.657  54.465  1.00  0.00    -0.344 OA
HETATM   20  O3  UNL     1      20.437   0.091  52.869  1.00  0.00    -0.345 OA
HETATM   21  C19 UNL     1      20.136  -0.879  53.835  1.00  0.00     0.202 C 
HETATM   22  C20 UNL     1      21.390  -1.599  54.286  1.00  0.00     0.202 C 
BRANCH  16  23
HETATM   23  O1  UNL     1      25.048   0.201  53.828  1.00  0.00    -0.346 OA
BRANCH  23  24
HETATM   24  C13 UNL     1      26.072  -0.147  54.561  1.00  0.00     0.201 C 
BRANCH  24  25
HETATM   25  C14 UNL     1      27.368  -0.007  53.744  1.00  0.00     0.193 C 
BRANCH  25  26
HETATM   26  O2  UNL     1      28.322  -0.887  54.139  1.00  0.00    -0.394 OA
HETATM   27  C15 UNL     1      29.634  -0.552  53.938  1.00  0.00     0.201 C 
ENDBRANCH  25  26
ENDBRANCH  24  25
ENDBRANCH  23  24
ENDBRANCH  16  23
ENDBRANCH   7   9
TORSDOF 5
ENDMDL
MODEL 7
REMARK VINA RESULT:      -7.3      3.521      7.369
REMARK  5 active torsions:
REMARK  status: ('A' for Active; 'I' for Inactive)
REMARK    1  A    between atoms: C7_7  and  C8_8 
REMARK    2  A    between atoms: C12_14  and  O1_15 
REMARK    3  A    between atoms: O1_15  and  C13_16 
REMARK    4  A    between atoms: C13_16  and  C14_17 
REMARK    5  A    between atoms: C14_17  and  O2_18 
ROOT
HETATM    1  C1  UNL     1      20.356   6.394  46.200  1.00  0.00     0.018 C 
HETATM    2  C2  UNL     1      21.082   6.588  47.142  1.00  0.00    -0.078 C 
HETATM    3  C3  UNL     1      21.952   6.794  48.261  1.00  0.00     0.017 A 
HETATM    4  C4  UNL     1      21.624   7.828  49.103  1.00  0.00     0.020 A 
HETATM    5  C5  UNL     1      22.424   8.073  50.194  1.00  0.00     0.002 A 
HETATM    6  C6  UNL     1      23.523   7.287  50.421  1.00  0.00     0.014 A 
HETATM    7  C7  UNL     1      23.917   6.232  49.622  1.00  0.00    -0.005 A 
HETATM    8  C21 UNL     1      23.068   6.035  48.535  1.00  0.00     0.034 A 
ENDROOT
BRANCH   7   9
HETATM    9  C8  UNL     1      25.047   5.321  49.654  1.00  0.00     0.084 A 
HETATM   10  N1  UNL     1      26.022   5.766  48.836  1.00  0.00    -0.240 NA
HETATM   11  C9  UNL     1      27.168   5.079  48.696  1.00  0.00     0.234 A 
HETATM   12  N2  UNL     1      27.394   3.912  49.369  1.00  0.00    -0.241 NA
HETATM   13  C10 UNL     1      26.441   3.443  50.195  1.00  0.00     0.076 A 
HETATM   14  C11 UNL     1      26.571   2.292  50.934  1.00  0.00     0.072 A 
HETATM   15  C18 UNL     1      25.269   4.149  50.338  1.00  0.00     0.059 A 
HETATM   16  C12 UNL     1      25.567   1.841  51.802  1.00  0.00     0.107 A 
HETATM   17  C16 UNL     1      24.403   2.616  51.895  1.00  0.00     0.136 A 
HETATM   18  C17 UNL     1      24.239   3.776  51.169  1.00  0.00     0.119 A 
HETATM   19  O4  UNL     1      23.367   2.216  52.746  1.00  0.00    -0.344 OA
HETATM   20  O3  UNL     1      23.066   4.477  51.330  1.00  0.00    -0.345 OA
HETATM   21  C19 UNL     1      21.923   4.005  51.993  1.00  0.00     0.202 C 
HETATM   22  C20 UNL     1      22.041   2.523  52.284  1.00  0.00     0.202 C 
BRANCH  16  23
HETATM   23  O1  UNL     1      25.745   0.768  52.458  1.00  0.00    -0.346 OA
BRANCH  23  24
HETATM   24  C13 UNL     1      25.933  -0.321  53.155  1.00  0.00     0.201 C 
BRANCH  24  25
HETATM   25  C14 UNL     1      26.137   0.039  54.637  1.00  0.00     0.193 C 
BRANCH  25  26
HETATM   26  O2  UNL     1      27.208   0.850  54.826  1.00  0.00    -0.394 OA
HETATM   27  C15 UNL     1      28.456   0.285  54.819  1.00  0.00     0.201 C 
ENDBRANCH  25  26
ENDBRANCH  24  25
ENDBRANCH  23  24
ENDBRANCH  16  23
ENDBRANCH   7   9
TORSDOF 5
ENDMDL
MODEL 8
REMARK VINA RESULT:      -7.2      3.185      7.567
REMARK  5 active torsions:
REMARK  status: ('A' for Active; 'I' for Inactive)
REMARK    1  A    between atoms: C7_7  and  C8_8 
REMARK    2  A    between atoms: C12_14  and  O1_15 
REMARK    3  A    between atoms: O1_15  and  C13_16 
REMARK    4  A    between atoms: C13_16  and  C14_17 
REMARK    5  A    between atoms: C14_17  and  O2_18 
ROOT
HETATM    1  C1  UNL     1      20.333   6.968  49.368  1.00  0.00     0.018 C 
HETATM    2  C2  UNL     1      20.722   5.849  49.147  1.00  0.00    -0.078 C 
HETATM    3  C3  UNL     1      21.194   4.519  48.907  1.00  0.00     0.017 A 
HETATM    4  C4  UNL     1      21.400   4.175  47.594  1.00  0.00     0.020 A 
HETATM    5  C5  UNL     1      21.852   2.910  47.303  1.00  0.00     0.002 A 
HETATM    6  C6  UNL     1      22.090   2.023  48.320  1.00  0.00     0.014 A 
HETATM    7  C7  UNL     1      21.908   2.294  49.662  1.00  0.00    -0.005 A 
HETATM    8  C21 UNL     1      21.449   3.589  49.890  1.00  0.00     0.034 A 
ENDROOT
BRANCH   7   9
HETATM    9  C8  UNL     1      22.052   1.502  50.871  1.00  0.00     0.084 A 
HETATM   10  N1  UNL     1      20.855   1.002  51.239  1.00  0.00    -0.240 NA
HETATM   11  C9  UNL     1      20.740   0.239  52.339  1.00  0.00     0.234 A 
HETATM   12  N2  UNL     1      21.817  -0.061  53.124  1.00  0.00    -0.241 NA
HETATM   13  C10 UNL     1      23.025   0.422  52.781  1.00  0.00     0.076 A 
HETATM   14  C11 UNL     1      24.176   0.168  53.486  1.00  0.00     0.072 A 
HETATM   15  C18 UNL     1      23.142   1.202  51.653  1.00  0.00     0.059 A 
HETATM   16  C12 UNL     1      25.424   0.670  53.090  1.00  0.00     0.107 A 
HETATM   17  C16 UNL     1      25.462   1.454  51.929  1.00  0.00     0.136 A 
HETATM   18  C17 UNL     1      24.327   1.729  51.197  1.00  0.00     0.119 A 
HETATM   19  O4  UNL     1      26.680   1.981  51.484  1.00  0.00    -0.344 OA
HETATM   20  O3  UNL     1      24.461   2.501  50.067  1.00  0.00    -0.345 OA
HETATM   21  C19 UNL     1      25.607   3.226  49.709  1.00  0.00     0.202 C 
HETATM   22  C20 UNL     1      26.596   3.271  50.856  1.00  0.00     0.202 C 
BRANCH  16  23
HETATM   23  O1  UNL     1      26.453   0.401  53.784  1.00  0.00    -0.346 OA
BRANCH  23  24
HETATM   24  C13 UNL     1      27.518   0.104  54.482  1.00  0.00     0.201 C 
BRANCH  24  25
HETATM   25  C14 UNL     1      28.679   1.028  54.077  1.00  0.00     0.193 C 
BRANCH  25  26
HETATM   26  O2  UNL     1      29.786   0.334  53.713  1.00  0.00    -0.394 OA
HETATM   27  C15 UNL     1      29.676  -1.022  53.556  1.00  0.00     0.201 C 
ENDBRANCH  25  26
ENDBRANCH  24  25
ENDBRANCH  23  24
ENDBRANCH  16  23
ENDBRANCH   7   9
TORSDOF 5
ENDMDL
MODEL 9
REMARK VINA RESULT:      -7.0     18.427     21.448
REMARK  5 active torsions:
REMARK  status: ('A' for Active; 'I' for Inactive)
REMARK    1  A    between atoms: C7_7  and  C8_8 
REMARK    2  A    between atoms: C12_14  and  O1_15 
REMARK    3  A    between atoms: O1_15  and  C13_16 
REMARK    4  A    between atoms: C13_16  and  C14_17 
REMARK    5  A    between atoms: C14_17  and  O2_18 
ROOT
HETATM    1  C1  UNL     1      45.145   3.222  55.876  1.00  0.00     0.018 C 
HETATM    2  C2  UNL     1      44.551   4.270  55.921  1.00  0.00    -0.078 C 
HETATM    3  C3  UNL     1      43.840   5.513  55.951  1.00  0.00     0.017 A 
HETATM    4  C4  UNL     1      44.231   6.414  56.910  1.00  0.00     0.020 A 
HETATM    5  C5  UNL     1      43.583   7.624  56.986  1.00  0.00     0.002 A 
HETATM    6  C6  UNL     1      42.570   7.908  56.110  1.00  0.00     0.014 A 
HETATM    7  C7  UNL     1      42.120   7.056  55.120  1.00  0.00    -0.005 A 
HETATM    8  C21 UNL     1      42.815   5.849  55.095  1.00  0.00     0.034 A 
ENDROOT
BRANCH   7   9
HETATM    9  C8  UNL     1      41.055   7.139  54.137  1.00  0.00     0.084 A 
HETATM   10  N1  UNL     1      39.937   6.559  54.619  1.00  0.00    -0.240 NA
HETATM   11  C9  UNL     1      38.817   6.508  53.879  1.00  0.00     0.234 A 
HETATM   12  N2  UNL     1      38.760   7.036  52.621  1.00  0.00    -0.241 NA
HETATM   13  C10 UNL     1      39.859   7.623  52.113  1.00  0.00     0.076 A 
HETATM   14  C11 UNL     1      39.908   8.202  50.868  1.00  0.00     0.072 A 
HETATM   15  C18 UNL     1      41.005   7.676  52.873  1.00  0.00     0.059 A 
HETATM   16  C12 UNL     1      41.063   8.825  50.376  1.00  0.00     0.107 A 
HETATM   17  C16 UNL     1      42.189   8.841  51.209  1.00  0.00     0.136 A 
HETATM   18  C17 UNL     1      42.175   8.270  52.464  1.00  0.00     0.119 A 
HETATM   19  O4  UNL     1      43.371   9.449  50.773  1.00  0.00    -0.344 OA
HETATM   20  O3  UNL     1      43.326   8.340  53.216  1.00  0.00    -0.345 OA
HETATM   21  C19 UNL     1      44.584   8.737  52.741  1.00  0.00     0.202 C 
HETATM   22  C20 UNL     1      44.585   8.829  51.229  1.00  0.00     0.202 C 
BRANCH  16  23
HETATM   23  O1  UNL     1      41.047   9.343  49.216  1.00  0.00    -0.346 OA
BRANCH  23  24
HETATM   24  C13 UNL     1      41.057   9.875  48.022  1.00  0.00     0.201 C 
BRANCH  24  25
HETATM   25  C14 UNL     1      42.390   9.556  47.322  1.00  0.00     0.193 C 
BRANCH  25  26
HETATM   26  O2  UNL     1      42.643   8.225  47.281  1.00  0.00    -0.394 OA
HETATM   27  C15 UNL     1      42.476   7.571  46.090  1.00  0.00     0.201 C 
ENDBRANCH  25  26
ENDBRANCH  24  25
ENDBRANCH  23  24
ENDBRANCH  16  23
ENDBRANCH   7   9
TORSDOF 5
ENDMDL
