MODEL 1
REMARK VINA RESULT:      -8.8      0.000      0.000
REMARK  2 active torsions:
REMARK  status: ('A' for Active; 'I' for Inactive)
REMARK    1  A    between atoms: C9_9  and  O1_10 
REMARK    2  A    between atoms: O1_10  and  C10_11 
ROOT
HETATM    1  C1  UNL     1      26.588   3.584  48.985  1.00  0.00     0.038 C 
HETATM    2  C2  UNL     1      25.852   4.648  49.709  1.00  0.00    -0.006 C 
HETATM    3  C3  UNL     1      25.327   4.578  50.916  1.00  0.00     0.012 C 
HETATM    4  C4  UNL     1      25.713   3.206  51.212  1.00  0.00     0.052 C 
HETATM    5  C5  UNL     1      25.652   2.254  52.144  1.00  0.00     0.041 C 
HETATM    6  C6  UNL     1      25.340   1.550  53.421  1.00  0.00     0.259 C 
HETATM    7  C7  UNL     1      24.638   0.288  53.237  1.00  0.00    -0.009 C 
HETATM    8  C8  UNL     1      23.453   0.002  52.746  1.00  0.00     0.044 C 
HETATM    9  C9  UNL     1      22.469   0.904  52.223  1.00  0.00     0.068 C 
HETATM   10  C12 UNL     1      21.891   2.023  51.855  1.00  0.00     0.035 C 
HETATM   11  C13 UNL     1      21.095   3.143  51.393  1.00  0.00     0.005 C 
HETATM   12  C14 UNL     1      21.611   4.348  51.488  1.00  0.00     0.159 C 
HETATM   13  N1  UNL     1      21.213   5.629  51.177  1.00  0.00    -0.286 NA
HETATM   14  C15 UNL     1      22.185   6.507  51.001  1.00  0.00     0.161 C 
HETATM   15  C16 UNL     1      23.651   6.650  51.015  1.00  0.00     0.137 C 
HETATM   16  N2  UNL     1      24.699   7.382  50.854  1.00  0.00    -0.283 NA
HETATM   17  N3  UNL     1      24.659   5.743  51.388  1.00  0.00    -0.344 N 
HETATM   18  C17 UNL     1      25.626  -0.693  53.751  1.00  0.00     0.282 C 
HETATM   19  C18 UNL     1      26.180   0.095  54.938  1.00  0.00     0.313 C 
HETATM   20  N4  UNL     1      26.493   1.349  54.255  1.00  0.00     0.101 N 
HETATM   21  C19 UNL     1      27.726   1.137  53.563  1.00  0.00     0.303 C 
HETATM   22  C20 UNL     1      27.945  -0.298  53.168  1.00  0.00     0.303 C 
HETATM   23  N5  UNL     1      26.706  -0.903  52.801  1.00  0.00     0.096 N 
HETATM   24  C21 UNL     1      26.927  -2.305  52.506  1.00  0.00     0.310 C 
HETATM   25  H18 UNL     1      24.553   8.371  50.578  1.00  0.00     0.188 HD
HETATM   26  H19 UNL     1      25.323   5.570  52.213  1.00  0.00     0.167 HD
ENDROOT
BRANCH   9  27
HETATM   27  O1  UNL     1      21.250   0.477  51.736  1.00  0.00    -0.352 OA
BRANCH  27  28
HETATM   28  C10 UNL     1      20.218  -0.091  52.482  1.00  0.00     0.171 C 
HETATM   29  C11 UNL     1      18.863  -0.061  51.882  1.00  0.00     0.034 C 
ENDBRANCH  27  28
ENDBRANCH   9  27
TORSDOF 2
ENDMDL
MODEL 2
REMARK VINA RESULT:      -7.9      2.739      6.147
REMARK  2 active torsions:
REMARK  status: ('A' for Active; 'I' for Inactive)
REMARK    1  A    between atoms: C9_9  and  O1_10 
REMARK    2  A    between atoms: O1_10  and  C10_11 
ROOT
HETATM    1  C1  UNL     1      23.957   4.653  53.646  1.00  0.00     0.038 C 
HETATM    2  C2  UNL     1      24.839   3.464  53.738  1.00  0.00    -0.006 C 
HETATM    3  C3  UNL     1      24.769   2.361  53.022  1.00  0.00     0.012 C 
HETATM    4  C4  UNL     1      23.621   2.733  52.208  1.00  0.00     0.052 C 
HETATM    5  C5  UNL     1      22.818   2.309  51.232  1.00  0.00     0.041 C 
HETATM    6  C6  UNL     1      22.220   1.442  50.175  1.00  0.00     0.259 C 
HETATM    7  C7  UNL     1      20.795   1.205  50.351  1.00  0.00    -0.009 C 
HETATM    8  C8  UNL     1      20.112   0.593  51.293  1.00  0.00     0.044 C 
HETATM    9  C9  UNL     1      20.611  -0.045  52.476  1.00  0.00     0.068 C 
HETATM   10  C12 UNL     1      21.453  -0.485  53.380  1.00  0.00     0.035 C 
HETATM   11  C13 UNL     1      22.221  -1.045  54.474  1.00  0.00     0.005 C 
HETATM   12  C14 UNL     1      23.527  -0.895  54.453  1.00  0.00     0.159 C 
HETATM   13  N1  UNL     1      24.584  -1.252  55.260  1.00  0.00    -0.286 NA
HETATM   14  C15 UNL     1      25.680  -0.526  55.129  1.00  0.00     0.161 C 
HETATM   15  C16 UNL     1      26.250   0.610  54.385  1.00  0.00     0.137 C 
HETATM   16  N2  UNL     1      27.232   1.414  54.162  1.00  0.00    -0.283 NA
HETATM   17  N3  UNL     1      25.735   1.355  53.308  1.00  0.00    -0.344 N 
HETATM   18  C17 UNL     1      20.222   1.865  49.151  1.00  0.00     0.282 C 
HETATM   19  C18 UNL     1      21.281   1.485  48.116  1.00  0.00     0.313 C 
HETATM   20  N4  UNL     1      22.474   1.915  48.842  1.00  0.00     0.101 N 
HETATM   21  C19 UNL     1      22.551   3.334  48.694  1.00  0.00     0.303 C 
HETATM   22  C20 UNL     1      21.206   3.984  48.508  1.00  0.00     0.303 C 
HETATM   23  N5  UNL     1      20.222   3.312  49.292  1.00  0.00     0.096 N 
HETATM   24  C21 UNL     1      18.922   3.899  49.034  1.00  0.00     0.310 C 
HETATM   25  H18 UNL     1      28.091   1.287  54.729  1.00  0.00     0.188 HD
HETATM   26  H19 UNL     1      25.871   1.437  52.247  1.00  0.00     0.167 HD
ENDROOT
BRANCH   9  27
HETATM   27  O1  UNL     1      19.785  -0.661  53.395  1.00  0.00    -0.352 OA
BRANCH  27  28
HETATM   28  C10 UNL     1      18.460  -1.040  53.186  1.00  0.00     0.171 C 
HETATM   29  C11 UNL     1      18.069  -2.396  53.641  1.00  0.00     0.034 C 
ENDBRANCH  27  28
ENDBRANCH   9  27
TORSDOF 2
ENDMDL
MODEL 3
REMARK VINA RESULT:      -7.8      2.670      7.822
REMARK  2 active torsions:
REMARK  status: ('A' for Active; 'I' for Inactive)
REMARK    1  A    between atoms: C9_9  and  O1_10 
REMARK    2  A    between atoms: O1_10  and  C10_11 
ROOT
HETATM    1  C1  UNL     1      21.283   0.958  49.191  1.00  0.00     0.038 C 
HETATM    2  C2  UNL     1      21.896   0.843  50.537  1.00  0.00    -0.006 C 
HETATM    3  C3  UNL     1      22.414   1.812  51.264  1.00  0.00     0.012 C 
HETATM    4  C4  UNL     1      22.174   2.902  50.330  1.00  0.00     0.052 C 
HETATM    5  C5  UNL     1      22.328   4.215  50.153  1.00  0.00     0.041 C 
HETATM    6  C6  UNL     1      22.702   5.636  50.405  1.00  0.00     0.259 C 
HETATM    7  C7  UNL     1      23.536   6.215  49.362  1.00  0.00    -0.009 C 
HETATM    8  C8  UNL     1      24.749   5.931  48.944  1.00  0.00     0.044 C 
HETATM    9  C9  UNL     1      25.636   4.912  49.424  1.00  0.00     0.068 C 
HETATM   10  C12 UNL     1      26.095   3.908  50.133  1.00  0.00     0.035 C 
HETATM   11  C13 UNL     1      26.771   2.816  50.804  1.00  0.00     0.005 C 
HETATM   12  C14 UNL     1      26.129   2.190  51.765  1.00  0.00     0.159 C 
HETATM   13  N1  UNL     1      26.390   1.142  52.620  1.00  0.00    -0.286 NA
HETATM   14  C15 UNL     1      25.332   0.526  53.117  1.00  0.00     0.161 C 
HETATM   15  C16 UNL     1      23.859   0.536  53.107  1.00  0.00     0.137 C 
HETATM   16  N2  UNL     1      22.741   0.024  53.491  1.00  0.00    -0.283 NA
HETATM   17  N3  UNL     1      22.950   1.441  52.529  1.00  0.00    -0.344 N 
HETATM   18  C17 UNL     1      22.653   7.276  48.815  1.00  0.00     0.282 C 
HETATM   19  C18 UNL     1      22.008   7.770  50.109  1.00  0.00     0.313 C 
HETATM   20  N4  UNL     1      21.570   6.486  50.652  1.00  0.00     0.101 N 
HETATM   21  C19 UNL     1      20.373   6.138  49.952  1.00  0.00     0.303 C 
HETATM   22  C20 UNL     1      20.311   6.708  48.562  1.00  0.00     0.303 C 
HETATM   23  N5  UNL     1      21.610   6.713  47.973  1.00  0.00     0.096 N 
HETATM   24  C21 UNL     1      21.543   7.343  46.670  1.00  0.00     0.310 C 
HETATM   25  H18 UNL     1      22.783  -0.803  54.115  1.00  0.00     0.188 HD
HETATM   26  H19 UNL     1      22.301   2.237  52.836  1.00  0.00     0.167 HD
ENDROOT
BRANCH   9  27
HETATM   27  O1  UNL     1      26.898   4.714  48.899  1.00  0.00    -0.352 OA
BRANCH  27  28
HETATM   28  C10 UNL     1      27.724   5.694  48.352  1.00  0.00     0.171 C 
HETATM   29  C11 UNL     1      29.163   5.363  48.223  1.00  0.00     0.034 C 
ENDBRANCH  27  28
ENDBRANCH   9  27
TORSDOF 2
ENDMDL
MODEL 4
REMARK VINA RESULT:      -7.7      2.277      2.804
REMARK  2 active torsions:
REMARK  status: ('A' for Active; 'I' for Inactive)
REMARK    1  A    between atoms: C9_9  and  O1_10 
REMARK    2  A    between atoms: O1_10  and  C10_11 
ROOT
HETATM    1  C1  UNL     1      22.967   1.965  47.442  1.00  0.00     0.038 C 
HETATM    2  C2  UNL     1      22.268   3.206  47.854  1.00  0.00    -0.006 C 
HETATM    3  C3  UNL     1      22.245   3.749  49.054  1.00  0.00     0.012 C 
HETATM    4  C4  UNL     1      23.078   2.763  49.726  1.00  0.00     0.052 C 
HETATM    5  C5  UNL     1      23.619   2.440  50.902  1.00  0.00     0.041 C 
HETATM    6  C6  UNL     1      23.988   2.496  52.346  1.00  0.00     0.259 C 
HETATM    7  C7  UNL     1      23.650   1.287  53.082  1.00  0.00    -0.009 C 
HETATM    8  C8  UNL     1      22.499   0.717  53.360  1.00  0.00     0.044 C 
HETATM    9  C9  UNL     1      21.183   1.151  52.990  1.00  0.00     0.068 C 
HETATM   10  C12 UNL     1      20.224   1.873  52.462  1.00  0.00     0.035 C 
HETATM   11  C13 UNL     1      19.037   2.534  51.957  1.00  0.00     0.005 C 
HETATM   12  C14 UNL     1      19.194   3.638  51.260  1.00  0.00     0.159 C 
HETATM   13  N1  UNL     1      18.370   4.538  50.622  1.00  0.00    -0.286 NA
HETATM   14  C15 UNL     1      18.930   5.248  49.658  1.00  0.00     0.161 C 
HETATM   15  C16 UNL     1      20.203   5.463  48.951  1.00  0.00     0.137 C 
HETATM   16  N2  UNL     1      20.876   6.060  48.029  1.00  0.00    -0.283 NA
HETATM   17  N3  UNL     1      21.489   4.947  49.196  1.00  0.00    -0.344 N 
HETATM   18  C17 UNL     1      24.988   0.783  53.479  1.00  0.00     0.282 C 
HETATM   19  C18 UNL     1      25.681   2.107  53.797  1.00  0.00     0.313 C 
HETATM   20  N4  UNL     1      25.368   2.831  52.566  1.00  0.00     0.101 N 
HETATM   21  C19 UNL     1      26.284   2.360  51.575  1.00  0.00     0.303 C 
HETATM   22  C20 UNL     1      26.742   0.947  51.814  1.00  0.00     0.303 C 
HETATM   23  N5  UNL     1      25.676   0.168  52.356  1.00  0.00     0.096 N 
HETATM   24  C21 UNL     1      26.161  -1.163  52.657  1.00  0.00     0.310 C 
HETATM   25  H18 UNL     1      20.373   6.746  47.437  1.00  0.00     0.188 HD
HETATM   26  H19 UNL     1      22.421   5.273  49.615  1.00  0.00     0.167 HD
ENDROOT
BRANCH   9  27
HETATM   27  O1  UNL     1      20.043   0.460  53.349  1.00  0.00    -0.352 OA
BRANCH  27  28
HETATM   28  C10 UNL     1      19.925  -0.922  53.483  1.00  0.00     0.171 C 
HETATM   29  C11 UNL     1      18.554  -1.485  53.458  1.00  0.00     0.034 C 
ENDBRANCH  27  28
ENDBRANCH   9  27
TORSDOF 2
ENDMDL
MODEL 5
REMARK VINA RESULT:      -7.5      6.986      9.544
REMARK  2 active torsions:
REMARK  status: ('A' for Active; 'I' for Inactive)
REMARK    1  A    between atoms: C9_9  and  O1_10 
REMARK    2  A    between atoms: O1_10  and  C10_11 
ROOT
HETATM    1  C1  UNL     1      30.981  10.143  44.237  1.00  0.00     0.038 C 
HETATM    2  C2  UNL     1      30.661  10.954  45.437  1.00  0.00    -0.006 C 
HETATM    3  C3  UNL     1      30.741  10.582  46.698  1.00  0.00     0.012 C 
HETATM    4  C4  UNL     1      31.211   9.224  46.467  1.00  0.00     0.052 C 
HETATM    5  C5  UNL     1      31.573   8.097  47.081  1.00  0.00     0.041 C 
HETATM    6  C6  UNL     1      31.871   7.115  48.163  1.00  0.00     0.259 C 
HETATM    7  C7  UNL     1      31.154   5.856  48.023  1.00  0.00    -0.009 C 
HETATM    8  C8  UNL     1      29.874   5.561  48.057  1.00  0.00     0.044 C 
HETATM    9  C9  UNL     1      28.765   6.450  48.248  1.00  0.00     0.068 C 
HETATM   10  C12 UNL     1      28.090   7.558  48.444  1.00  0.00     0.035 C 
HETATM   11  C13 UNL     1      27.178   8.664  48.654  1.00  0.00     0.005 C 
HETATM   12  C14 UNL     1      27.688   9.869  48.787  1.00  0.00     0.159 C 
HETATM   13  N1  UNL     1      27.200  11.140  48.989  1.00  0.00    -0.286 NA
HETATM   14  C15 UNL     1      27.992  12.128  48.609  1.00  0.00     0.161 C 
HETATM   15  C16 UNL     1      29.305  12.410  48.005  1.00  0.00     0.137 C 
HETATM   16  N2  UNL     1      30.169  13.260  47.570  1.00  0.00    -0.283 NA
HETATM   17  N3  UNL     1      30.367  11.550  47.672  1.00  0.00    -0.344 N 
HETATM   18  C17 UNL     1      32.263   4.893  47.805  1.00  0.00     0.282 C 
HETATM   19  C18 UNL     1      33.300   5.467  48.769  1.00  0.00     0.313 C 
HETATM   20  N4  UNL     1      33.276   6.860  48.328  1.00  0.00     0.101 N 
HETATM   21  C19 UNL     1      34.059   6.921  47.134  1.00  0.00     0.303 C 
HETATM   22  C20 UNL     1      34.066   5.629  46.363  1.00  0.00     0.303 C 
HETATM   23  N5  UNL     1      32.792   4.993  46.454  1.00  0.00     0.096 N 
HETATM   24  C21 UNL     1      32.847   3.713  45.778  1.00  0.00     0.310 C 
HETATM   25  H18 UNL     1      29.920  14.265  47.624  1.00  0.00     0.188 HD
HETATM   26  H19 UNL     1      31.332  11.276  48.052  1.00  0.00     0.167 HD
ENDROOT
BRANCH   9  27
HETATM   27  O1  UNL     1      27.456   6.014  48.267  1.00  0.00    -0.352 OA
BRANCH  27  28
HETATM   28  C10 UNL     1      26.982   4.857  48.883  1.00  0.00     0.171 C 
HETATM   29  C11 UNL     1      25.554   4.845  49.280  1.00  0.00     0.034 C 
ENDBRANCH  27  28
ENDBRANCH   9  27
TORSDOF 2
ENDMDL
MODEL 6
REMARK VINA RESULT:      -7.3      2.446      6.343
REMARK  2 active torsions:
REMARK  status: ('A' for Active; 'I' for Inactive)
REMARK    1  A    between atoms: C9_9  and  O1_10 
REMARK    2  A    between atoms: O1_10  and  C10_11 
ROOT
HETATM    1  C1  UNL     1      23.093   6.809  51.168  1.00  0.00     0.038 C 
HETATM    2  C2  UNL     1      24.070   5.877  50.556  1.00  0.00    -0.006 C 
HETATM    3  C3  UNL     1      23.835   4.670  50.084  1.00  0.00     0.012 C 
HETATM    4  C4  UNL     1      22.409   4.627  50.370  1.00  0.00     0.052 C 
HETATM    5  C5  UNL     1      21.319   3.865  50.271  1.00  0.00     0.041 C 
HETATM    6  C6  UNL     1      20.433   2.707  49.955  1.00  0.00     0.259 C 
HETATM    7  C7  UNL     1      19.693   2.207  51.104  1.00  0.00    -0.009 C 
HETATM    8  C8  UNL     1      20.083   1.649  52.229  1.00  0.00     0.044 C 
HETATM    9  C9  UNL     1      21.421   1.367  52.660  1.00  0.00     0.068 C 
HETATM   10  C12 UNL     1      22.731   1.295  52.656  1.00  0.00     0.035 C 
HETATM   11  C13 UNL     1      24.159   1.130  52.833  1.00  0.00     0.005 C 
HETATM   12  C14 UNL     1      24.954   1.550  51.874  1.00  0.00     0.159 C 
HETATM   13  N1  UNL     1      26.312   1.586  51.650  1.00  0.00    -0.286 NA
HETATM   14  C15 UNL     1      26.729   2.494  50.785  1.00  0.00     0.161 C 
HETATM   15  C16 UNL     1      26.256   3.566  49.893  1.00  0.00     0.137 C 
HETATM   16  N2  UNL     1      26.513   4.506  49.050  1.00  0.00    -0.283 NA
HETATM   17  N3  UNL     1      24.952   3.967  49.550  1.00  0.00    -0.344 N 
HETATM   18  C17 UNL     1      18.289   2.491  50.715  1.00  0.00     0.282 C 
HETATM   19  C18 UNL     1      18.361   2.161  49.225  1.00  0.00     0.313 C 
HETATM   20  N4  UNL     1      19.528   2.965  48.868  1.00  0.00     0.101 N 
HETATM   21  C19 UNL     1      19.071   4.315  48.752  1.00  0.00     0.303 C 
HETATM   22  C20 UNL     1      17.879   4.614  49.620  1.00  0.00     0.303 C 
HETATM   23  N5  UNL     1      17.977   3.904  50.854  1.00  0.00     0.096 N 
HETATM   24  C21 UNL     1      16.781   4.138  51.638  1.00  0.00     0.310 C 
HETATM   25  H18 UNL     1      27.507   4.675  48.812  1.00  0.00     0.188 HD
HETATM   26  H19 UNL     1      24.272   3.877  48.725  1.00  0.00     0.167 HD
ENDROOT
BRANCH   9  27
HETATM   27  O1  UNL     1      21.702   0.770  53.873  1.00  0.00    -0.352 OA
BRANCH  27  28
HETATM   28  C10 UNL     1      20.923  -0.189  54.518  1.00  0.00     0.171 C 
HETATM   29  C11 UNL     1      21.421  -1.585  54.492  1.00  0.00     0.034 C 
ENDBRANCH  27  28
ENDBRANCH   9  27
TORSDOF 2
ENDMDL
MODEL 7
REMARK VINA RESULT:      -7.2      6.465     10.351
REMARK  2 active torsions:
REMARK  status: ('A' for Active; 'I' for Inactive)
REMARK    1  A    between atoms: C9_9  and  O1_10 
REMARK    2  A    between atoms: O1_10  and  C10_11 
ROOT
HETATM    1  C1  UNL     1      26.362   8.458  43.927  1.00  0.00     0.038 C 
HETATM    2  C2  UNL     1      25.639   8.309  45.213  1.00  0.00    -0.006 C 
HETATM    3  C3  UNL     1      26.126   8.468  46.427  1.00  0.00     0.012 C 
HETATM    4  C4  UNL     1      27.489   8.806  46.043  1.00  0.00     0.052 C 
HETATM    5  C5  UNL     1      28.690   9.128  46.526  1.00  0.00     0.041 C 
HETATM    6  C6  UNL     1      29.783   9.438  47.493  1.00  0.00     0.259 C 
HETATM    7  C7  UNL     1      30.969   8.613  47.318  1.00  0.00    -0.009 C 
HETATM    8  C8  UNL     1      31.171   7.321  47.446  1.00  0.00     0.044 C 
HETATM    9  C9  UNL     1      30.224   6.308  47.812  1.00  0.00     0.068 C 
HETATM   10  C12 UNL     1      29.092   5.744  48.160  1.00  0.00     0.035 C 
HETATM   11  C13 UNL     1      27.945   4.946  48.544  1.00  0.00     0.005 C 
HETATM   12  C14 UNL     1      26.798   5.561  48.726  1.00  0.00     0.159 C 
HETATM   13  N1  UNL     1      25.517   5.196  49.076  1.00  0.00    -0.286 NA
HETATM   14  C15 UNL     1      24.560   6.028  48.705  1.00  0.00     0.161 C 
HETATM   15  C16 UNL     1      24.321   7.302  48.007  1.00  0.00     0.137 C 
HETATM   16  N2  UNL     1      23.501   8.192  47.564  1.00  0.00    -0.283 NA
HETATM   17  N3  UNL     1      25.224   8.259  47.507  1.00  0.00    -0.344 N 
HETATM   18  C17 UNL     1      31.987   9.617  46.919  1.00  0.00     0.282 C 
HETATM   19  C18 UNL     1      31.577  10.777  47.826  1.00  0.00     0.313 C 
HETATM   20  N4  UNL     1      30.152  10.827  47.504  1.00  0.00     0.101 N 
HETATM   21  C19 UNL     1      30.043  11.506  46.251  1.00  0.00     0.303 C 
HETATM   22  C20 UNL     1      31.259  11.343  45.380  1.00  0.00     0.303 C 
HETATM   23  N5  UNL     1      31.806  10.034  45.538  1.00  0.00     0.096 N 
HETATM   24  C21 UNL     1      33.021   9.927  44.757  1.00  0.00     0.310 C 
HETATM   25  H18 UNL     1      22.490   8.030  47.723  1.00  0.00     0.188 HD
HETATM   26  H19 UNL     1      25.599   9.228  47.772  1.00  0.00     0.167 HD
ENDROOT
BRANCH   9  27
HETATM   27  O1  UNL     1      30.564   4.974  47.918  1.00  0.00    -0.352 OA
BRANCH  27  28
HETATM   28  C10 UNL     1      31.799   4.412  47.601  1.00  0.00     0.171 C 
HETATM   29  C11 UNL     1      31.798   3.297  46.624  1.00  0.00     0.034 C 
ENDBRANCH  27  28
ENDBRANCH   9  27
TORSDOF 2
ENDMDL
MODEL 8
REMARK VINA RESULT:      -6.9      2.570      6.541
REMARK  2 active torsions:
REMARK  status: ('A' for Active; 'I' for Inactive)
REMARK    1  A    between atoms: C9_9  and  O1_10 
REMARK    2  A    between atoms: O1_10  and  C10_11 
ROOT
HETATM    1  C1  UNL     1      23.489   4.934  53.185  1.00  0.00     0.038 C 
HETATM    2  C2  UNL     1      24.275   3.683  53.066  1.00  0.00    -0.006 C 
HETATM    3  C3  UNL     1      24.073   2.688  52.226  1.00  0.00     0.012 C 
HETATM    4  C4  UNL     1      22.910   3.244  51.548  1.00  0.00     0.052 C 
HETATM    5  C5  UNL     1      22.017   3.009  50.587  1.00  0.00     0.041 C 
HETATM    6  C6  UNL     1      21.287   2.331  49.477  1.00  0.00     0.259 C 
HETATM    7  C7  UNL     1      19.861   2.179  49.723  1.00  0.00    -0.009 C 
HETATM    8  C8  UNL     1      19.190   1.501  50.628  1.00  0.00     0.044 C 
HETATM    9  C9  UNL     1      19.707   0.682  51.685  1.00  0.00     0.068 C 
HETATM   10  C12 UNL     1      20.565   0.069  52.465  1.00  0.00     0.035 C 
HETATM   11  C13 UNL     1      21.351  -0.681  53.424  1.00  0.00     0.005 C 
HETATM   12  C14 UNL     1      22.660  -0.626  53.328  1.00  0.00     0.159 C 
HETATM   13  N1  UNL     1      23.733  -1.160  54.008  1.00  0.00    -0.286 NA
HETATM   14  C15 UNL     1      24.874  -0.504  53.889  1.00  0.00     0.161 C 
HETATM   15  C16 UNL     1      25.487   0.673  53.253  1.00  0.00     0.137 C 
HETATM   16  N2  UNL     1      26.516   1.426  53.062  1.00  0.00    -0.283 NA
HETATM   17  N3  UNL     1      24.969   1.586  52.316  1.00  0.00    -0.344 N 
HETATM   18  C17 UNL     1      19.271   3.027  48.657  1.00  0.00     0.282 C 
HETATM   19  C18 UNL     1      20.229   2.708  47.511  1.00  0.00     0.313 C 
HETATM   20  N4  UNL     1      21.496   2.952  48.197  1.00  0.00     0.101 N 
HETATM   21  C19 UNL     1      21.678   4.370  48.221  1.00  0.00     0.303 C 
HETATM   22  C20 UNL     1      20.382   5.134  48.213  1.00  0.00     0.303 C 
HETATM   23  N5  UNL     1      19.396   4.440  48.976  1.00  0.00     0.096 N 
HETATM   24  C21 UNL     1      18.136   5.148  48.885  1.00  0.00     0.310 C 
HETATM   25  H18 UNL     1      27.394   1.165  53.546  1.00  0.00     0.188 HD
HETATM   26  H19 UNL     1      25.046   1.795  51.267  1.00  0.00     0.167 HD
ENDROOT
BRANCH   9  27
HETATM   27  O1  UNL     1      18.891   0.014  52.576  1.00  0.00    -0.352 OA
BRANCH  27  28
HETATM   28  C10 UNL     1      17.831  -0.829  52.249  1.00  0.00     0.171 C 
HETATM   29  C11 UNL     1      17.470  -1.870  53.242  1.00  0.00     0.034 C 
ENDBRANCH  27  28
ENDBRANCH   9  27
TORSDOF 2
ENDMDL
MODEL 9
REMARK VINA RESULT:      -6.8      9.658     12.202
REMARK  2 active torsions:
REMARK  status: ('A' for Active; 'I' for Inactive)
REMARK    1  A    between atoms: C9_9  and  O1_10 
REMARK    2  A    between atoms: O1_10  and  C10_11 
ROOT
HETATM    1  C1  UNL     1      28.905   8.689  44.492  1.00  0.00     0.038 C 
HETATM    2  C2  UNL     1      29.694   9.235  45.622  1.00  0.00    -0.006 C 
HETATM    3  C3  UNL     1      30.953   8.979  45.915  1.00  0.00     0.012 C 
HETATM    4  C4  UNL     1      31.221   8.059  44.819  1.00  0.00     0.052 C 
HETATM    5  C5  UNL     1      32.165   7.294  44.269  1.00  0.00     0.041 C 
HETATM    6  C6  UNL     1      33.478   6.627  44.033  1.00  0.00     0.259 C 
HETATM    7  C7  UNL     1      33.389   5.177  43.946  1.00  0.00    -0.009 C 
HETATM    8  C8  UNL     1      33.039   4.261  44.821  1.00  0.00     0.044 C 
HETATM    9  C9  UNL     1      32.619   4.448  46.179  1.00  0.00     0.068 C 
HETATM   10  C12 UNL     1      32.305   5.046  47.304  1.00  0.00     0.035 C 
HETATM   11  C13 UNL     1      31.922   5.522  48.618  1.00  0.00     0.005 C 
HETATM   12  C14 UNL     1      31.944   6.818  48.837  1.00  0.00     0.159 C 
HETATM   13  N1  UNL     1      31.664   7.654  49.895  1.00  0.00    -0.286 NA
HETATM   14  C15 UNL     1      31.368   8.902  49.578  1.00  0.00     0.161 C 
HETATM   15  C16 UNL     1      31.216   9.816  48.434  1.00  0.00     0.137 C 
HETATM   16  N2  UNL     1      30.928  10.985  47.974  1.00  0.00    -0.283 NA
HETATM   17  N3  UNL     1      31.483   9.628  47.065  1.00  0.00    -0.344 N 
HETATM   18  C17 UNL     1      33.801   4.927  42.542  1.00  0.00     0.282 C 
HETATM   19  C18 UNL     1      34.908   5.971  42.406  1.00  0.00     0.313 C 
HETATM   20  N4  UNL     1      34.179   7.142  42.888  1.00  0.00     0.101 N 
HETATM   21  C19 UNL     1      33.355   7.582  41.806  1.00  0.00     0.303 C 
HETATM   22  C20 UNL     1      32.955   6.469  40.875  1.00  0.00     0.303 C 
HETATM   23  N5  UNL     1      32.738   5.266  41.610  1.00  0.00     0.096 N 
HETATM   24  C21 UNL     1      32.437   4.190  40.688  1.00  0.00     0.310 C 
HETATM   25  H18 UNL     1      30.658  11.715  48.658  1.00  0.00     0.188 HD
HETATM   26  H19 UNL     1      32.230   9.901  46.345  1.00  0.00     0.167 HD
ENDROOT
BRANCH   9  27
HETATM   27  O1  UNL     1      32.278   3.395  47.005  1.00  0.00    -0.352 OA
BRANCH  27  28
HETATM   28  C10 UNL     1      32.956   2.183  47.116  1.00  0.00     0.171 C 
HETATM   29  C11 UNL     1      32.202   0.958  46.756  1.00  0.00     0.034 C 
ENDBRANCH  27  28
ENDBRANCH   9  27
TORSDOF 2
ENDMDL
