MODEL 1
REMARK VINA RESULT:      -9.0      0.000      0.000
REMARK  4 active torsions:
REMARK  status: ('A' for Active; 'I' for Inactive)
REMARK    1  A    between atoms: C2_2  and  C3_3 
REMARK    2  A    between atoms: C8_10  and  C9_11 
REMARK    3  A    between atoms: C15_19  and  S1_20 
REMARK    4  A    between atoms: C20_26  and  O2_27 
ROOT
HETATM    1  C3  UNL     1      21.468   1.110  52.637  1.00  0.00     0.166 C 
HETATM    2  C4  UNL     1      20.889   2.443  52.481  1.00  0.00     0.011 C 
HETATM    3  C5  UNL     1      21.455   3.600  52.213  1.00  0.00     0.035 C 
HETATM    4  C6  UNL     1      22.870   3.870  51.992  1.00  0.00     0.112 C 
HETATM    5  N1  UNL     1      23.937   3.344  52.557  1.00  0.00    -0.170 NA
HETATM    6  N2  UNL     1      24.981   2.699  51.830  1.00  0.00    -0.277 N 
HETATM    7  C7  UNL     1      25.594   3.346  50.688  1.00  0.00     0.144 C 
HETATM    8  C8  UNL     1      25.310   4.490  50.086  1.00  0.00     0.085 C 
HETATM    9  N3  UNL     1      24.027   5.111  50.125  1.00  0.00    -0.238 NA
HETATM   10  C15 UNL     1      23.059   4.905  50.950  1.00  0.00     0.121 C 
HETATM   11  C16 UNL     1      25.649   1.423  51.960  1.00  0.00     0.164 C 
HETATM   12  C17 UNL     1      25.017   0.476  52.916  1.00  0.00     0.028 A 
HETATM   13  C18 UNL     1      23.570   0.666  53.185  1.00  0.00     0.183 C 
HETATM   14  O1  UNL     1      22.779   0.998  52.116  1.00  0.00    -0.377 OA
HETATM   15  C19 UNL     1      25.809   0.091  54.177  1.00  0.00     0.048 A 
HETATM   16  C20 UNL     1      25.584  -0.893  53.038  1.00  0.00     0.134 A 
ENDROOT
BRANCH   8  17
HETATM   17  C9  UNL     1      26.319   5.216  49.322  1.00  0.00    -0.006 A 
HETATM   18  C10 UNL     1      27.543   4.733  48.932  1.00  0.00     0.015 A 
HETATM   19  C11 UNL     1      28.477   5.441  48.208  1.00  0.00     0.024 A 
HETATM   20  C12 UNL     1      28.186   6.736  47.833  1.00  0.00     0.034 A 
HETATM   21 CL1  UNL     1      29.388   7.617  46.911  1.00  0.00    -0.084 Cl
HETATM   22  C13 UNL     1      26.965   7.257  48.205  1.00  0.00     0.024 A 
HETATM   23  C14 UNL     1      26.062   6.509  48.930  1.00  0.00     0.015 A 
ENDBRANCH   8  17
BRANCH  10  24
HETATM   24  S1  UNL     1      21.686   6.073  50.829  1.00  0.00    -0.121 SA
HETATM   25  H12 UNL     1      21.340   6.494  52.124  1.00  0.00     0.108 HD
ENDBRANCH  10  24
BRANCH  16  26
HETATM   26  O2  UNL     1      26.731  -1.256  52.373  1.00  0.00    -0.390 OA
HETATM   27  C21 UNL     1      27.872  -1.148  53.165  1.00  0.00     0.202 C 
ENDBRANCH  16  26
BRANCH   1  28
HETATM   28  C2  UNL     1      20.571   0.108  52.018  1.00  0.00    -0.002 C 
HETATM   29  C1  UNL     1      19.469  -0.143  52.704  1.00  0.00     0.010 C 
ENDBRANCH   1  28
TORSDOF 4
ENDMDL
MODEL 2
REMARK VINA RESULT:      -8.2      3.966      6.288
REMARK  4 active torsions:
REMARK  status: ('A' for Active; 'I' for Inactive)
REMARK    1  A    between atoms: C2_2  and  C3_3 
REMARK    2  A    between atoms: C8_10  and  C9_11 
REMARK    3  A    between atoms: C15_19  and  S1_20 
REMARK    4  A    between atoms: C20_26  and  O2_27 
ROOT
HETATM    1  C3  UNL     1      19.089   2.538  50.981  1.00  0.00     0.166 C 
HETATM    2  C4  UNL     1      19.009   1.364  51.849  1.00  0.00     0.011 C 
HETATM    3  C5  UNL     1      19.921   0.474  52.176  1.00  0.00     0.035 C 
HETATM    4  C6  UNL     1      21.310   0.420  51.740  1.00  0.00     0.112 C 
HETATM    5  N1  UNL     1      21.853   0.724  50.580  1.00  0.00    -0.170 NA
HETATM    6  N2  UNL     1      22.893   1.686  50.420  1.00  0.00    -0.277 N 
HETATM    7  C7  UNL     1      24.081   1.632  51.246  1.00  0.00     0.144 C 
HETATM    8  C8  UNL     1      24.397   0.840  52.258  1.00  0.00     0.085 C 
HETATM    9  N3  UNL     1      23.437   0.177  53.077  1.00  0.00    -0.238 NA
HETATM   10  C15 UNL     1      22.193  -0.055  52.831  1.00  0.00     0.121 C 
HETATM   11  C16 UNL     1      23.076   2.826  49.548  1.00  0.00     0.164 C 
HETATM   12  C17 UNL     1      21.870   3.229  48.777  1.00  0.00     0.028 A 
HETATM   13  C18 UNL     1      20.554   2.845  49.347  1.00  0.00     0.183 C 
HETATM   14  O1  UNL     1      20.414   2.950  50.706  1.00  0.00    -0.377 OA
HETATM   15  C19 UNL     1      21.916   3.089  47.246  1.00  0.00     0.048 A 
HETATM   16  C20 UNL     1      21.943   4.448  47.930  1.00  0.00     0.134 A 
ENDROOT
BRANCH   8  17
HETATM   17  C9  UNL     1      25.788   0.580  52.613  1.00  0.00    -0.006 A 
HETATM   18  C10 UNL     1      26.740   1.525  52.904  1.00  0.00     0.015 A 
HETATM   19  C11 UNL     1      28.048   1.250  53.240  1.00  0.00     0.024 A 
HETATM   20  C12 UNL     1      28.459  -0.065  53.293  1.00  0.00     0.034 A 
HETATM   21 CL1  UNL     1      30.126  -0.391  53.722  1.00  0.00    -0.084 Cl
HETATM   22  C13 UNL     1      27.531  -1.044  53.007  1.00  0.00     0.024 A 
HETATM   23  C14 UNL     1      26.233  -0.720  52.677  1.00  0.00     0.015 A 
ENDBRANCH   8  17
BRANCH  10  24
HETATM   24  S1  UNL     1      21.368  -1.148  54.009  1.00  0.00    -0.121 SA
HETATM   25  H12 UNL     1      22.029  -2.387  54.009  1.00  0.00     0.108 HD
ENDBRANCH  10  24
BRANCH  16  26
HETATM   26  O2  UNL     1      23.122   5.137  47.766  1.00  0.00    -0.390 OA
HETATM   27  C21 UNL     1      23.094   6.401  48.353  1.00  0.00     0.202 C 
ENDBRANCH  16  26
BRANCH   1  28
HETATM   28  C2  UNL     1      18.309   3.645  51.580  1.00  0.00    -0.002 C 
HETATM   29  C1  UNL     1      17.002   3.451  51.599  1.00  0.00     0.010 C 
ENDBRANCH   1  28
TORSDOF 4
ENDMDL
MODEL 3
REMARK VINA RESULT:      -8.1      1.859      2.520
REMARK  4 active torsions:
REMARK  status: ('A' for Active; 'I' for Inactive)
REMARK    1  A    between atoms: C2_2  and  C3_3 
REMARK    2  A    between atoms: C8_10  and  C9_11 
REMARK    3  A    between atoms: C15_19  and  S1_20 
REMARK    4  A    between atoms: C20_26  and  O2_27 
ROOT
HETATM    1  C3  UNL     1      21.907   2.597  50.446  1.00  0.00     0.166 C 
HETATM    2  C4  UNL     1      21.505   3.928  49.996  1.00  0.00     0.011 C 
HETATM    3  C5  UNL     1      22.216   5.015  49.784  1.00  0.00     0.035 C 
HETATM    4  C6  UNL     1      23.653   5.185  49.948  1.00  0.00     0.112 C 
HETATM    5  N1  UNL     1      24.476   4.680  50.844  1.00  0.00    -0.170 NA
HETATM    6  N2  UNL     1      25.624   3.901  50.513  1.00  0.00    -0.277 N 
HETATM    7  C7  UNL     1      26.579   4.374  49.534  1.00  0.00     0.144 C 
HETATM    8  C8  UNL     1      26.568   5.449  48.763  1.00  0.00     0.085 C 
HETATM    9  N3  UNL     1      25.380   6.133  48.371  1.00  0.00    -0.238 NA
HETATM   10  C15 UNL     1      24.208   6.077  48.903  1.00  0.00     0.121 C 
HETATM   11  C16 UNL     1      26.123   2.618  50.957  1.00  0.00     0.164 C 
HETATM   12  C17 UNL     1      25.175   1.826  51.786  1.00  0.00     0.028 A 
HETATM   13  C18 UNL     1      23.731   2.119  51.611  1.00  0.00     0.183 C 
HETATM   14  O1  UNL     1      23.297   2.358  50.333  1.00  0.00    -0.377 OA
HETATM   15  C19 UNL     1      25.553   1.557  53.252  1.00  0.00     0.048 A 
HETATM   16  C20 UNL     1      25.572   0.456  52.203  1.00  0.00     0.134 A 
ENDROOT
BRANCH   8  17
HETATM   17  C9  UNL     1      27.805   6.026  48.247  1.00  0.00    -0.006 A 
HETATM   18  C10 UNL     1      27.931   7.235  47.610  1.00  0.00     0.015 A 
HETATM   19  C11 UNL     1      29.115   7.757  47.135  1.00  0.00     0.024 A 
HETATM   20  C12 UNL     1      30.276   7.031  47.299  1.00  0.00     0.034 A 
HETATM   21 CL1  UNL     1      31.769   7.715  46.687  1.00  0.00    -0.084 Cl
HETATM   22  C13 UNL     1      30.190   5.812  47.936  1.00  0.00     0.024 A 
HETATM   23  C14 UNL     1      28.983   5.331  48.394  1.00  0.00     0.015 A 
ENDBRANCH   8  17
BRANCH  10  24
HETATM   24  S1  UNL     1      23.022   7.288  48.278  1.00  0.00    -0.121 SA
HETATM   25  H12 UNL     1      22.108   6.629  47.440  1.00  0.00     0.108 HD
ENDBRANCH  10  24
BRANCH  16  26
HETATM   26  O2  UNL     1      26.825  -0.042  51.932  1.00  0.00    -0.390 OA
HETATM   27  C21 UNL     1      27.526  -0.397  53.084  1.00  0.00     0.202 C 
ENDBRANCH  16  26
BRANCH   1  28
HETATM   28  C2  UNL     1      21.138   1.574  49.702  1.00  0.00    -0.002 C 
HETATM   29  C1  UNL     1      21.640   1.258  48.521  1.00  0.00     0.010 C 
ENDBRANCH   1  28
TORSDOF 4
ENDMDL
MODEL 4
REMARK VINA RESULT:      -8.0      4.262      8.576
REMARK  4 active torsions:
REMARK  status: ('A' for Active; 'I' for Inactive)
REMARK    1  A    between atoms: C2_2  and  C3_3 
REMARK    2  A    between atoms: C8_10  and  C9_11 
REMARK    3  A    between atoms: C15_19  and  S1_20 
REMARK    4  A    between atoms: C20_26  and  O2_27 
ROOT
HETATM    1  C3  UNL     1      25.701   3.646  50.553  1.00  0.00     0.166 C 
HETATM    2  C4  UNL     1      26.056   2.607  51.518  1.00  0.00     0.011 C 
HETATM    3  C5  UNL     1      25.304   1.898  52.332  1.00  0.00     0.035 C 
HETATM    4  C6  UNL     1      23.857   1.964  52.494  1.00  0.00     0.112 C 
HETATM    5  N1  UNL     1      23.040   2.995  52.447  1.00  0.00    -0.170 NA
HETATM    6  N2  UNL     1      21.932   3.087  51.553  1.00  0.00    -0.277 N 
HETATM    7  C7  UNL     1      20.977   2.005  51.449  1.00  0.00     0.144 C 
HETATM    8  C8  UNL     1      20.957   0.809  52.016  1.00  0.00     0.085 C 
HETATM    9  N3  UNL     1      22.123   0.131  52.480  1.00  0.00    -0.238 NA
HETATM   10  C15 UNL     1      23.286   0.620  52.742  1.00  0.00     0.121 C 
HETATM   11  C16 UNL     1      21.479   4.099  50.623  1.00  0.00     0.164 C 
HETATM   12  C17 UNL     1      22.443   5.203  50.375  1.00  0.00     0.028 A 
HETATM   13  C18 UNL     1      23.877   4.904  50.614  1.00  0.00     0.183 C 
HETATM   14  O1  UNL     1      24.325   3.668  50.225  1.00  0.00    -0.377 OA
HETATM   15  C19 UNL     1      22.049   6.618  50.833  1.00  0.00     0.048 A 
HETATM   16  C20 UNL     1      22.097   6.233  49.361  1.00  0.00     0.134 A 
ENDROOT
BRANCH   8  17
HETATM   17  C9  UNL     1      19.708   0.083  52.214  1.00  0.00    -0.006 A 
HETATM   18  C10 UNL     1      19.414  -0.755  53.261  1.00  0.00     0.015 A 
HETATM   19  C11 UNL     1      18.222  -1.426  53.424  1.00  0.00     0.024 A 
HETATM   20  C12 UNL     1      17.231  -1.263  52.479  1.00  0.00     0.034 A 
HETATM   21 CL1  UNL     1      15.724  -2.126  52.707  1.00  0.00    -0.084 Cl
HETATM   22  C13 UNL     1      17.488  -0.428  51.412  1.00  0.00     0.024 A 
HETATM   23  C14 UNL     1      18.697   0.223  51.292  1.00  0.00     0.015 A 
ENDBRANCH   8  17
BRANCH  10  24
HETATM   24  S1  UNL     1      24.432  -0.518  53.554  1.00  0.00    -0.121 SA
HETATM   25  H12 UNL     1      25.021  -1.334  52.574  1.00  0.00     0.108 HD
ENDBRANCH  10  24
BRANCH  16  26
HETATM   26  O2  UNL     1      20.871   6.241  48.737  1.00  0.00    -0.390 OA
HETATM   27  C21 UNL     1      19.998   7.185  49.275  1.00  0.00     0.202 C 
ENDBRANCH  16  26
BRANCH   1  28
HETATM   28  C2  UNL     1      26.528   3.487  49.334  1.00  0.00    -0.002 C 
HETATM   29  C1  UNL     1      27.168   4.581  48.958  1.00  0.00     0.010 C 
ENDBRANCH   1  28
TORSDOF 4
ENDMDL
MODEL 5
REMARK VINA RESULT:      -7.9      3.457      6.058
REMARK  4 active torsions:
REMARK  status: ('A' for Active; 'I' for Inactive)
REMARK    1  A    between atoms: C2_2  and  C3_3 
REMARK    2  A    between atoms: C8_10  and  C9_11 
REMARK    3  A    between atoms: C15_19  and  S1_20 
REMARK    4  A    between atoms: C20_26  and  O2_27 
ROOT
HETATM    1  C3  UNL     1      21.394   4.625  47.973  1.00  0.00     0.166 C 
HETATM    2  C4  UNL     1      22.607   5.433  47.869  1.00  0.00     0.011 C 
HETATM    3  C5  UNL     1      23.696   5.448  48.608  1.00  0.00     0.035 C 
HETATM    4  C6  UNL     1      23.992   4.628  49.774  1.00  0.00     0.112 C 
HETATM    5  N1  UNL     1      23.203   4.196  50.736  1.00  0.00    -0.170 NA
HETATM    6  N2  UNL     1      23.037   2.818  51.064  1.00  0.00    -0.277 N 
HETATM    7  C7  UNL     1      24.188   1.967  51.282  1.00  0.00     0.144 C 
HETATM    8  C8  UNL     1      25.482   2.214  51.162  1.00  0.00     0.085 C 
HETATM    9  N3  UNL     1      26.022   3.232  50.321  1.00  0.00    -0.238 NA
HETATM   10  C15 UNL     1      25.425   4.256  49.815  1.00  0.00     0.121 C 
HETATM   11  C16 UNL     1      21.882   1.967  51.249  1.00  0.00     0.164 C 
HETATM   12  C17 UNL     1      20.586   2.564  50.832  1.00  0.00     0.028 A 
HETATM   13  C18 UNL     1      20.645   3.643  49.814  1.00  0.00     0.183 C 
HETATM   14  O1  UNL     1      21.545   3.481  48.792  1.00  0.00    -0.377 OA
HETATM   15  C19 UNL     1      19.535   2.836  51.922  1.00  0.00     0.048 A 
HETATM   16  C20 UNL     1      19.363   1.723  50.899  1.00  0.00     0.134 A 
ENDROOT
BRANCH   8  17
HETATM   17  C9  UNL     1      26.474   1.443  51.903  1.00  0.00    -0.006 A 
HETATM   18  C10 UNL     1      26.506   0.077  52.033  1.00  0.00     0.015 A 
HETATM   19  C11 UNL     1      27.459  -0.626  52.739  1.00  0.00     0.024 A 
HETATM   20  C12 UNL     1      28.467   0.070  53.372  1.00  0.00     0.034 A 
HETATM   21 CL1  UNL     1      29.667  -0.846  54.262  1.00  0.00    -0.084 Cl
HETATM   22  C13 UNL     1      28.469   1.444  53.263  1.00  0.00     0.024 A 
HETATM   23  C14 UNL     1      27.495   2.104  52.546  1.00  0.00     0.015 A 
ENDBRANCH   8  17
BRANCH  10  24
HETATM   24  S1  UNL     1      26.511   5.457  49.011  1.00  0.00    -0.121 SA
HETATM   25  H12 UNL     1      25.836   6.000  47.906  1.00  0.00     0.108 HD
ENDBRANCH  10  24
BRANCH  16  26
HETATM   26  O2  UNL     1      19.391   0.457  51.434  1.00  0.00    -0.390 OA
HETATM   27  C21 UNL     1      18.120  -0.097  51.578  1.00  0.00     0.202 C 
ENDBRANCH  16  26
BRANCH   1  28
HETATM   28  C2  UNL     1      20.941   4.241  46.616  1.00  0.00    -0.002 C 
HETATM   29  C1  UNL     1      21.853   3.624  45.886  1.00  0.00     0.010 C 
ENDBRANCH   1  28
TORSDOF 4
ENDMDL
MODEL 6
REMARK VINA RESULT:      -7.6      3.151      5.487
REMARK  4 active torsions:
REMARK  status: ('A' for Active; 'I' for Inactive)
REMARK    1  A    between atoms: C2_2  and  C3_3 
REMARK    2  A    between atoms: C8_10  and  C9_11 
REMARK    3  A    between atoms: C15_19  and  S1_20 
REMARK    4  A    between atoms: C20_26  and  O2_27 
ROOT
HETATM    1  C3  UNL     1      26.522   0.509  53.321  1.00  0.00     0.166 C 
HETATM    2  C4  UNL     1      27.238   1.233  52.272  1.00  0.00     0.011 C 
HETATM    3  C5  UNL     1      26.793   2.005  51.304  1.00  0.00     0.035 C 
HETATM    4  C6  UNL     1      25.410   2.357  51.009  1.00  0.00     0.112 C 
HETATM    5  N1  UNL     1      24.309   1.641  51.104  1.00  0.00    -0.170 NA
HETATM    6  N2  UNL     1      23.180   2.025  51.888  1.00  0.00    -0.277 N 
HETATM    7  C7  UNL     1      22.609   3.350  51.759  1.00  0.00     0.144 C 
HETATM    8  C8  UNL     1      22.998   4.394  51.045  1.00  0.00     0.085 C 
HETATM    9  N3  UNL     1      24.341   4.609  50.618  1.00  0.00    -0.238 NA
HETATM   10  C15 UNL     1      25.304   3.757  50.537  1.00  0.00     0.121 C 
HETATM   11  C16 UNL     1      22.382   1.352  52.888  1.00  0.00     0.164 C 
HETATM   12  C17 UNL     1      22.935   0.058  53.369  1.00  0.00     0.028 A 
HETATM   13  C18 UNL     1      24.401  -0.131  53.238  1.00  0.00     0.183 C 
HETATM   14  O1  UNL     1      25.192   0.954  53.510  1.00  0.00    -0.377 OA
HETATM   15  C19 UNL     1      22.142  -1.223  53.057  1.00  0.00     0.048 A 
HETATM   16  C20 UNL     1      22.227  -0.653  54.465  1.00  0.00     0.134 A 
ENDROOT
BRANCH   8  17
HETATM   17  C9  UNL     1      22.052   5.426  50.634  1.00  0.00    -0.006 A 
HETATM   18  C10 UNL     1      20.819   5.216  50.068  1.00  0.00     0.015 A 
HETATM   19  C11 UNL     1      19.945   6.212  49.691  1.00  0.00     0.024 A 
HETATM   20  C12 UNL     1      20.310   7.528  49.884  1.00  0.00     0.034 A 
HETATM   21 CL1  UNL     1      19.181   8.776  49.397  1.00  0.00    -0.084 Cl
HETATM   22  C13 UNL     1      21.541   7.779  50.451  1.00  0.00     0.024 A 
HETATM   23  C14 UNL     1      22.383   6.749  50.812  1.00  0.00     0.015 A 
ENDBRANCH   8  17
BRANCH  10  24
HETATM   24  S1  UNL     1      26.792   4.357  49.706  1.00  0.00    -0.121 SA
HETATM   25  H12 UNL     1      26.491   4.577  48.352  1.00  0.00     0.108 HD
ENDBRANCH  10  24
BRANCH  16  26
HETATM   26  O2  UNL     1      21.028  -0.195  54.961  1.00  0.00    -0.390 OA
HETATM   27  C21 UNL     1      19.936  -0.615  54.204  1.00  0.00     0.202 C 
ENDBRANCH  16  26
BRANCH   1  28
HETATM   28  C2  UNL     1      27.287   0.592  54.586  1.00  0.00    -0.002 C 
HETATM   29  C1  UNL     1      28.568   0.283  54.475  1.00  0.00     0.010 C 
ENDBRANCH   1  28
TORSDOF 4
ENDMDL
MODEL 7
REMARK VINA RESULT:      -7.6      6.288     11.224
REMARK  4 active torsions:
REMARK  status: ('A' for Active; 'I' for Inactive)
REMARK    1  A    between atoms: C2_2  and  C3_3 
REMARK    2  A    between atoms: C8_10  and  C9_11 
REMARK    3  A    between atoms: C15_19  and  S1_20 
REMARK    4  A    between atoms: C20_26  and  O2_27 
ROOT
HETATM    1  C3  UNL     1      33.233   9.339  46.272  1.00  0.00     0.166 C 
HETATM    2  C4  UNL     1      33.654   7.960  46.514  1.00  0.00     0.011 C 
HETATM    3  C5  UNL     1      33.081   6.996  47.202  1.00  0.00     0.035 C 
HETATM    4  C6  UNL     1      31.823   7.049  47.933  1.00  0.00     0.112 C 
HETATM    5  N1  UNL     1      31.282   8.027  48.630  1.00  0.00    -0.170 NA
HETATM    6  N2  UNL     1      29.987   8.565  48.365  1.00  0.00    -0.277 N 
HETATM    7  C7  UNL     1      28.841   7.693  48.224  1.00  0.00     0.144 C 
HETATM    8  C8  UNL     1      28.752   6.373  48.223  1.00  0.00     0.085 C 
HETATM    9  N3  UNL     1      29.828   5.504  47.874  1.00  0.00    -0.238 NA
HETATM   10  C15 UNL     1      31.089   5.767  47.827  1.00  0.00     0.121 C 
HETATM   11  C16 UNL     1      29.482   9.908  48.180  1.00  0.00     0.164 C 
HETATM   12  C17 UNL     1      30.524  10.959  48.035  1.00  0.00     0.028 A 
HETATM   13  C18 UNL     1      31.854  10.517  47.546  1.00  0.00     0.183 C 
HETATM   14  O1  UNL     1      31.866   9.572  46.554  1.00  0.00    -0.377 OA
HETATM   15  C19 UNL     1      30.623  12.030  49.135  1.00  0.00     0.048 A 
HETATM   16  C20 UNL     1      30.093  12.351  47.745  1.00  0.00     0.134 A 
ENDROOT
BRANCH   8  17
HETATM   17  C9  UNL     1      27.513   5.695  48.590  1.00  0.00    -0.006 A 
HETATM   18  C10 UNL     1      27.392   4.385  48.983  1.00  0.00     0.015 A 
HETATM   19  C11 UNL     1      26.207   3.772  49.327  1.00  0.00     0.024 A 
HETATM   20  C12 UNL     1      25.040   4.505  49.283  1.00  0.00     0.034 A 
HETATM   21 CL1  UNL     1      23.546   3.704  49.726  1.00  0.00    -0.084 Cl
HETATM   22  C13 UNL     1      25.121   5.825  48.894  1.00  0.00     0.024 A 
HETATM   23  C14 UNL     1      26.330   6.396  48.559  1.00  0.00     0.015 A 
ENDBRANCH   8  17
BRANCH  10  24
HETATM   24  S1  UNL     1      32.163   4.333  47.591  1.00  0.00    -0.121 SA
HETATM   25  H12 UNL     1      31.798   3.343  48.517  1.00  0.00     0.108 HD
ENDBRANCH  10  24
BRANCH  16  26
HETATM   26  O2  UNL     1      28.762  12.698  47.717  1.00  0.00    -0.390 OA
HETATM   27  C21 UNL     1      28.343  13.325  48.888  1.00  0.00     0.202 C 
ENDBRANCH  16  26
BRANCH   1  28
HETATM   28  C2  UNL     1      33.551   9.711  44.874  1.00  0.00    -0.002 C 
HETATM   29  C1  UNL     1      34.834   9.929  44.641  1.00  0.00     0.010 C 
ENDBRANCH   1  28
TORSDOF 4
ENDMDL
MODEL 8
REMARK VINA RESULT:      -7.4      2.694      4.981
REMARK  4 active torsions:
REMARK  status: ('A' for Active; 'I' for Inactive)
REMARK    1  A    between atoms: C2_2  and  C3_3 
REMARK    2  A    between atoms: C8_10  and  C9_11 
REMARK    3  A    between atoms: C15_19  and  S1_20 
REMARK    4  A    between atoms: C20_26  and  O2_27 
ROOT
HETATM    1  C3  UNL     1      22.088  -0.335  53.354  1.00  0.00     0.166 C 
HETATM    2  C4  UNL     1      23.539  -0.437  53.212  1.00  0.00     0.011 C 
HETATM    3  C5  UNL     1      24.385   0.280  52.503  1.00  0.00     0.035 C 
HETATM    4  C6  UNL     1      24.087   1.412  51.637  1.00  0.00     0.112 C 
HETATM    5  N1  UNL     1      23.055   1.635  50.849  1.00  0.00    -0.170 NA
HETATM    6  N2  UNL     1      22.215   2.784  50.951  1.00  0.00    -0.277 N 
HETATM    7  C7  UNL     1      22.786   4.113  50.999  1.00  0.00     0.144 C 
HETATM    8  C8  UNL     1      24.047   4.513  51.041  1.00  0.00     0.085 C 
HETATM    9  N3  UNL     1      25.118   3.713  51.537  1.00  0.00    -0.238 NA
HETATM   10  C15 UNL     1      25.154   2.437  51.711  1.00  0.00     0.121 C 
HETATM   11  C16 UNL     1      20.783   2.971  51.029  1.00  0.00     0.164 C 
HETATM   12  C17 UNL     1      19.996   1.728  51.246  1.00  0.00     0.028 A 
HETATM   13  C18 UNL     1      20.704   0.595  51.893  1.00  0.00     0.183 C 
HETATM   14  O1  UNL     1      21.562   0.904  52.917  1.00  0.00    -0.377 OA
HETATM   15  C19 UNL     1      19.049   1.271  50.124  1.00  0.00     0.048 A 
HETATM   16  C20 UNL     1      18.527   1.842  51.434  1.00  0.00     0.134 A 
ENDROOT
BRANCH   8  17
HETATM   17  C9  UNL     1      24.440   5.836  50.566  1.00  0.00    -0.006 A 
HETATM   18  C10 UNL     1      23.789   7.016  50.827  1.00  0.00     0.015 A 
HETATM   19  C11 UNL     1      24.185   8.253  50.367  1.00  0.00     0.024 A 
HETATM   20  C12 UNL     1      25.316   8.342  49.583  1.00  0.00     0.034 A 
HETATM   21 CL1  UNL     1      25.800   9.925  49.010  1.00  0.00    -0.084 Cl
HETATM   22  C13 UNL     1      25.997   7.177  49.299  1.00  0.00     0.024 A 
HETATM   23  C14 UNL     1      25.563   5.962  49.783  1.00  0.00     0.015 A 
ENDBRANCH   8  17
BRANCH  10  24
HETATM   24  S1  UNL     1      26.780   1.763  52.118  1.00  0.00    -0.121 SA
HETATM   25  H12 UNL     1      26.680   0.364  52.189  1.00  0.00     0.108 HD
ENDBRANCH  10  24
BRANCH  16  26
HETATM   26  O2  UNL     1      17.878   3.048  51.305  1.00  0.00    -0.390 OA
HETATM   27  C21 UNL     1      17.088   3.116  50.159  1.00  0.00     0.202 C 
ENDBRANCH  16  26
BRANCH   1  28
HETATM   28  C2  UNL     1      21.713  -0.595  54.763  1.00  0.00    -0.002 C 
HETATM   29  C1  UNL     1      22.478  -1.478  55.382  1.00  0.00     0.010 C 
ENDBRANCH   1  28
TORSDOF 4
ENDMDL
MODEL 9
REMARK VINA RESULT:      -7.1      3.885      6.186
REMARK  4 active torsions:
REMARK  status: ('A' for Active; 'I' for Inactive)
REMARK    1  A    between atoms: C2_2  and  C3_3 
REMARK    2  A    between atoms: C8_10  and  C9_11 
REMARK    3  A    between atoms: C15_19  and  S1_20 
REMARK    4  A    between atoms: C20_26  and  O2_27 
ROOT
HETATM    1  C3  UNL     1      21.513  -0.235  53.152  1.00  0.00     0.166 C 
HETATM    2  C4  UNL     1      22.873   0.157  52.789  1.00  0.00     0.011 C 
HETATM    3  C5  UNL     1      23.309   1.103  51.984  1.00  0.00     0.035 C 
HETATM    4  C6  UNL     1      22.517   2.048  51.208  1.00  0.00     0.112 C 
HETATM    5  N1  UNL     1      21.364   1.891  50.592  1.00  0.00    -0.170 NA
HETATM    6  N2  UNL     1      20.211   2.689  50.855  1.00  0.00    -0.277 N 
HETATM    7  C7  UNL     1      20.299   4.134  50.859  1.00  0.00     0.144 C 
HETATM    8  C8  UNL     1      21.341   4.938  50.723  1.00  0.00     0.085 C 
HETATM    9  N3  UNL     1      22.681   4.560  51.026  1.00  0.00    -0.238 NA
HETATM   10  C15 UNL     1      23.173   3.375  51.153  1.00  0.00     0.121 C 
HETATM   11  C16 UNL     1      18.829   2.381  51.154  1.00  0.00     0.164 C 
HETATM   12  C17 UNL     1      18.552   0.950  51.448  1.00  0.00     0.028 A 
HETATM   13  C18 UNL     1      19.691   0.138  51.946  1.00  0.00     0.183 C 
HETATM   14  O1  UNL     1      20.539   0.742  52.837  1.00  0.00    -0.377 OA
HETATM   15  C19 UNL     1      17.655   0.175  50.468  1.00  0.00     0.048 A 
HETATM   16  C20 UNL     1      17.177   0.564  51.859  1.00  0.00     0.134 A 
ENDROOT
BRANCH   8  17
HETATM   17  C9  UNL     1      21.186   6.305  50.236  1.00  0.00    -0.006 A 
HETATM   18  C10 UNL     1      20.044   6.852  49.708  1.00  0.00     0.015 A 
HETATM   19  C11 UNL     1      19.925   8.149  49.258  1.00  0.00     0.024 A 
HETATM   20  C12 UNL     1      21.022   8.983  49.332  1.00  0.00     0.034 A 
HETATM   21 CL1  UNL     1      20.848  10.628  48.755  1.00  0.00    -0.084 Cl
HETATM   22  C13 UNL     1      22.188   8.469  49.858  1.00  0.00     0.024 A 
HETATM   23  C14 UNL     1      22.258   7.164  50.296  1.00  0.00     0.015 A 
ENDBRANCH   8  17
BRANCH  10  24
HETATM   24  S1  UNL     1      24.973   3.301  51.289  1.00  0.00    -0.121 SA
HETATM   25  H12 UNL     1      25.490   4.592  51.088  1.00  0.00     0.108 HD
ENDBRANCH  10  24
BRANCH  16  26
HETATM   26  O2  UNL     1      16.148   1.476  51.867  1.00  0.00    -0.390 OA
HETATM   27  C21 UNL     1      15.033   1.025  52.571  1.00  0.00     0.202 C 
ENDBRANCH  16  26
BRANCH   1  28
HETATM   28  C2  UNL     1      21.467  -0.576  54.592  1.00  0.00    -0.002 C 
HETATM   29  C1  UNL     1      22.303  -1.532  54.958  1.00  0.00     0.010 C 
ENDBRANCH   1  28
TORSDOF 4
ENDMDL
