MODEL 1
REMARK VINA RESULT:      -7.9      0.000      0.000
REMARK  3 active torsions:
REMARK  status: ('A' for Active; 'I' for Inactive)
REMARK    1  A    between atoms: C7_11  and  C8_12 
REMARK    2  A    between atoms: C8_12  and  N5_13 
REMARK    3  A    between atoms: N8_22  and  N9_23 
ROOT
HETATM    1  C1  UNL     1      24.168   6.682  51.207  1.00  0.00     0.143 C 
HETATM    2  N1  UNL     1      23.091   5.746  50.911  1.00  0.00    -0.412 N 
HETATM    3  C2  UNL     1      23.341   4.936  49.794  1.00  0.00     0.163 C 
HETATM    4  C3  UNL     1      24.439   3.935  49.944  1.00  0.00     0.111 C 
HETATM    5  N2  UNL     1      25.056   2.868  50.430  1.00  0.00    -0.242 NA
HETATM    6  C4  UNL     1      24.286   2.192  51.418  1.00  0.00     0.175 A 
HETATM    7  N3  UNL     1      23.257   1.648  50.724  1.00  0.00    -0.238 NA
HETATM    8  C5  UNL     1      22.305   0.977  51.394  1.00  0.00     0.146 A 
HETATM    9  C6  UNL     1      22.328   0.814  52.777  1.00  0.00     0.057 A 
HETATM   10  N4  UNL     1      23.354   1.357  53.423  1.00  0.00    -0.250 NA
HETATM   11  C7  UNL     1      24.303   2.024  52.775  1.00  0.00     0.100 A 
HETATM   12  C13 UNL     1      21.059   0.100  53.003  1.00  0.00     0.109 C 
HETATM   13  C14 UNL     1      19.876   0.881  52.438  1.00  0.00     0.119 C 
HETATM   14  N7  UNL     1      20.347   1.949  52.025  1.00  0.00    -0.178 NA
HETATM   15  N8  UNL     1      19.910   3.064  51.432  1.00  0.00    -0.236 N 
HETATM   16  C15 UNL     1      20.872   4.087  51.705  1.00  0.00     0.167 C 
HETATM   17  C16 UNL     1      20.715   5.317  50.832  1.00  0.00     0.042 C 
HETATM   18  C17 UNL     1      21.807   6.313  51.105  1.00  0.00     0.118 C 
ENDROOT
BRANCH  11  19
HETATM   19  C8  UNL     1      25.378   2.567  53.654  1.00  0.00     0.184 C 
BRANCH  19  20
HETATM   20  N5  UNL     1      26.407   1.610  53.893  1.00  0.00    -0.364 N 
HETATM   21  C9  UNL     1      27.786   1.329  53.595  1.00  0.00     0.122 A 
HETATM   22  C10 UNL     1      29.039   0.921  53.458  1.00  0.00     0.030 C 
HETATM   23  C12 UNL     1      26.846   0.441  54.466  1.00  0.00     0.239 A 
HETATM   24  C11 UNL     1      29.043  -0.155  54.414  1.00  0.00     0.111 C 
HETATM   25  N6  UNL     1      27.900  -0.369  54.957  1.00  0.00    -0.273 NA
ENDBRANCH  19  20
ENDBRANCH  11  19
BRANCH  15  26
HETATM   26  N9  UNL     1      18.775   3.353  50.666  1.00  0.00    -0.231 NA
HETATM   27  H16 UNL     1      18.201   2.504  50.643  1.00  0.00     0.144 HD
HETATM   28  H17 UNL     1      18.998   3.679  49.712  1.00  0.00     0.144 HD
ENDBRANCH  15  26
TORSDOF 3
ENDMDL
MODEL 2
REMARK VINA RESULT:      -7.4      8.144     11.335
REMARK  3 active torsions:
REMARK  status: ('A' for Active; 'I' for Inactive)
REMARK    1  A    between atoms: C7_11  and  C8_12 
REMARK    2  A    between atoms: C8_12  and  N5_13 
REMARK    3  A    between atoms: N8_22  and  N9_23 
ROOT
HETATM    1  C1  UNL     1      29.993  11.839  46.255  1.00  0.00     0.143 C 
HETATM    2  N1  UNL     1      31.197  11.159  46.714  1.00  0.00    -0.412 N 
HETATM    3  C2  UNL     1      31.402  11.251  48.098  1.00  0.00     0.163 C 
HETATM    4  C3  UNL     1      30.421  10.520  48.955  1.00  0.00     0.111 C 
HETATM    5  N2  UNL     1      29.793   9.469  49.461  1.00  0.00    -0.242 NA
HETATM    6  C4  UNL     1      30.270   8.237  48.931  1.00  0.00     0.175 A 
HETATM    7  N3  UNL     1      31.517   8.112  49.448  1.00  0.00    -0.238 NA
HETATM    8  C5  UNL     1      32.266   7.057  49.087  1.00  0.00     0.146 A 
HETATM    9  C6  UNL     1      31.818   6.081  48.202  1.00  0.00     0.057 A 
HETATM   10  N4  UNL     1      30.589   6.233  47.719  1.00  0.00    -0.250 NA
HETATM   11  C7  UNL     1      29.836   7.271  48.066  1.00  0.00     0.100 A 
HETATM   12  C13 UNL     1      33.013   5.226  48.087  1.00  0.00     0.109 C 
HETATM   13  C14 UNL     1      34.229   6.032  47.639  1.00  0.00     0.119 C 
HETATM   14  N7  UNL     1      33.810   7.176  47.419  1.00  0.00    -0.178 NA
HETATM   15  N8  UNL     1      34.298   8.352  47.016  1.00  0.00    -0.236 N 
HETATM   16  C15 UNL     1      33.201   9.100  46.483  1.00  0.00     0.167 C 
HETATM   17  C16 UNL     1      33.504  10.574  46.297  1.00  0.00     0.042 C 
HETATM   18  C17 UNL     1      32.286  11.317  45.822  1.00  0.00     0.118 C 
ENDROOT
BRANCH  11  19
HETATM   19  C8  UNL     1      28.487   7.286  47.431  1.00  0.00     0.184 C 
BRANCH  19  20
HETATM   20  N5  UNL     1      27.536   6.531  48.180  1.00  0.00    -0.364 N 
HETATM   21  C9  UNL     1      27.277   5.206  48.675  1.00  0.00     0.122 A 
HETATM   22  C10 UNL     1      26.886   4.071  49.237  1.00  0.00     0.030 C 
HETATM   23  C12 UNL     1      26.361   6.449  48.886  1.00  0.00     0.239 A 
HETATM   24  C11 UNL     1      25.791   4.564  50.029  1.00  0.00     0.111 C 
HETATM   25  N6  UNL     1      25.552   5.815  49.862  1.00  0.00    -0.273 NA
ENDBRANCH  19  20
ENDBRANCH  11  19
BRANCH  15  26
HETATM   26  N9  UNL     1      35.583   8.906  47.033  1.00  0.00    -0.231 NA
HETATM   27  H16 UNL     1      35.810   9.115  48.010  1.00  0.00     0.144 HD
HETATM   28  H17 UNL     1      35.674   9.747  46.440  1.00  0.00     0.144 HD
ENDBRANCH  15  26
TORSDOF 3
ENDMDL
MODEL 3
REMARK VINA RESULT:      -7.4      2.141      5.998
REMARK  3 active torsions:
REMARK  status: ('A' for Active; 'I' for Inactive)
REMARK    1  A    between atoms: C7_11  and  C8_12 
REMARK    2  A    between atoms: C8_12  and  N5_13 
REMARK    3  A    between atoms: N8_22  and  N9_23 
ROOT
HETATM    1  C1  UNL     1      21.235   5.236  48.487  1.00  0.00     0.143 C 
HETATM    2  N1  UNL     1      22.484   4.990  49.195  1.00  0.00    -0.412 N 
HETATM    3  C2  UNL     1      22.526   5.558  50.477  1.00  0.00     0.163 C 
HETATM    4  C3  UNL     1      21.604   4.960  51.488  1.00  0.00     0.111 C 
HETATM    5  N2  UNL     1      21.117   4.024  52.289  1.00  0.00    -0.242 NA
HETATM    6  C4  UNL     1      21.853   2.806  52.220  1.00  0.00     0.175 A 
HETATM    7  N3  UNL     1      23.042   3.103  52.799  1.00  0.00    -0.238 NA
HETATM    8  C5  UNL     1      23.996   2.157  52.841  1.00  0.00     0.146 A 
HETATM    9  C6  UNL     1      23.818   0.881  52.315  1.00  0.00     0.057 A 
HETATM   10  N4  UNL     1      22.637   0.625  51.759  1.00  0.00    -0.250 NA
HETATM   11  C7  UNL     1      21.684   1.549  51.710  1.00  0.00     0.100 A 
HETATM   12  C13 UNL     1      25.148   0.288  52.540  1.00  0.00     0.109 C 
HETATM   13  C14 UNL     1      26.246   1.133  51.899  1.00  0.00     0.119 C 
HETATM   14  N7  UNL     1      25.660   2.039  51.293  1.00  0.00    -0.178 NA
HETATM   15  N8  UNL     1      25.976   3.097  50.541  1.00  0.00    -0.236 N 
HETATM   16  C15 UNL     1      24.828   3.404  49.746  1.00  0.00     0.167 C 
HETATM   17  C16 UNL     1      24.888   4.770  49.091  1.00  0.00     0.042 C 
HETATM   18  C17 UNL     1      23.617   5.066  48.346  1.00  0.00     0.118 C 
ENDROOT
BRANCH  11  19
HETATM   19  C8  UNL     1      20.426   1.094  51.052  1.00  0.00     0.184 C 
BRANCH  19  20
HETATM   20  N5  UNL     1      19.645   0.264  51.910  1.00  0.00    -0.364 N 
HETATM   21  C9  UNL     1      18.331  -0.301  52.052  1.00  0.00     0.122 A 
HETATM   22  C10 UNL     1      17.200  -0.932  52.334  1.00  0.00     0.030 C 
HETATM   23  C12 UNL     1      19.519  -0.506  53.040  1.00  0.00     0.239 A 
HETATM   24  C11 UNL     1      17.656  -1.758  53.421  1.00  0.00     0.111 C 
HETATM   25  N6  UNL     1      18.878  -1.549  53.754  1.00  0.00    -0.273 NA
ENDBRANCH  19  20
ENDBRANCH  11  19
BRANCH  15  26
HETATM   26  N9  UNL     1      27.137   3.869  50.425  1.00  0.00    -0.231 NA
HETATM   27  H16 UNL     1      27.828   3.478  51.073  1.00  0.00     0.144 HD
HETATM   28  H17 UNL     1      26.980   4.874  50.608  1.00  0.00     0.144 HD
ENDBRANCH  15  26
TORSDOF 3
ENDMDL
MODEL 4
REMARK VINA RESULT:      -7.3      2.340      6.158
REMARK  3 active torsions:
REMARK  status: ('A' for Active; 'I' for Inactive)
REMARK    1  A    between atoms: C7_11  and  C8_12 
REMARK    2  A    between atoms: C8_12  and  N5_13 
REMARK    3  A    between atoms: N8_22  and  N9_23 
ROOT
HETATM    1  C1  UNL     1      26.264   1.120  51.968  1.00  0.00     0.143 C 
HETATM    2  N1  UNL     1      25.020   0.882  52.687  1.00  0.00    -0.412 N 
HETATM    3  C2  UNL     1      24.548   2.004  53.382  1.00  0.00     0.163 C 
HETATM    4  C3  UNL     1      24.076   3.144  52.540  1.00  0.00     0.111 C 
HETATM    5  N2  UNL     1      23.301   3.778  51.673  1.00  0.00    -0.242 NA
HETATM    6  C4  UNL     1      22.238   2.963  51.189  1.00  0.00     0.175 A 
HETATM    7  N3  UNL     1      21.421   2.811  52.261  1.00  0.00    -0.238 NA
HETATM    8  C5  UNL     1      20.332   2.033  52.141  1.00  0.00     0.146 A 
HETATM    9  C6  UNL     1      20.003   1.372  50.961  1.00  0.00     0.057 A 
HETATM   10  N4  UNL     1      20.824   1.548  49.931  1.00  0.00    -0.250 NA
HETATM   11  C7  UNL     1      21.905   2.314  50.033  1.00  0.00     0.100 A 
HETATM   12  C13 UNL     1      18.807   0.619  51.377  1.00  0.00     0.109 C 
HETATM   13  C14 UNL     1      19.104  -0.268  52.584  1.00  0.00     0.119 C 
HETATM   14  N7  UNL     1      20.316  -0.146  52.799  1.00  0.00    -0.178 NA
HETATM   15  N8  UNL     1      21.224  -0.610  53.662  1.00  0.00    -0.236 N 
HETATM   16  C15 UNL     1      22.503  -0.480  53.036  1.00  0.00     0.167 C 
HETATM   17  C16 UNL     1      23.668  -0.636  53.994  1.00  0.00     0.042 C 
HETATM   18  C17 UNL     1      24.976  -0.399  53.292  1.00  0.00     0.118 C 
ENDROOT
BRANCH  11  19
HETATM   19  C8  UNL     1      22.714   2.399  48.783  1.00  0.00     0.184 C 
BRANCH  19  20
HETATM   20  N5  UNL     1      22.623   3.686  48.176  1.00  0.00    -0.364 N 
HETATM   21  C9  UNL     1      23.203   5.001  48.214  1.00  0.00     0.122 A 
HETATM   22  C10 UNL     1      23.629   6.249  48.080  1.00  0.00     0.030 C 
HETATM   23  C12 UNL     1      22.051   4.544  47.268  1.00  0.00     0.239 A 
HETATM   24  C11 UNL     1      22.916   6.615  46.885  1.00  0.00     0.111 C 
HETATM   25  N6  UNL     1      22.124   5.702  46.453  1.00  0.00    -0.273 NA
ENDBRANCH  19  20
ENDBRANCH  11  19
BRANCH  15  26
HETATM   26  N9  UNL     1      21.124  -1.147  54.951  1.00  0.00    -0.231 NA
HETATM   27  H16 UNL     1      20.948  -2.151  54.848  1.00  0.00     0.144 HD
HETATM   28  H17 UNL     1      20.394  -0.697  55.526  1.00  0.00     0.144 HD
ENDBRANCH  15  26
TORSDOF 3
ENDMDL
MODEL 5
REMARK VINA RESULT:      -7.2      2.100      4.484
REMARK  3 active torsions:
REMARK  status: ('A' for Active; 'I' for Inactive)
REMARK    1  A    between atoms: C7_11  and  C8_12 
REMARK    2  A    between atoms: C8_12  and  N5_13 
REMARK    3  A    between atoms: N8_22  and  N9_23 
ROOT
HETATM    1  C1  UNL     1      21.121   0.664  50.305  1.00  0.00     0.143 C 
HETATM    2  N1  UNL     1      21.297   2.049  49.891  1.00  0.00    -0.412 N 
HETATM    3  C2  UNL     1      21.046   2.978  50.911  1.00  0.00     0.163 C 
HETATM    4  C3  UNL     1      22.019   2.984  52.044  1.00  0.00     0.111 C 
HETATM    5  N2  UNL     1      23.187   3.152  52.645  1.00  0.00    -0.242 NA
HETATM    6  C4  UNL     1      24.203   3.600  51.753  1.00  0.00     0.175 A 
HETATM    7  N3  UNL     1      23.841   4.871  51.448  1.00  0.00    -0.238 NA
HETATM    8  C5  UNL     1      24.584   5.562  50.567  1.00  0.00     0.146 A 
HETATM    9  C6  UNL     1      25.713   5.031  49.950  1.00  0.00     0.057 A 
HETATM   10  N4  UNL     1      26.039   3.785  50.277  1.00  0.00    -0.250 NA
HETATM   11  C7  UNL     1      25.316   3.088  51.146  1.00  0.00     0.100 A 
HETATM   12  C13 UNL     1      26.094   6.133  49.049  1.00  0.00     0.109 C 
HETATM   13  C14 UNL     1      24.940   6.516  48.125  1.00  0.00     0.119 C 
HETATM   14  N7  UNL     1      24.038   5.703  48.362  1.00  0.00    -0.178 NA
HETATM   15  N8  UNL     1      22.794   5.449  47.945  1.00  0.00    -0.236 N 
HETATM   16  C15 UNL     1      22.521   4.078  48.250  1.00  0.00     0.167 C 
HETATM   17  C16 UNL     1      21.052   3.716  48.159  1.00  0.00     0.042 C 
HETATM   18  C17 UNL     1      20.823   2.290  48.577  1.00  0.00     0.118 C 
ENDROOT
BRANCH  11  19
HETATM   19  C8  UNL     1      25.823   1.708  51.396  1.00  0.00     0.184 C 
BRANCH  19  20
HETATM   20  N5  UNL     1      26.824   1.683  52.411  1.00  0.00    -0.364 N 
HETATM   21  C9  UNL     1      27.800   0.821  53.021  1.00  0.00     0.122 A 
HETATM   22  C10 UNL     1      28.766   0.194  53.676  1.00  0.00     0.030 C 
HETATM   23  C12 UNL     1      27.529   2.305  53.414  1.00  0.00     0.239 A 
HETATM   24  C11 UNL     1      29.324   1.308  54.396  1.00  0.00     0.111 C 
HETATM   25  N6  UNL     1      28.689   2.409  54.220  1.00  0.00    -0.273 NA
ENDBRANCH  19  20
ENDBRANCH  11  19
BRANCH  15  26
HETATM   26  N9  UNL     1      21.821   6.236  47.320  1.00  0.00    -0.231 NA
HETATM   27  H16 UNL     1      20.910   5.930  47.673  1.00  0.00     0.144 HD
HETATM   28  H17 UNL     1      21.857   6.188  46.288  1.00  0.00     0.144 HD
ENDBRANCH  15  26
TORSDOF 3
ENDMDL
MODEL 6
REMARK VINA RESULT:      -7.1      1.981      6.185
REMARK  3 active torsions:
REMARK  status: ('A' for Active; 'I' for Inactive)
REMARK    1  A    between atoms: C7_11  and  C8_12 
REMARK    2  A    between atoms: C8_12  and  N5_13 
REMARK    3  A    between atoms: N8_22  and  N9_23 
ROOT
HETATM    1  C1  UNL     1      23.321   4.920  48.460  1.00  0.00     0.143 C 
HETATM    2  N1  UNL     1      24.202   4.501  49.542  1.00  0.00    -0.412 N 
HETATM    3  C2  UNL     1      23.895   5.087  50.778  1.00  0.00     0.163 C 
HETATM    4  C3  UNL     1      22.604   4.664  51.399  1.00  0.00     0.111 C 
HETATM    5  N2  UNL     1      21.737   3.835  51.960  1.00  0.00    -0.242 NA
HETATM    6  C4  UNL     1      22.255   2.517  52.108  1.00  0.00     0.175 A 
HETATM    7  N3  UNL     1      23.209   2.639  53.063  1.00  0.00    -0.238 NA
HETATM    8  C5  UNL     1      23.934   1.558  53.397  1.00  0.00     0.146 A 
HETATM    9  C6  UNL     1      23.750   0.312  52.804  1.00  0.00     0.057 A 
HETATM   10  N4  UNL     1      22.803   0.230  51.875  1.00  0.00    -0.250 NA
HETATM   11  C7  UNL     1      22.078   1.289  51.533  1.00  0.00     0.100 A 
HETATM   12  C13 UNL     1      24.817  -0.474  53.448  1.00  0.00     0.109 C 
HETATM   13  C14 UNL     1      26.183   0.174  53.242  1.00  0.00     0.119 C 
HETATM   14  N7  UNL     1      25.985   1.145  52.500  1.00  0.00    -0.178 NA
HETATM   15  N8  UNL     1      26.696   2.123  51.932  1.00  0.00    -0.236 N 
HETATM   16  C15 UNL     1      25.947   2.584  50.804  1.00  0.00     0.167 C 
HETATM   17  C16 UNL     1      26.435   3.908  50.250  1.00  0.00     0.042 C 
HETATM   18  C17 UNL     1      25.553   4.380  49.128  1.00  0.00     0.118 C 
ENDROOT
BRANCH  11  19
HETATM   19  C8  UNL     1      21.062   1.018  50.475  1.00  0.00     0.184 C 
BRANCH  19  20
HETATM   20  N5  UNL     1      19.850   0.502  51.019  1.00  0.00    -0.364 N 
HETATM   21  C9  UNL     1      19.335  -0.251  52.132  1.00  0.00     0.122 A 
HETATM   22  C10 UNL     1      18.678  -0.891  53.087  1.00  0.00     0.030 C 
HETATM   23  C12 UNL     1      18.488   0.329  50.959  1.00  0.00     0.239 A 
HETATM   24  C11 UNL     1      17.329  -0.580  52.695  1.00  0.00     0.111 C 
HETATM   25  N6  UNL     1      17.248   0.088  51.602  1.00  0.00    -0.273 NA
ENDBRANCH  19  20
ENDBRANCH  11  19
BRANCH  15  26
HETATM   26  N9  UNL     1      27.932   2.702  52.238  1.00  0.00    -0.231 NA
HETATM   27  H16 UNL     1      28.053   2.641  53.254  1.00  0.00     0.144 HD
HETATM   28  H17 UNL     1      28.018   3.678  51.910  1.00  0.00     0.144 HD
ENDBRANCH  15  26
TORSDOF 3
ENDMDL
MODEL 7
REMARK VINA RESULT:      -6.9      2.667      4.570
REMARK  3 active torsions:
REMARK  status: ('A' for Active; 'I' for Inactive)
REMARK    1  A    between atoms: C7_11  and  C8_12 
REMARK    2  A    between atoms: C8_12  and  N5_13 
REMARK    3  A    between atoms: N8_22  and  N9_23 
ROOT
HETATM    1  C1  UNL     1      19.231   5.843  49.633  1.00  0.00     0.143 C 
HETATM    2  N1  UNL     1      19.421   4.475  50.096  1.00  0.00    -0.412 N 
HETATM    3  C2  UNL     1      19.808   3.586  49.082  1.00  0.00     0.163 C 
HETATM    4  C3  UNL     1      21.173   3.795  48.514  1.00  0.00     0.111 C 
HETATM    5  N2  UNL     1      22.497   3.840  48.510  1.00  0.00    -0.242 NA
HETATM    6  C4  UNL     1      23.060   3.490  49.771  1.00  0.00     0.175 A 
HETATM    7  N3  UNL     1      22.809   2.164  49.891  1.00  0.00    -0.238 NA
HETATM    8  C5  UNL     1      23.176   1.534  51.021  1.00  0.00     0.146 A 
HETATM    9  C6  UNL     1      23.806   2.186  52.077  1.00  0.00     0.057 A 
HETATM   10  N4  UNL     1      24.040   3.485  51.921  1.00  0.00    -0.250 NA
HETATM   11  C7  UNL     1      23.683   4.121  50.811  1.00  0.00     0.100 A 
HETATM   12  C13 UNL     1      23.912   1.097  53.064  1.00  0.00     0.109 C 
HETATM   13  C14 UNL     1      22.544   0.490  53.368  1.00  0.00     0.119 C 
HETATM   14  N7  UNL     1      21.728   1.175  52.739  1.00  0.00    -0.178 NA
HETATM   15  N8  UNL     1      20.407   1.216  52.544  1.00  0.00    -0.236 N 
HETATM   16  C15 UNL     1      20.084   2.548  52.135  1.00  0.00     0.167 C 
HETATM   17  C16 UNL     1      18.694   2.684  51.545  1.00  0.00     0.042 C 
HETATM   18  C17 UNL     1      18.453   4.084  51.054  1.00  0.00     0.118 C 
ENDROOT
BRANCH  11  19
HETATM   19  C8  UNL     1      24.021   5.574  50.805  1.00  0.00     0.184 C 
BRANCH  19  20
HETATM   20  N5  UNL     1      25.233   5.837  50.101  1.00  0.00    -0.364 N 
HETATM   21  C9  UNL     1      26.329   5.178  49.445  1.00  0.00     0.122 A 
HETATM   22  C10 UNL     1      27.392   4.756  48.776  1.00  0.00     0.030 C 
HETATM   23  C12 UNL     1      26.148   6.720  49.582  1.00  0.00     0.239 A 
HETATM   24  C11 UNL     1      27.857   6.014  48.253  1.00  0.00     0.111 C 
HETATM   25  N6  UNL     1      27.175   7.025  48.654  1.00  0.00    -0.273 NA
ENDBRANCH  19  20
ENDBRANCH  11  19
BRANCH  15  26
HETATM   26  N9  UNL     1      19.396   0.256  52.667  1.00  0.00    -0.231 NA
HETATM   27  H16 UNL     1      19.189   0.159  53.666  1.00  0.00     0.144 HD
HETATM   28  H17 UNL     1      19.644  -0.655  52.248  1.00  0.00     0.144 HD
ENDBRANCH  15  26
TORSDOF 3
ENDMDL
MODEL 8
REMARK VINA RESULT:      -6.7      2.621      7.394
REMARK  3 active torsions:
REMARK  status: ('A' for Active; 'I' for Inactive)
REMARK    1  A    between atoms: C7_11  and  C8_12 
REMARK    2  A    between atoms: C8_12  and  N5_13 
REMARK    3  A    between atoms: N8_22  and  N9_23 
ROOT
HETATM    1  C1  UNL     1      22.054   3.954  48.898  1.00  0.00     0.143 C 
HETATM    2  N1  UNL     1      22.547   3.370  50.139  1.00  0.00    -0.412 N 
HETATM    3  C2  UNL     1      22.183   4.092  51.284  1.00  0.00     0.163 C 
HETATM    4  C3  UNL     1      20.729   4.089  51.626  1.00  0.00     0.111 C 
HETATM    5  N2  UNL     1      19.567   3.573  51.998  1.00  0.00    -0.242 NA
HETATM    6  C4  UNL     1      19.644   2.174  52.250  1.00  0.00     0.175 A 
HETATM    7  N3  UNL     1      20.385   2.080  53.382  1.00  0.00    -0.238 NA
HETATM    8  C5  UNL     1      20.687   0.861  53.860  1.00  0.00     0.146 A 
HETATM    9  C6  UNL     1      20.273  -0.316  53.243  1.00  0.00     0.057 A 
HETATM   10  N4  UNL     1      19.545  -0.185  52.139  1.00  0.00    -0.250 NA
HETATM   11  C7  UNL     1      19.238   1.013  51.654  1.00  0.00     0.100 A 
HETATM   12  C13 UNL     1      20.919  -1.330  54.095  1.00  0.00     0.109 C 
HETATM   13  C14 UNL     1      22.427  -1.106  54.174  1.00  0.00     0.119 C 
HETATM   14  N7  UNL     1      22.667  -0.166  53.407  1.00  0.00    -0.178 NA
HETATM   15  N8  UNL     1      23.727   0.536  52.995  1.00  0.00    -0.236 N 
HETATM   16  C15 UNL     1      23.380   1.120  51.737  1.00  0.00     0.167 C 
HETATM   17  C16 UNL     1      24.329   2.217  51.293  1.00  0.00     0.042 C 
HETATM   18  C17 UNL     1      23.859   2.849  50.013  1.00  0.00     0.118 C 
ENDROOT
BRANCH  11  19
HETATM   19  C8  UNL     1      18.417   0.975  50.409  1.00  0.00     0.184 C 
BRANCH  19  20
HETATM   20  N5  UNL     1      17.065   1.358  50.650  1.00  0.00    -0.364 N 
HETATM   21  C9  UNL     1      15.897   0.985  51.402  1.00  0.00     0.122 A 
HETATM   22  C10 UNL     1      14.744   0.819  52.032  1.00  0.00     0.030 C 
HETATM   23  C12 UNL     1      16.000   2.197  50.427  1.00  0.00     0.239 A 
HETATM   24  C11 UNL     1      14.092   2.047  51.660  1.00  0.00     0.111 C 
HETATM   25  N6  UNL     1      14.775   2.771  50.850  1.00  0.00    -0.273 NA
ENDBRANCH  19  20
ENDBRANCH  11  19
BRANCH  15  26
HETATM   26  N9  UNL     1      24.992   0.762  53.550  1.00  0.00    -0.231 NA
HETATM   27  H16 UNL     1      25.342  -0.141  53.884  1.00  0.00     0.144 HD
HETATM   28  H17 UNL     1      24.987   1.464  54.307  1.00  0.00     0.144 HD
ENDBRANCH  15  26
TORSDOF 3
ENDMDL
MODEL 9
REMARK VINA RESULT:      -6.7      2.771      4.966
REMARK  3 active torsions:
REMARK  status: ('A' for Active; 'I' for Inactive)
REMARK    1  A    between atoms: C7_11  and  C8_12 
REMARK    2  A    between atoms: C8_12  and  N5_13 
REMARK    3  A    between atoms: N8_22  and  N9_23 
ROOT
HETATM    1  C1  UNL     1      17.777   2.483  49.153  1.00  0.00     0.143 C 
HETATM    2  N1  UNL     1      18.772   3.548  49.174  1.00  0.00    -0.412 N 
HETATM    3  C2  UNL     1      18.721   4.344  50.327  1.00  0.00     0.163 C 
HETATM    4  C3  UNL     1      19.119   3.675  51.602  1.00  0.00     0.111 C 
HETATM    5  N2  UNL     1      19.931   3.078  52.462  1.00  0.00    -0.242 NA
HETATM    6  C4  UNL     1      21.258   2.947  51.962  1.00  0.00     0.175 A 
HETATM    7  N3  UNL     1      21.732   4.216  51.939  1.00  0.00    -0.238 NA
HETATM    8  C5  UNL     1      22.967   4.439  51.457  1.00  0.00     0.146 A 
HETATM    9  C6  UNL     1      23.784   3.419  50.977  1.00  0.00     0.057 A 
HETATM   10  N4  UNL     1      23.287   2.187  51.019  1.00  0.00    -0.250 NA
HETATM   11  C7  UNL     1      22.069   1.951  51.493  1.00  0.00     0.100 A 
HETATM   12  C13 UNL     1      24.953   4.185  50.508  1.00  0.00     0.109 C 
HETATM   13  C14 UNL     1      24.545   5.253  49.496  1.00  0.00     0.119 C 
HETATM   14  N7  UNL     1      23.333   5.089  49.307  1.00  0.00    -0.178 NA
HETATM   15  N8  UNL     1      22.357   5.640  48.580  1.00  0.00    -0.236 N 
HETATM   16  C15 UNL     1      21.330   4.655  48.440  1.00  0.00     0.167 C 
HETATM   17  C16 UNL     1      20.012   5.216  47.942  1.00  0.00     0.042 C 
HETATM   18  C17 UNL     1      18.954   4.149  47.903  1.00  0.00     0.118 C 
ENDROOT
BRANCH  11  19
HETATM   19  C8  UNL     1      21.671   0.514  51.466  1.00  0.00     0.184 C 
BRANCH  19  20
HETATM   20  N5  UNL     1      22.034  -0.163  52.667  1.00  0.00    -0.364 N 
HETATM   21  C9  UNL     1      23.167  -0.472  53.497  1.00  0.00     0.122 A 
HETATM   22  C10 UNL     1      24.074  -0.826  54.395  1.00  0.00     0.030 C 
HETATM   23  C12 UNL     1      21.695  -0.904  53.773  1.00  0.00     0.239 A 
HETATM   24  C11 UNL     1      23.203  -1.331  55.424  1.00  0.00     0.111 C 
HETATM   25  N6  UNL     1      21.962  -1.332  55.097  1.00  0.00    -0.273 NA
ENDBRANCH  19  20
ENDBRANCH  11  19
BRANCH  15  26
HETATM   26  N9  UNL     1      22.203   6.903  47.995  1.00  0.00    -0.231 NA
HETATM   27  H16 UNL     1      21.579   6.791  47.191  1.00  0.00     0.144 HD
HETATM   28  H17 UNL     1      23.099   7.336  47.716  1.00  0.00     0.144 HD
ENDBRANCH  15  26
TORSDOF 3
ENDMDL
