MODEL 1
REMARK VINA RESULT:      -8.2      0.000      0.000
REMARK  2 active torsions:
REMARK  status: ('A' for Active; 'I' for Inactive)
REMARK    1  A    between atoms: C2_2  and  C4_4 
REMARK    2  A    between atoms: C9_11  and  N3_12 
ROOT
HETATM    1  C4  UNL     1      25.279   0.116  53.722  1.00  0.00    -0.030 A 
HETATM    2  C5  UNL     1      25.280  -0.737  54.831  1.00  0.00     0.014 A 
HETATM    3  C6  UNL     1      24.036  -1.266  55.197  1.00  0.00     0.033 A 
HETATM    4  C7  UNL     1      22.876  -0.976  54.521  1.00  0.00     0.072 A 
HETATM    5  N1  UNL     1      21.685  -1.484  54.852  1.00  0.00    -0.241 NA
HETATM    6  C8  UNL     1      20.590  -1.172  54.146  1.00  0.00     0.236 A 
HETATM    7  N2  UNL     1      20.671  -0.344  53.095  1.00  0.00    -0.224 NA
HETATM    8  C9  UNL     1      21.838   0.226  52.678  1.00  0.00     0.140 A 
HETATM    9  C17 UNL     1      22.919  -0.136  53.442  1.00  0.00     0.039 A 
HETATM   10  C18 UNL     1      24.108   0.389  53.066  1.00  0.00     0.029 A 
ENDROOT
BRANCH   8  11
HETATM   11  N3  UNL     1      21.712   1.131  51.580  1.00  0.00    -0.356 N 
HETATM   12  C10 UNL     1      20.715   2.215  51.757  1.00  0.00     0.153 C 
HETATM   13  C11 UNL     1      21.525   3.372  52.240  1.00  0.00     0.013 C 
HETATM   14  C12 UNL     1      22.453   3.629  51.327  1.00  0.00     0.015 C 
HETATM   15 CL1  UNL     1      23.564   4.961  51.645  1.00  0.00    -0.089 Cl
HETATM   16  C13 UNL     1      22.579   2.846  50.070  1.00  0.00     0.048 C 
HETATM   17  C14 UNL     1      23.888   3.050  49.385  1.00  0.00     0.018 C 
HETATM   18  C15 UNL     1      22.328   1.349  50.288  1.00  0.00     0.091 C 
HETATM   19  C16 UNL     1      21.314   0.970  49.224  1.00  0.00     0.033 C 
ENDBRANCH   8  11
BRANCH   1  20
HETATM   20  C2  UNL     1      26.574   0.683  53.319  1.00  0.00    -0.061 C 
HETATM   21  C1  UNL     1      27.567   0.607  54.191  1.00  0.00     0.019 C 
HETATM   22  C3  UNL     1      26.743   1.302  52.007  1.00  0.00     0.048 C 
ENDBRANCH   1  20
TORSDOF 2
ENDMDL
MODEL 2
REMARK VINA RESULT:      -7.9      2.381      4.309
REMARK  2 active torsions:
REMARK  status: ('A' for Active; 'I' for Inactive)
REMARK    1  A    between atoms: C2_2  and  C4_4 
REMARK    2  A    between atoms: C9_11  and  N3_12 
ROOT
HETATM    1  C4  UNL     1      23.695  -0.106  53.639  1.00  0.00    -0.030 A 
HETATM    2  C5  UNL     1      24.998  -0.493  53.972  1.00  0.00     0.014 A 
HETATM    3  C6  UNL     1      26.025   0.131  53.253  1.00  0.00     0.033 A 
HETATM    4  C7  UNL     1      25.787   1.070  52.278  1.00  0.00     0.072 A 
HETATM    5  N1  UNL     1      26.758   1.682  51.594  1.00  0.00    -0.241 NA
HETATM    6  C8  UNL     1      26.462   2.598  50.662  1.00  0.00     0.236 A 
HETATM    7  N2  UNL     1      25.186   2.915  50.400  1.00  0.00    -0.224 NA
HETATM    8  C9  UNL     1      24.126   2.346  51.041  1.00  0.00     0.140 A 
HETATM    9  C17 UNL     1      24.497   1.420  51.983  1.00  0.00     0.039 A 
HETATM   10  C18 UNL     1      23.486   0.832  52.662  1.00  0.00     0.029 A 
ENDROOT
BRANCH   8  11
HETATM   11  N3  UNL     1      22.842   2.765  50.577  1.00  0.00    -0.356 N 
HETATM   12  C10 UNL     1      22.411   2.189  49.280  1.00  0.00     0.153 C 
HETATM   13  C11 UNL     1      21.567   1.021  49.670  1.00  0.00     0.013 C 
HETATM   14  C12 UNL     1      20.571   1.471  50.423  1.00  0.00     0.015 C 
HETATM   15 CL1  UNL     1      19.408   0.292  51.030  1.00  0.00    -0.089 Cl
HETATM   16  C13 UNL     1      20.408   2.909  50.760  1.00  0.00     0.048 C 
HETATM   17  C14 UNL     1      19.472   3.139  51.898  1.00  0.00     0.018 C 
HETATM   18  C15 UNL     1      21.750   3.598  51.037  1.00  0.00     0.091 C 
HETATM   19  C16 UNL     1      21.727   4.847  50.173  1.00  0.00     0.033 C 
ENDBRANCH   8  11
BRANCH   1  20
HETATM   20  C2  UNL     1      22.601  -0.748  54.381  1.00  0.00    -0.061 C 
HETATM   21  C1  UNL     1      22.934  -1.528  55.397  1.00  0.00     0.019 C 
HETATM   22  C3  UNL     1      21.208  -0.526  54.000  1.00  0.00     0.048 C 
ENDBRANCH   1  20
TORSDOF 2
ENDMDL
MODEL 3
REMARK VINA RESULT:      -7.7      2.550      4.455
REMARK  2 active torsions:
REMARK  status: ('A' for Active; 'I' for Inactive)
REMARK    1  A    between atoms: C2_2  and  C4_4 
REMARK    2  A    between atoms: C9_11  and  N3_12 
ROOT
HETATM    1  C4  UNL     1      22.920   0.081  53.425  1.00  0.00    -0.030 A 
HETATM    2  C5  UNL     1      24.082  -0.543  53.894  1.00  0.00     0.014 A 
HETATM    3  C6  UNL     1      25.286  -0.081  53.351  1.00  0.00     0.033 A 
HETATM    4  C7  UNL     1      25.345   0.924  52.415  1.00  0.00     0.072 A 
HETATM    5  N1  UNL     1      26.488   1.382  51.898  1.00  0.00    -0.241 NA
HETATM    6  C8  UNL     1      26.481   2.373  50.996  1.00  0.00     0.236 A 
HETATM    7  N2  UNL     1      25.324   2.920  50.596  1.00  0.00    -0.224 NA
HETATM    8  C9  UNL     1      24.106   2.522  51.063  1.00  0.00     0.140 A 
HETATM    9  C17 UNL     1      24.184   1.507  51.983  1.00  0.00     0.039 A 
HETATM   10  C18 UNL     1      23.006   1.080  52.492  1.00  0.00     0.029 A 
ENDROOT
BRANCH   8  11
HETATM   11  N3  UNL     1      22.985   3.179  50.469  1.00  0.00    -0.356 N 
HETATM   12  C10 UNL     1      22.756   2.881  49.034  1.00  0.00     0.153 C 
HETATM   13  C11 UNL     1      21.736   1.791  49.054  1.00  0.00     0.013 C 
HETATM   14  C12 UNL     1      20.666   2.246  49.693  1.00  0.00     0.015 C 
HETATM   15 CL1  UNL     1      19.292   1.153  49.866  1.00  0.00    -0.089 Cl
HETATM   16  C13 UNL     1      20.591   3.620  50.253  1.00  0.00     0.048 C 
HETATM   17  C14 UNL     1      19.481   3.790  51.235  1.00  0.00     0.018 C 
HETATM   18  C15 UNL     1      21.918   4.068  50.878  1.00  0.00     0.091 C 
HETATM   19  C16 UNL     1      22.191   5.430  50.264  1.00  0.00     0.033 C 
ENDBRANCH   8  11
BRANCH   1  20
HETATM   20  C2  UNL     1      21.643  -0.388  53.982  1.00  0.00    -0.061 C 
HETATM   21  C1  UNL     1      20.583   0.384  53.801  1.00  0.00     0.019 C 
HETATM   22  C3  UNL     1      21.563  -1.656  54.702  1.00  0.00     0.048 C 
ENDBRANCH   1  20
TORSDOF 2
ENDMDL
MODEL 4
REMARK VINA RESULT:      -7.5      2.249      3.981
REMARK  2 active torsions:
REMARK  status: ('A' for Active; 'I' for Inactive)
REMARK    1  A    between atoms: C2_2  and  C4_4 
REMARK    2  A    between atoms: C9_11  and  N3_12 
ROOT
HETATM    1  C4  UNL     1      23.105  -0.162  53.774  1.00  0.00    -0.030 A 
HETATM    2  C5  UNL     1      24.089  -0.903  54.437  1.00  0.00     0.014 A 
HETATM    3  C6  UNL     1      25.413  -0.524  54.185  1.00  0.00     0.033 A 
HETATM    4  C7  UNL     1      25.745   0.511  53.344  1.00  0.00     0.072 A 
HETATM    5  N1  UNL     1      27.003   0.890  53.105  1.00  0.00    -0.241 NA
HETATM    6  C8  UNL     1      27.262   1.916  52.282  1.00  0.00     0.236 A 
HETATM    7  N2  UNL     1      26.261   2.577  51.683  1.00  0.00    -0.224 NA
HETATM    8  C9  UNL     1      24.946   2.265  51.861  1.00  0.00     0.140 A 
HETATM    9  C17 UNL     1      24.750   1.210  52.715  1.00  0.00     0.039 A 
HETATM   10  C18 UNL     1      23.462   0.864  52.940  1.00  0.00     0.029 A 
ENDROOT
BRANCH   8  11
HETATM   11  N3  UNL     1      24.030   3.041  51.086  1.00  0.00    -0.356 N 
HETATM   12  C10 UNL     1      22.905   3.645  51.842  1.00  0.00     0.153 C 
HETATM   13  C11 UNL     1      23.375   5.030  52.139  1.00  0.00     0.013 C 
HETATM   14  C12 UNL     1      23.638   5.628  50.984  1.00  0.00     0.015 C 
HETATM   15 CL1  UNL     1      24.218   7.292  51.039  1.00  0.00    -0.089 Cl
HETATM   16  C13 UNL     1      23.458   4.952  49.673  1.00  0.00     0.048 C 
HETATM   17  C14 UNL     1      24.154   5.652  48.555  1.00  0.00     0.018 C 
HETATM   18  C15 UNL     1      23.882   3.478  49.714  1.00  0.00     0.091 C 
HETATM   19  C16 UNL     1      22.708   2.724  49.114  1.00  0.00     0.033 C 
ENDBRANCH   8  11
BRANCH   1  20
HETATM   20  C2  UNL     1      21.707  -0.542  54.023  1.00  0.00    -0.061 C 
HETATM   21  C1  UNL     1      21.467  -1.810  54.320  1.00  0.00     0.019 C 
HETATM   22  C3  UNL     1      20.637   0.449  53.943  1.00  0.00     0.048 C 
ENDBRANCH   1  20
TORSDOF 2
ENDMDL
MODEL 5
REMARK VINA RESULT:      -7.5      1.812      3.237
REMARK  2 active torsions:
REMARK  status: ('A' for Active; 'I' for Inactive)
REMARK    1  A    between atoms: C2_2  and  C4_4 
REMARK    2  A    between atoms: C9_11  and  N3_12 
ROOT
HETATM    1  C4  UNL     1      25.203   2.614  50.747  1.00  0.00    -0.030 A 
HETATM    2  C5  UNL     1      26.331   2.043  51.346  1.00  0.00     0.014 A 
HETATM    3  C6  UNL     1      26.081   1.039  52.290  1.00  0.00     0.033 A 
HETATM    4  C7  UNL     1      24.812   0.627  52.619  1.00  0.00     0.072 A 
HETATM    5  N1  UNL     1      24.560  -0.338  53.509  1.00  0.00    -0.241 NA
HETATM    6  C8  UNL     1      23.300  -0.705  53.779  1.00  0.00     0.236 A 
HETATM    7  N2  UNL     1      22.270  -0.108  53.161  1.00  0.00    -0.224 NA
HETATM    8  C9  UNL     1      22.423   0.887  52.241  1.00  0.00     0.140 A 
HETATM    9  C17 UNL     1      23.736   1.212  52.009  1.00  0.00     0.039 A 
HETATM   10  C18 UNL     1      23.949   2.184  51.093  1.00  0.00     0.029 A 
ENDROOT
BRANCH   8  11
HETATM   11  N3  UNL     1      21.206   1.443  51.742  1.00  0.00    -0.356 N 
HETATM   12  C10 UNL     1      20.479   2.334  52.680  1.00  0.00     0.153 C 
HETATM   13  C11 UNL     1      20.925   3.704  52.289  1.00  0.00     0.013 C 
HETATM   14  C12 UNL     1      20.612   3.886  51.012  1.00  0.00     0.015 C 
HETATM   15 CL1  UNL     1      21.030   5.436  50.281  1.00  0.00    -0.089 Cl
HETATM   16  C13 UNL     1      19.932   2.845  50.198  1.00  0.00     0.048 C 
HETATM   17  C14 UNL     1      20.017   3.104  48.731  1.00  0.00     0.018 C 
HETATM   18  C15 UNL     1      20.442   1.434  50.512  1.00  0.00     0.091 C 
HETATM   19  C16 UNL     1      19.186   0.616  50.755  1.00  0.00     0.033 C 
ENDBRANCH   8  11
BRANCH   1  20
HETATM   20  C2  UNL     1      25.442   3.670  49.752  1.00  0.00    -0.061 C 
HETATM   21  C1  UNL     1      24.384   4.306  49.277  1.00  0.00     0.019 C 
HETATM   22  C3  UNL     1      26.799   3.992  49.316  1.00  0.00     0.048 C 
ENDBRANCH   1  20
TORSDOF 2
ENDMDL
MODEL 6
REMARK VINA RESULT:      -7.4      1.655      4.030
REMARK  2 active torsions:
REMARK  status: ('A' for Active; 'I' for Inactive)
REMARK    1  A    between atoms: C2_2  and  C4_4 
REMARK    2  A    between atoms: C9_11  and  N3_12 
ROOT
HETATM    1  C4  UNL     1      20.361  -0.709  53.272  1.00  0.00    -0.030 A 
HETATM    2  C5  UNL     1      20.852  -1.622  54.213  1.00  0.00     0.014 A 
HETATM    3  C6  UNL     1      22.216  -1.519  54.510  1.00  0.00     0.033 A 
HETATM    4  C7  UNL     1      23.038  -0.586  53.925  1.00  0.00     0.072 A 
HETATM    5  N1  UNL     1      24.338  -0.469  54.209  1.00  0.00    -0.241 NA
HETATM    6  C8  UNL     1      25.085   0.470  53.614  1.00  0.00     0.236 A 
HETATM    7  N2  UNL     1      24.540   1.308  52.720  1.00  0.00    -0.224 NA
HETATM    8  C9  UNL     1      23.224   1.269  52.362  1.00  0.00     0.140 A 
HETATM    9  C17 UNL     1      22.517   0.287  53.009  1.00  0.00     0.039 A 
HETATM   10  C18 UNL     1      21.201   0.211  52.703  1.00  0.00     0.029 A 
ENDROOT
BRANCH   8  11
HETATM   11  N3  UNL     1      22.845   2.199  51.346  1.00  0.00    -0.356 N 
HETATM   12  C10 UNL     1      21.722   3.103  51.694  1.00  0.00     0.153 C 
HETATM   13  C11 UNL     1      22.397   4.345  52.173  1.00  0.00     0.013 C 
HETATM   14  C12 UNL     1      23.171   4.792  51.192  1.00  0.00     0.015 C 
HETATM   15 CL1  UNL     1      24.097   6.264  51.488  1.00  0.00    -0.089 Cl
HETATM   16  C13 UNL     1      23.277   4.105  49.878  1.00  0.00     0.048 C 
HETATM   17  C14 UNL     1      24.458   4.547  49.082  1.00  0.00     0.018 C 
HETATM   18  C15 UNL     1      23.279   2.578  50.018  1.00  0.00     0.091 C 
HETATM   19  C16 UNL     1      22.224   2.100  49.035  1.00  0.00     0.033 C 
ENDBRANCH   8  11
BRANCH   1  20
HETATM   20  C2  UNL     1      18.930  -0.799  52.944  1.00  0.00    -0.061 C 
HETATM   21  C1  UNL     1      18.216  -1.707  53.590  1.00  0.00     0.019 C 
HETATM   22  C3  UNL     1      18.336   0.086  51.944  1.00  0.00     0.048 C 
ENDBRANCH   1  20
TORSDOF 2
ENDMDL
MODEL 7
REMARK VINA RESULT:      -7.3      2.492      4.205
REMARK  2 active torsions:
REMARK  status: ('A' for Active; 'I' for Inactive)
REMARK    1  A    between atoms: C2_2  and  C4_4 
REMARK    2  A    between atoms: C9_11  and  N3_12 
ROOT
HETATM    1  C4  UNL     1      23.083   0.035  53.182  1.00  0.00    -0.030 A 
HETATM    2  C5  UNL     1      24.286  -0.344  53.788  1.00  0.00     0.014 A 
HETATM    3  C6  UNL     1      25.442   0.269  53.288  1.00  0.00     0.033 A 
HETATM    4  C7  UNL     1      25.415   1.188  52.267  1.00  0.00     0.072 A 
HETATM    5  N1  UNL     1      26.509   1.789  51.789  1.00  0.00    -0.241 NA
HETATM    6  C8  UNL     1      26.417   2.687  50.799  1.00  0.00     0.236 A 
HETATM    7  N2  UNL     1      25.224   2.996  50.269  1.00  0.00    -0.224 NA
HETATM    8  C9  UNL     1      24.052   2.437  50.686  1.00  0.00     0.140 A 
HETATM    9  C17 UNL     1      24.216   1.530  51.702  1.00  0.00     0.039 A 
HETATM   10  C18 UNL     1      23.084   0.953  52.166  1.00  0.00     0.029 A 
ENDROOT
BRANCH   8  11
HETATM   11  N3  UNL     1      22.894   2.844  49.956  1.00  0.00    -0.356 N 
HETATM   12  C10 UNL     1      22.181   4.028  50.495  1.00  0.00     0.153 C 
HETATM   13  C11 UNL     1      22.726   5.168  49.700  1.00  0.00     0.013 C 
HETATM   14  C12 UNL     1      22.483   4.923  48.418  1.00  0.00     0.015 C 
HETATM   15 CL1  UNL     1      23.026   6.119  47.241  1.00  0.00    -0.089 Cl
HETATM   16  C13 UNL     1      21.778   3.699  47.956  1.00  0.00     0.048 C 
HETATM   17  C14 UNL     1      21.944   3.447  46.495  1.00  0.00     0.018 C 
HETATM   18  C15 UNL     1      22.188   2.455  48.753  1.00  0.00     0.091 C 
HETATM   19  C16 UNL     1      20.874   1.820  49.176  1.00  0.00     0.033 C 
ENDBRANCH   8  11
BRANCH   1  20
HETATM   20  C2  UNL     1      21.856  -0.596  53.691  1.00  0.00    -0.061 C 
HETATM   21  C1  UNL     1      20.704  -0.159  53.208  1.00  0.00     0.019 C 
HETATM   22  C3  UNL     1      21.922  -1.661  54.689  1.00  0.00     0.048 C 
ENDBRANCH   1  20
TORSDOF 2
ENDMDL
MODEL 8
REMARK VINA RESULT:      -7.2      2.380      4.742
REMARK  2 active torsions:
REMARK  status: ('A' for Active; 'I' for Inactive)
REMARK    1  A    between atoms: C2_2  and  C4_4 
REMARK    2  A    between atoms: C9_11  and  N3_12 
ROOT
HETATM    1  C4  UNL     1      25.727   1.309  51.941  1.00  0.00    -0.030 A 
HETATM    2  C5  UNL     1      26.796   1.945  51.300  1.00  0.00     0.014 A 
HETATM    3  C6  UNL     1      26.453   2.977  50.417  1.00  0.00     0.033 A 
HETATM    4  C7  UNL     1      25.153   3.355  50.182  1.00  0.00     0.072 A 
HETATM    5  N1  UNL     1      24.814   4.345  49.352  1.00  0.00    -0.241 NA
HETATM    6  C8  UNL     1      23.528   4.676  49.173  1.00  0.00     0.236 A 
HETATM    7  N2  UNL     1      22.559   4.016  49.825  1.00  0.00    -0.224 NA
HETATM    8  C9  UNL     1      22.803   2.991  50.691  1.00  0.00     0.140 A 
HETATM    9  C17 UNL     1      24.137   2.706  50.829  1.00  0.00     0.039 A 
HETATM   10  C18 UNL     1      24.440   1.705  51.689  1.00  0.00     0.029 A 
ENDROOT
BRANCH   8  11
HETATM   11  N3  UNL     1      21.638   2.370  51.237  1.00  0.00    -0.356 N 
HETATM   12  C10 UNL     1      21.016   1.322  50.390  1.00  0.00     0.153 C 
HETATM   13  C11 UNL     1      21.587   0.049  50.920  1.00  0.00     0.013 C 
HETATM   14  C12 UNL     1      21.274  -0.034  52.207  1.00  0.00     0.015 C 
HETATM   15 CL1  UNL     1      21.831  -1.454  53.092  1.00  0.00    -0.089 Cl
HETATM   16  C13 UNL     1      20.484   1.011  52.908  1.00  0.00     0.048 C 
HETATM   17  C14 UNL     1      20.571   0.909  54.394  1.00  0.00     0.018 C 
HETATM   18  C15 UNL     1      20.859   2.427  52.456  1.00  0.00     0.091 C 
HETATM   19  C16 UNL     1      19.532   3.089  52.125  1.00  0.00     0.033 C 
ENDBRANCH   8  11
BRANCH   1  20
HETATM   20  C2  UNL     1      26.063   0.223  52.873  1.00  0.00    -0.061 C 
HETATM   21  C1  UNL     1      25.129  -0.147  53.735  1.00  0.00     0.019 C 
HETATM   22  C3  UNL     1      27.378  -0.413  52.836  1.00  0.00     0.048 C 
ENDBRANCH   1  20
TORSDOF 2
ENDMDL
MODEL 9
REMARK VINA RESULT:      -7.0      2.056      4.486
REMARK  2 active torsions:
REMARK  status: ('A' for Active; 'I' for Inactive)
REMARK    1  A    between atoms: C2_2  and  C4_4 
REMARK    2  A    between atoms: C9_11  and  N3_12 
ROOT
HETATM    1  C4  UNL     1      20.249  -0.741  53.368  1.00  0.00    -0.030 A 
HETATM    2  C5  UNL     1      20.855  -1.702  54.186  1.00  0.00     0.014 A 
HETATM    3  C6  UNL     1      22.225  -1.530  54.419  1.00  0.00     0.033 A 
HETATM    4  C7  UNL     1      22.946  -0.489  53.887  1.00  0.00     0.072 A 
HETATM    5  N1  UNL     1      24.251  -0.308  54.112  1.00  0.00    -0.241 NA
HETATM    6  C8  UNL     1      24.898   0.735  53.573  1.00  0.00     0.236 A 
HETATM    7  N2  UNL     1      24.245   1.613  52.798  1.00  0.00    -0.224 NA
HETATM    8  C9  UNL     1      22.917   1.515  52.508  1.00  0.00     0.140 A 
HETATM    9  C17 UNL     1      22.315   0.428  53.091  1.00  0.00     0.039 A 
HETATM   10  C18 UNL     1      20.991   0.287  52.849  1.00  0.00     0.029 A 
ENDROOT
BRANCH   8  11
HETATM   11  N3  UNL     1      22.417   2.508  51.612  1.00  0.00    -0.356 N 
HETATM   12  C10 UNL     1      23.442   3.383  50.991  1.00  0.00     0.153 C 
HETATM   13  C11 UNL     1      23.708   2.741  49.670  1.00  0.00     0.013 C 
HETATM   14  C12 UNL     1      22.561   2.689  49.004  1.00  0.00     0.015 C 
HETATM   15 CL1  UNL     1      22.583   1.970  47.394  1.00  0.00    -0.089 Cl
HETATM   16  C13 UNL     1      21.286   3.211  49.562  1.00  0.00     0.048 C 
HETATM   17  C14 UNL     1      20.084   2.721  48.827  1.00  0.00     0.018 C 
HETATM   18  C15 UNL     1      21.142   2.917  51.060  1.00  0.00     0.091 C 
HETATM   19  C16 UNL     1      20.779   4.255  51.681  1.00  0.00     0.033 C 
ENDBRANCH   8  11
BRANCH   1  20
HETATM   20  C2  UNL     1      18.811  -0.901  53.109  1.00  0.00    -0.061 C 
HETATM   21  C1  UNL     1      18.195  -1.907  53.708  1.00  0.00     0.019 C 
HETATM   22  C3  UNL     1      18.104   0.022  52.223  1.00  0.00     0.048 C 
ENDBRANCH   1  20
TORSDOF 2
ENDMDL
