MODEL 1
REMARK VINA RESULT:      -8.3      0.000      0.000
REMARK  4 active torsions:
REMARK  status: ('A' for Active; 'I' for Inactive)
REMARK    1  A    between atoms: C7_7  and  N1_8 
REMARK    2  A    between atoms: N1_8  and  C8_9 
REMARK    3  A    between atoms: C16_21  and  O3_22 
REMARK    4  A    between atoms: O3_22  and  C17_23 
ROOT
HETATM    1  C1  UNL     1      21.252   3.821  44.846  1.00  0.00     0.018 C 
HETATM    2  C2  UNL     1      21.734   4.451  45.762  1.00  0.00    -0.078 C 
HETATM    3  C3  UNL     1      22.300   5.205  46.853  1.00  0.00     0.019 A 
HETATM    4  C4  UNL     1      22.819   6.455  46.626  1.00  0.00     0.021 A 
HETATM    5  C5  UNL     1      23.393   7.299  47.550  1.00  0.00     0.004 A 
HETATM    6  C6  UNL     1      23.434   6.789  48.852  1.00  0.00     0.029 A 
HETATM    7  C7  UNL     1      22.915   5.522  49.106  1.00  0.00     0.035 A 
HETATM    8  C22 UNL     1      22.351   4.727  48.136  1.00  0.00     0.050 A 
ENDROOT
BRANCH   7   9
HETATM    9  N1  UNL     1      23.013   5.007  50.403  1.00  0.00    -0.340 N 
HETATM   10  H5  UNL     1      22.172   5.365  50.883  1.00  0.00     0.167 HD
BRANCH   9  11
HETATM   11  C8  UNL     1      24.213   4.256  50.457  1.00  0.00     0.138 A 
HETATM   12  N2  UNL     1      25.308   4.678  49.751  1.00  0.00    -0.224 NA
HETATM   13  C9  UNL     1      26.428   3.936  49.805  1.00  0.00     0.235 A 
HETATM   14  N3  UNL     1      26.354   2.851  50.552  1.00  0.00    -0.245 NA
HETATM   15  C10 UNL     1      25.317   2.414  51.245  1.00  0.00     0.058 A 
HETATM   16  C11 UNL     1      24.073   3.104  51.272  1.00  0.00     0.019 A 
HETATM   17  C21 UNL     1      25.011   1.424  52.027  1.00  0.00     0.113 C 
HETATM   18  C12 UNL     1      22.735   3.309  51.642  1.00  0.00     0.043 C 
HETATM   19  O1  UNL     1      22.649   2.193  52.407  1.00  0.00     0.000 OA
HETATM   20  C13 UNL     1      21.538   1.370  52.719  1.00  0.00     0.029 C 
HETATM   21  C14 UNL     1      22.053  -0.083  52.792  1.00  0.00     0.174 C 
HETATM   22  O2  UNL     1      23.052  -0.032  53.822  1.00  0.00    -0.361 OA
HETATM   23  C15 UNL     1      24.384  -0.313  53.461  1.00  0.00     0.167 C 
HETATM   24  C16 UNL     1      25.374   0.197  52.707  1.00  0.00     0.080 C 
BRANCH  24  25
HETATM   25  O3  UNL     1      26.233  -0.867  53.073  1.00  0.00    -0.345 OA
BRANCH  25  26
HETATM   26  C17 UNL     1      27.619  -0.558  53.068  1.00  0.00     0.154 C 
HETATM   27  C18 UNL     1      28.462  -1.811  53.021  1.00  0.00     0.061 C 
HETATM   28  C19 UNL     1      29.749  -1.320  53.631  1.00  0.00     0.170 C 
HETATM   29  O4  UNL     1      29.459  -0.252  54.437  1.00  0.00    -0.389 OA
HETATM   30  C20 UNL     1      28.101   0.023  54.376  1.00  0.00     0.200 C 
ENDBRANCH  25  26
ENDBRANCH  24  25
ENDBRANCH   9  11
ENDBRANCH   7   9
TORSDOF 4
ENDMDL
MODEL 2
REMARK VINA RESULT:      -8.3      2.404      4.696
REMARK  4 active torsions:
REMARK  status: ('A' for Active; 'I' for Inactive)
REMARK    1  A    between atoms: C7_7  and  N1_8 
REMARK    2  A    between atoms: N1_8  and  C8_9 
REMARK    3  A    between atoms: C16_21  and  O3_22 
REMARK    4  A    between atoms: O3_22  and  C17_23 
ROOT
HETATM    1  C1  UNL     1      25.781   8.513  45.497  1.00  0.00     0.018 C 
HETATM    2  C2  UNL     1      25.674   8.107  46.634  1.00  0.00    -0.078 C 
HETATM    3  C3  UNL     1      25.540   7.622  47.985  1.00  0.00     0.019 A 
HETATM    4  C4  UNL     1      25.046   8.448  48.963  1.00  0.00     0.021 A 
HETATM    5  C5  UNL     1      24.857   8.143  50.293  1.00  0.00     0.004 A 
HETATM    6  C6  UNL     1      25.220   6.839  50.645  1.00  0.00     0.029 A 
HETATM    7  C7  UNL     1      25.725   5.984  49.669  1.00  0.00     0.035 A 
HETATM    8  C22 UNL     1      25.888   6.349  48.353  1.00  0.00     0.050 A 
ENDROOT
BRANCH   7   9
HETATM    9  N1  UNL     1      26.133   4.702  50.051  1.00  0.00    -0.340 N 
HETATM   10  H5  UNL     1      27.155   4.705  49.900  1.00  0.00     0.167 HD
BRANCH   9  11
HETATM   11  C8  UNL     1      24.968   4.001  50.448  1.00  0.00     0.138 A 
HETATM   12  N2  UNL     1      23.739   4.448  50.045  1.00  0.00    -0.224 NA
HETATM   13  C9  UNL     1      22.648   3.775  50.453  1.00  0.00     0.235 A 
HETATM   14  N3  UNL     1      22.883   2.726  51.218  1.00  0.00    -0.245 NA
HETATM   15  C10 UNL     1      24.052   2.266  51.627  1.00  0.00     0.058 A 
HETATM   16  C11 UNL     1      25.282   2.887  51.268  1.00  0.00     0.019 A 
HETATM   17  C21 UNL     1      24.524   1.294  52.346  1.00  0.00     0.113 C 
HETATM   18  C12 UNL     1      26.676   3.048  51.263  1.00  0.00     0.043 C 
HETATM   19  O1  UNL     1      26.925   1.975  52.053  1.00  0.00     0.000 OA
HETATM   20  C13 UNL     1      27.986   1.721  52.958  1.00  0.00     0.029 C 
HETATM   21  C14 UNL     1      27.392   0.938  54.148  1.00  0.00     0.174 C 
HETATM   22  O2  UNL     1      26.850  -0.242  53.536  1.00  0.00    -0.361 OA
HETATM   23  C15 UNL     1      25.457  -0.439  53.609  1.00  0.00     0.167 C 
HETATM   24  C16 UNL     1      24.315   0.117  53.164  1.00  0.00     0.080 C 
BRANCH  24  25
HETATM   25  O3  UNL     1      23.549  -0.874  53.824  1.00  0.00    -0.345 OA
BRANCH  25  26
HETATM   26  C17 UNL     1      22.214  -1.018  53.361  1.00  0.00     0.154 C 
HETATM   27  C18 UNL     1      21.437   0.269  53.513  1.00  0.00     0.061 C 
HETATM   28  C19 UNL     1      20.024  -0.250  53.574  1.00  0.00     0.170 C 
HETATM   29  O4  UNL     1      20.062  -1.541  54.029  1.00  0.00    -0.389 OA
HETATM   30  C20 UNL     1      21.378  -1.925  54.233  1.00  0.00     0.200 C 
ENDBRANCH  25  26
ENDBRANCH  24  25
ENDBRANCH   9  11
ENDBRANCH   7   9
TORSDOF 4
ENDMDL
MODEL 3
REMARK VINA RESULT:      -8.2      4.067      7.212
REMARK  4 active torsions:
REMARK  status: ('A' for Active; 'I' for Inactive)
REMARK    1  A    between atoms: C7_7  and  N1_8 
REMARK    2  A    between atoms: N1_8  and  C8_9 
REMARK    3  A    between atoms: C16_21  and  O3_22 
REMARK    4  A    between atoms: O3_22  and  C17_23 
ROOT
HETATM    1  C1  UNL     1      21.774  -1.260  54.555  1.00  0.00     0.018 C 
HETATM    2  C2  UNL     1      21.870  -0.467  53.644  1.00  0.00    -0.078 C 
HETATM    3  C3  UNL     1      21.978   0.480  52.562  1.00  0.00     0.019 A 
HETATM    4  C4  UNL     1      21.453   0.176  51.331  1.00  0.00     0.021 A 
HETATM    5  C5  UNL     1      21.472   0.963  50.201  1.00  0.00     0.004 A 
HETATM    6  C6  UNL     1      22.106   2.199  50.366  1.00  0.00     0.029 A 
HETATM    7  C7  UNL     1      22.648   2.527  51.606  1.00  0.00     0.035 A 
HETATM    8  C22 UNL     1      22.594   1.696  52.701  1.00  0.00     0.050 A 
ENDROOT
BRANCH   7   9
HETATM    9  N1  UNL     1      23.325   3.744  51.738  1.00  0.00    -0.340 N 
HETATM   10  H5  UNL     1      22.658   4.354  52.237  1.00  0.00     0.167 HD
BRANCH   9  11
HETATM   11  C8  UNL     1      24.589   3.580  51.120  1.00  0.00     0.138 A 
HETATM   12  N2  UNL     1      25.286   2.415  51.303  1.00  0.00    -0.224 NA
HETATM   13  C9  UNL     1      26.492   2.293  50.721  1.00  0.00     0.235 A 
HETATM   14  N3  UNL     1      26.888   3.336  50.015  1.00  0.00    -0.245 NA
HETATM   15  C10 UNL     1      26.246   4.473  49.818  1.00  0.00     0.058 A 
HETATM   16  C11 UNL     1      24.962   4.729  50.378  1.00  0.00     0.019 A 
HETATM   17  C21 UNL     1      26.415   5.595  49.188  1.00  0.00     0.113 C 
HETATM   18  C12 UNL     1      23.815   5.492  50.642  1.00  0.00     0.043 C 
HETATM   19  O1  UNL     1      24.218   6.569  49.923  1.00  0.00     0.000 OA
HETATM   20  C13 UNL     1      23.920   7.946  50.077  1.00  0.00     0.029 C 
HETATM   21  C14 UNL     1      25.192   8.733  49.697  1.00  0.00     0.174 C 
HETATM   22  O2  UNL     1      25.438   8.335  48.339  1.00  0.00    -0.361 OA
HETATM   23  C15 UNL     1      26.630   7.635  48.066  1.00  0.00     0.167 C 
HETATM   24  C16 UNL     1      27.217   6.457  48.344  1.00  0.00     0.080 C 
BRANCH  24  25
HETATM   25  O3  UNL     1      28.351   6.814  47.575  1.00  0.00    -0.345 OA
BRANCH  25  26
HETATM   26  C17 UNL     1      29.600   6.667  48.232  1.00  0.00     0.154 C 
HETATM   27  C18 UNL     1      30.619   7.650  47.703  1.00  0.00     0.061 C 
HETATM   28  C19 UNL     1      31.907   6.942  48.036  1.00  0.00     0.170 C 
HETATM   29  O4  UNL     1      31.649   5.599  48.111  1.00  0.00    -0.389 OA
HETATM   30  C20 UNL     1      30.299   5.371  47.897  1.00  0.00     0.200 C 
ENDBRANCH  25  26
ENDBRANCH  24  25
ENDBRANCH   9  11
ENDBRANCH   7   9
TORSDOF 4
ENDMDL
MODEL 4
REMARK VINA RESULT:      -8.0      7.622     10.938
REMARK  4 active torsions:
REMARK  status: ('A' for Active; 'I' for Inactive)
REMARK    1  A    between atoms: C7_7  and  N1_8 
REMARK    2  A    between atoms: N1_8  and  C8_9 
REMARK    3  A    between atoms: C16_21  and  O3_22 
REMARK    4  A    between atoms: O3_22  and  C17_23 
ROOT
HETATM    1  C1  UNL     1      33.750   5.002  42.501  1.00  0.00     0.018 C 
HETATM    2  C2  UNL     1      33.709   4.741  43.684  1.00  0.00    -0.078 C 
HETATM    3  C3  UNL     1      33.664   4.437  45.093  1.00  0.00     0.019 A 
HETATM    4  C4  UNL     1      34.706   3.766  45.682  1.00  0.00     0.021 A 
HETATM    5  C5  UNL     1      34.818   3.400  47.006  1.00  0.00     0.004 A 
HETATM    6  C6  UNL     1      33.729   3.770  47.802  1.00  0.00     0.029 A 
HETATM    7  C7  UNL     1      32.660   4.450  47.225  1.00  0.00     0.035 A 
HETATM    8  C22 UNL     1      32.609   4.790  45.893  1.00  0.00     0.050 A 
ENDROOT
BRANCH   7   9
HETATM    9  N1  UNL     1      31.558   4.764  48.026  1.00  0.00    -0.340 N 
HETATM   10  H5  UNL     1      31.052   3.869  48.125  1.00  0.00     0.167 HD
BRANCH   9  11
HETATM   11  C8  UNL     1      31.640   6.149  48.314  1.00  0.00     0.138 A 
HETATM   12  N2  UNL     1      32.866   6.732  48.490  1.00  0.00    -0.224 NA
HETATM   13  C9  UNL     1      32.914   8.044  48.781  1.00  0.00     0.235 A 
HETATM   14  N3  UNL     1      31.744   8.648  48.869  1.00  0.00    -0.245 NA
HETATM   15  C10 UNL     1      30.545   8.119  48.706  1.00  0.00     0.058 A 
HETATM   16  C11 UNL     1      30.355   6.743  48.397  1.00  0.00     0.019 A 
HETATM   17  C21 UNL     1      29.301   8.489  48.734  1.00  0.00     0.113 C 
HETATM   18  C12 UNL     1      29.606   5.588  48.127  1.00  0.00     0.043 C 
HETATM   19  O1  UNL     1      28.400   6.200  48.220  1.00  0.00     0.000 OA
HETATM   20  C13 UNL     1      27.133   5.692  48.601  1.00  0.00     0.029 C 
HETATM   21  C14 UNL     1      26.408   6.811  49.377  1.00  0.00     0.174 C 
HETATM   22  O2  UNL     1      26.346   7.890  48.432  1.00  0.00    -0.361 OA
HETATM   23  C15 UNL     1      27.038   9.077  48.742  1.00  0.00     0.167 C 
HETATM   24  C16 UNL     1      28.297   9.519  48.914  1.00  0.00     0.080 C 
BRANCH  24  25
HETATM   25  O3  UNL     1      27.827  10.825  49.186  1.00  0.00    -0.345 OA
BRANCH  25  26
HETATM   26  C17 UNL     1      28.697  11.877  48.798  1.00  0.00     0.154 C 
HETATM   27  C18 UNL     1      27.961  13.193  48.698  1.00  0.00     0.061 C 
HETATM   28  C19 UNL     1      28.841  13.947  47.735  1.00  0.00     0.170 C 
HETATM   29  O4  UNL     1      29.516  13.034  46.969  1.00  0.00    -0.389 OA
HETATM   30  C20 UNL     1      29.185  11.750  47.375  1.00  0.00     0.200 C 
ENDBRANCH  25  26
ENDBRANCH  24  25
ENDBRANCH   9  11
ENDBRANCH   7   9
TORSDOF 4
ENDMDL
MODEL 5
REMARK VINA RESULT:      -7.9      1.610      1.835
REMARK  4 active torsions:
REMARK  status: ('A' for Active; 'I' for Inactive)
REMARK    1  A    between atoms: C7_7  and  N1_8 
REMARK    2  A    between atoms: N1_8  and  C8_9 
REMARK    3  A    between atoms: C16_21  and  O3_22 
REMARK    4  A    between atoms: O3_22  and  C17_23 
ROOT
HETATM    1  C1  UNL     1      20.076   6.958  46.261  1.00  0.00     0.018 C 
HETATM    2  C2  UNL     1      20.530   6.727  47.361  1.00  0.00    -0.078 C 
HETATM    3  C3  UNL     1      21.063   6.453  48.673  1.00  0.00     0.019 A 
HETATM    4  C4  UNL     1      21.609   7.469  49.416  1.00  0.00     0.021 A 
HETATM    5  C5  UNL     1      22.157   7.377  50.676  1.00  0.00     0.004 A 
HETATM    6  C6  UNL     1      22.137   6.090  51.223  1.00  0.00     0.029 A 
HETATM    7  C7  UNL     1      21.589   5.043  50.486  1.00  0.00     0.035 A 
HETATM    8  C22 UNL     1      21.053   5.201  49.230  1.00  0.00     0.050 A 
ENDROOT
BRANCH   7   9
HETATM    9  N1  UNL     1      21.627   3.754  51.028  1.00  0.00    -0.340 N 
HETATM   10  H5  UNL     1      20.648   3.562  51.297  1.00  0.00     0.167 HD
BRANCH   9  11
HETATM   11  C8  UNL     1      22.975   3.323  50.969  1.00  0.00     0.138 A 
HETATM   12  N2  UNL     1      23.846   3.939  50.112  1.00  0.00    -0.224 NA
HETATM   13  C9  UNL     1      25.115   3.497  50.062  1.00  0.00     0.235 A 
HETATM   14  N3  UNL     1      25.396   2.489  50.866  1.00  0.00    -0.245 NA
HETATM   15  C10 UNL     1      24.583   1.870  51.704  1.00  0.00     0.058 A 
HETATM   16  C11 UNL     1      23.216   2.239  51.852  1.00  0.00     0.019 A 
HETATM   17  C21 UNL     1      24.621   0.902  52.566  1.00  0.00     0.113 C 
HETATM   18  C12 UNL     1      21.919   2.143  52.375  1.00  0.00     0.043 C 
HETATM   19  O1  UNL     1      22.198   1.103  53.200  1.00  0.00     0.000 OA
HETATM   20  C13 UNL     1      21.368   0.063  53.689  1.00  0.00     0.029 C 
HETATM   21  C14 UNL     1      22.235  -1.211  53.770  1.00  0.00     0.174 C 
HETATM   22  O2  UNL     1      23.295  -0.839  54.663  1.00  0.00    -0.361 OA
HETATM   23  C15 UNL     1      24.608  -0.816  54.153  1.00  0.00     0.167 C 
HETATM   24  C16 UNL     1      25.351  -0.143  53.256  1.00  0.00     0.080 C 
BRANCH  24  25
HETATM   25  O3  UNL     1      26.483  -0.935  53.564  1.00  0.00    -0.345 OA
BRANCH  25  26
HETATM   26  C17 UNL     1      27.732  -0.390  53.166  1.00  0.00     0.154 C 
HETATM   27  C18 UNL     1      28.871  -1.328  53.493  1.00  0.00     0.061 C 
HETATM   28  C19 UNL     1      30.026  -0.365  53.581  1.00  0.00     0.170 C 
HETATM   29  O4  UNL     1      29.528   0.871  53.899  1.00  0.00    -0.389 OA
HETATM   30  C20 UNL     1      28.146   0.808  53.987  1.00  0.00     0.200 C 
ENDBRANCH  25  26
ENDBRANCH  24  25
ENDBRANCH   9  11
ENDBRANCH   7   9
TORSDOF 4
ENDMDL
MODEL 6
REMARK VINA RESULT:      -7.6      3.478      5.680
REMARK  4 active torsions:
REMARK  status: ('A' for Active; 'I' for Inactive)
REMARK    1  A    between atoms: C7_7  and  N1_8 
REMARK    2  A    between atoms: N1_8  and  C8_9 
REMARK    3  A    between atoms: C16_21  and  O3_22 
REMARK    4  A    between atoms: O3_22  and  C17_23 
ROOT
HETATM    1  C1  UNL     1      13.941   1.997  52.548  1.00  0.00     0.018 C 
HETATM    2  C2  UNL     1      15.048   1.784  52.104  1.00  0.00    -0.078 C 
HETATM    3  C3  UNL     1      16.364   1.536  51.569  1.00  0.00     0.019 A 
HETATM    4  C4  UNL     1      16.582   0.446  50.765  1.00  0.00     0.021 A 
HETATM    5  C5  UNL     1      17.770   0.067  50.179  1.00  0.00     0.004 A 
HETATM    6  C6  UNL     1      18.848   0.914  50.458  1.00  0.00     0.029 A 
HETATM    7  C7  UNL     1      18.650   2.025  51.273  1.00  0.00     0.035 A 
HETATM    8  C22 UNL     1      17.435   2.351  51.828  1.00  0.00     0.050 A 
ENDROOT
BRANCH   7   9
HETATM    9  N1  UNL     1      19.752   2.829  51.584  1.00  0.00    -0.340 N 
HETATM   10  H5  UNL     1      19.472   3.774  51.276  1.00  0.00     0.167 HD
BRANCH   9  11
HETATM   11  C8  UNL     1      20.731   1.980  52.157  1.00  0.00     0.138 A 
HETATM   12  N2  UNL     1      20.353   1.021  53.057  1.00  0.00    -0.224 NA
HETATM   13  C9  UNL     1      21.305   0.242  53.599  1.00  0.00     0.235 A 
HETATM   14  N3  UNL     1      22.537   0.489  53.196  1.00  0.00    -0.245 NA
HETATM   15  C10 UNL     1      22.939   1.404  52.332  1.00  0.00     0.058 A 
HETATM   16  C11 UNL     1      22.032   2.293  51.688  1.00  0.00     0.019 A 
HETATM   17  C21 UNL     1      24.042   1.821  51.792  1.00  0.00     0.113 C 
HETATM   18  C12 UNL     1      21.667   3.345  50.835  1.00  0.00     0.043 C 
HETATM   19  O1  UNL     1      22.931   3.609  50.420  1.00  0.00     0.000 OA
HETATM   20  C13 UNL     1      23.524   4.817  49.976  1.00  0.00     0.029 C 
HETATM   21  C14 UNL     1      24.982   4.822  50.483  1.00  0.00     0.174 C 
HETATM   22  O2  UNL     1      25.546   3.641  49.892  1.00  0.00    -0.361 OA
HETATM   23  C15 UNL     1      25.982   2.618  50.756  1.00  0.00     0.167 C 
HETATM   24  C16 UNL     1      25.481   1.735  51.640  1.00  0.00     0.080 C 
BRANCH  24  25
HETATM   25  O3  UNL     1      26.775   1.224  51.898  1.00  0.00    -0.345 OA
BRANCH  25  26
HETATM   26  C17 UNL     1      27.169   1.227  53.262  1.00  0.00     0.154 C 
HETATM   27  C18 UNL     1      28.639   0.910  53.412  1.00  0.00     0.061 C 
HETATM   28  C19 UNL     1      28.678   0.371  54.818  1.00  0.00     0.170 C 
HETATM   29  O4  UNL     1      27.438  -0.123  55.122  1.00  0.00    -0.389 OA
HETATM   30  C20 UNL     1      26.580   0.083  54.052  1.00  0.00     0.200 C 
ENDBRANCH  25  26
ENDBRANCH  24  25
ENDBRANCH   9  11
ENDBRANCH   7   9
TORSDOF 4
ENDMDL
MODEL 7
REMARK VINA RESULT:      -7.6      4.605      7.318
REMARK  4 active torsions:
REMARK  status: ('A' for Active; 'I' for Inactive)
REMARK    1  A    between atoms: C7_7  and  N1_8 
REMARK    2  A    between atoms: N1_8  and  C8_9 
REMARK    3  A    between atoms: C16_21  and  O3_22 
REMARK    4  A    between atoms: O3_22  and  C17_23 
ROOT
HETATM    1  C1  UNL     1      20.710   0.462  52.487  1.00  0.00     0.018 C 
HETATM    2  C2  UNL     1      21.161   1.051  51.529  1.00  0.00    -0.078 C 
HETATM    3  C3  UNL     1      21.691   1.754  50.387  1.00  0.00     0.019 A 
HETATM    4  C4  UNL     1      21.634   1.180  49.142  1.00  0.00     0.021 A 
HETATM    5  C5  UNL     1      22.092   1.714  47.958  1.00  0.00     0.004 A 
HETATM    6  C6  UNL     1      22.672   2.981  48.080  1.00  0.00     0.029 A 
HETATM    7  C7  UNL     1      22.742   3.582  49.334  1.00  0.00     0.035 A 
HETATM    8  C22 UNL     1      22.263   2.996  50.482  1.00  0.00     0.050 A 
ENDROOT
BRANCH   7   9
HETATM    9  N1  UNL     1      23.373   4.825  49.444  1.00  0.00    -0.340 N 
HETATM   10  H5  UNL     1      22.596   5.497  49.548  1.00  0.00     0.167 HD
BRANCH   9  11
HETATM   11  C8  UNL     1      24.767   4.587  49.350  1.00  0.00     0.138 A 
HETATM   12  N2  UNL     1      25.280   3.391  49.774  1.00  0.00    -0.224 NA
HETATM   13  C9  UNL     1      26.608   3.199  49.690  1.00  0.00     0.235 A 
HETATM   14  N3  UNL     1      27.297   4.210  49.195  1.00  0.00    -0.245 NA
HETATM   15  C10 UNL     1      26.837   5.377  48.778  1.00  0.00     0.058 A 
HETATM   16  C11 UNL     1      25.453   5.706  48.813  1.00  0.00     0.019 A 
HETATM   17  C21 UNL     1      27.291   6.480  48.268  1.00  0.00     0.113 C 
HETATM   18  C12 UNL     1      24.333   6.531  48.629  1.00  0.00     0.043 C 
HETATM   19  O1  UNL     1      25.034   7.576  48.124  1.00  0.00     0.000 OA
HETATM   20  C13 UNL     1      24.773   8.969  48.164  1.00  0.00     0.029 C 
HETATM   21  C14 UNL     1      26.133   9.684  48.300  1.00  0.00     0.174 C 
HETATM   22  O2  UNL     1      26.854   9.256  47.134  1.00  0.00    -0.361 OA
HETATM   23  C15 UNL     1      28.021   8.492  47.326  1.00  0.00     0.167 C 
HETATM   24  C16 UNL     1      28.397   7.289  47.796  1.00  0.00     0.080 C 
BRANCH  24  25
HETATM   25  O3  UNL     1      29.754   7.577  47.517  1.00  0.00    -0.345 OA
BRANCH  25  26
HETATM   26  C17 UNL     1      30.616   6.450  47.463  1.00  0.00     0.154 C 
HETATM   27  C18 UNL     1      30.977   5.966  48.849  1.00  0.00     0.061 C 
HETATM   28  C19 UNL     1      32.281   5.262  48.581  1.00  0.00     0.170 C 
HETATM   29  O4  UNL     1      32.839   5.809  47.456  1.00  0.00    -0.389 OA
HETATM   30  C20 UNL     1      31.994   6.781  46.942  1.00  0.00     0.200 C 
ENDBRANCH  25  26
ENDBRANCH  24  25
ENDBRANCH   9  11
ENDBRANCH   7   9
TORSDOF 4
ENDMDL
MODEL 8
REMARK VINA RESULT:      -7.6      6.944     10.796
REMARK  4 active torsions:
REMARK  status: ('A' for Active; 'I' for Inactive)
REMARK    1  A    between atoms: C7_7  and  N1_8 
REMARK    2  A    between atoms: N1_8  and  C8_9 
REMARK    3  A    between atoms: C16_21  and  O3_22 
REMARK    4  A    between atoms: O3_22  and  C17_23 
ROOT
HETATM    1  C1  UNL     1      32.043   0.764  46.724  1.00  0.00     0.018 C 
HETATM    2  C2  UNL     1      32.173   1.967  46.659  1.00  0.00    -0.078 C 
HETATM    3  C3  UNL     1      32.320   3.399  46.578  1.00  0.00     0.019 A 
HETATM    4  C4  UNL     1      32.826   3.972  45.438  1.00  0.00     0.021 A 
HETATM    5  C5  UNL     1      33.030   5.313  45.201  1.00  0.00     0.004 A 
HETATM    6  C6  UNL     1      32.671   6.150  46.263  1.00  0.00     0.029 A 
HETATM    7  C7  UNL     1      32.157   5.590  47.429  1.00  0.00     0.035 A 
HETATM    8  C22 UNL     1      31.975   4.239  47.604  1.00  0.00     0.050 A 
ENDROOT
BRANCH   7   9
HETATM    9  N1  UNL     1      31.854   6.438  48.500  1.00  0.00    -0.340 N 
HETATM   10  H5  UNL     1      32.773   6.657  48.919  1.00  0.00     0.167 HD
BRANCH   9  11
HETATM   11  C8  UNL     1      30.446   6.590  48.518  1.00  0.00     0.138 A 
HETATM   12  N2  UNL     1      29.645   5.482  48.434  1.00  0.00    -0.224 NA
HETATM   13  C9  UNL     1      28.312   5.656  48.434  1.00  0.00     0.235 A 
HETATM   14  N3  UNL     1      27.904   6.908  48.519  1.00  0.00    -0.245 NA
HETATM   15  C10 UNL     1      28.645   7.999  48.602  1.00  0.00     0.058 A 
HETATM   16  C11 UNL     1      30.068   7.953  48.609  1.00  0.00     0.019 A 
HETATM   17  C21 UNL     1      28.487   9.283  48.697  1.00  0.00     0.113 C 
HETATM   18  C12 UNL     1      31.361   8.496  48.646  1.00  0.00     0.043 C 
HETATM   19  O1  UNL     1      30.950   9.785  48.728  1.00  0.00     0.000 OA
HETATM   20  C13 UNL     1      31.568  10.982  48.287  1.00  0.00     0.029 C 
HETATM   21  C14 UNL     1      30.446  11.921  47.797  1.00  0.00     0.174 C 
HETATM   22  O2  UNL     1      29.615  12.084  48.957  1.00  0.00    -0.361 OA
HETATM   23  C15 UNL     1      28.292  11.605  48.890  1.00  0.00     0.167 C 
HETATM   24  C16 UNL     1      27.623  10.443  48.778  1.00  0.00     0.080 C 
BRANCH  24  25
HETATM   25  O3  UNL     1      26.384  11.126  48.813  1.00  0.00    -0.345 OA
BRANCH  25  26
HETATM   26  C17 UNL     1      25.296  10.442  48.210  1.00  0.00     0.154 C 
HETATM   27  C18 UNL     1      24.963   9.171  48.957  1.00  0.00     0.061 C 
HETATM   28  C19 UNL     1      24.294   8.364  47.874  1.00  0.00     0.170 C 
HETATM   29  O4  UNL     1      24.756   8.808  46.664  1.00  0.00    -0.389 OA
HETATM   30  C20 UNL     1      25.636   9.861  46.858  1.00  0.00     0.200 C 
ENDBRANCH  25  26
ENDBRANCH  24  25
ENDBRANCH   9  11
ENDBRANCH   7   9
TORSDOF 4
ENDMDL
MODEL 9
REMARK VINA RESULT:      -7.4      8.197     12.029
REMARK  4 active torsions:
REMARK  status: ('A' for Active; 'I' for Inactive)
REMARK    1  A    between atoms: C7_7  and  N1_8 
REMARK    2  A    between atoms: N1_8  and  C8_9 
REMARK    3  A    between atoms: C16_21  and  O3_22 
REMARK    4  A    between atoms: O3_22  and  C17_23 
ROOT
HETATM    1  C1  UNL     1      31.968   0.187  46.739  1.00  0.00     0.018 C 
HETATM    2  C2  UNL     1      32.507   1.268  46.836  1.00  0.00    -0.078 C 
HETATM    3  C3  UNL     1      33.143   2.558  46.947  1.00  0.00     0.019 A 
HETATM    4  C4  UNL     1      34.181   2.883  46.110  1.00  0.00     0.021 A 
HETATM    5  C5  UNL     1      34.892   4.062  46.085  1.00  0.00     0.004 A 
HETATM    6  C6  UNL     1      34.481   5.006  47.033  1.00  0.00     0.029 A 
HETATM    7  C7  UNL     1      33.431   4.697  47.893  1.00  0.00     0.035 A 
HETATM    8  C22 UNL     1      32.758   3.498  47.866  1.00  0.00     0.050 A 
ENDROOT
BRANCH   7   9
HETATM    9  N1  UNL     1      33.070   5.631  48.869  1.00  0.00    -0.340 N 
HETATM   10  H5  UNL     1      33.881   5.658  49.508  1.00  0.00     0.167 HD
BRANCH   9  11
HETATM   11  C8  UNL     1      31.771   6.090  48.538  1.00  0.00     0.138 A 
HETATM   12  N2  UNL     1      30.711   5.226  48.607  1.00  0.00    -0.224 NA
HETATM   13  C9  UNL     1      29.492   5.682  48.269  1.00  0.00     0.235 A 
HETATM   14  N3  UNL     1      29.443   6.947  47.898  1.00  0.00    -0.245 NA
HETATM   15  C10 UNL     1      30.442   7.808  47.819  1.00  0.00     0.058 A 
HETATM   16  C11 UNL     1      31.781   7.453  48.147  1.00  0.00     0.019 A 
HETATM   17  C21 UNL     1      30.640   9.051  47.502  1.00  0.00     0.113 C 
HETATM   18  C12 UNL     1      33.158   7.673  48.303  1.00  0.00     0.043 C 
HETATM   19  O1  UNL     1      33.117   8.972  47.917  1.00  0.00     0.000 OA
HETATM   20  C13 UNL     1      34.099   9.782  47.293  1.00  0.00     0.029 C 
HETATM   21  C14 UNL     1      33.360  10.728  46.323  1.00  0.00     0.174 C 
HETATM   22  O2  UNL     1      32.462  11.451  47.178  1.00  0.00    -0.361 OA
HETATM   23  C15 UNL     1      31.079  11.285  46.968  1.00  0.00     0.167 C 
HETATM   24  C16 UNL     1      30.132  10.333  47.055  1.00  0.00     0.080 C 
BRANCH  24  25
HETATM   25  O3  UNL     1      29.140  11.245  46.623  1.00  0.00    -0.345 OA
BRANCH  25  26
HETATM   26  C17 UNL     1      27.830  10.994  47.108  1.00  0.00     0.154 C 
HETATM   27  C18 UNL     1      26.876  12.098  46.715  1.00  0.00     0.061 C 
HETATM   28  C19 UNL     1      25.823  11.967  47.783  1.00  0.00     0.170 C 
HETATM   29  O4  UNL     1      26.398  11.388  48.883  1.00  0.00    -0.389 OA
HETATM   30  C20 UNL     1      27.725  11.091  48.612  1.00  0.00     0.200 C 
ENDBRANCH  25  26
ENDBRANCH  24  25
ENDBRANCH   9  11
ENDBRANCH   7   9
TORSDOF 4
ENDMDL
