MODEL 1
REMARK VINA RESULT:      -8.4      0.000      0.000
REMARK  2 active torsions:
REMARK  status: ('A' for Active; 'I' for Inactive)
REMARK       I    between atoms: C2_2  and  N1_4 
REMARK    1  A    between atoms: C11_17  and  C12_18 
REMARK    2  A    between atoms: C12_18  and  C13_19 
ROOT
HETATM    1  C1  UNL     1      29.599  -0.922  53.694  1.00  0.00     0.117 C 
HETATM    2  C2  UNL     1      28.910   0.319  54.107  1.00  0.00     0.216 C 
HETATM    3  O1  UNL     1      29.009   1.296  54.912  1.00  0.00    -0.274 OA
HETATM    4  N1  UNL     1      27.705   0.474  53.307  1.00  0.00    -0.337 N 
HETATM    5  C3  UNL     1      27.113  -0.371  52.296  1.00  0.00     0.146 C 
HETATM    6  C4  UNL     1      25.727  -0.828  52.543  1.00  0.00     0.137 C 
HETATM    7  N2  UNL     1      24.951   0.010  53.463  1.00  0.00    -0.400 N 
HETATM    8  C5  UNL     1      23.619   0.138  53.942  1.00  0.00     0.135 C 
HETATM    9  C6  UNL     1      22.339   0.230  53.687  1.00  0.00     0.165 A 
HETATM   10  C7  UNL     1      20.958   0.318  53.113  1.00  0.00     0.093 A 
HETATM   11  C8  UNL     1      20.713   0.266  51.807  1.00  0.00     0.200 A 
HETATM   12  F1  UNL     1      21.804   0.216  52.588  1.00  0.00    -0.368 F 
HETATM   13  N3  UNL     1      21.707   0.105  50.863  1.00  0.00    -0.347 N 
HETATM   14  C9  UNL     1      22.075   1.438  50.342  1.00  0.00     0.204 C 
HETATM   15  N4  UNL     1      22.950   2.413  50.203  1.00  0.00    -0.256 NA
HETATM   16  C10 UNL     1      24.239   2.435  50.710  1.00  0.00     0.129 C 
HETATM   17  C11 UNL     1      25.504   2.534  51.071  1.00  0.00     0.013 C 
HETATM   18  C14 UNL     1      26.448   2.199  52.080  1.00  0.00     0.181 C 
HETATM   19  O2  UNL     1      27.594   2.658  51.725  1.00  0.00    -0.290 OA
HETATM   20  C15 UNL     1      26.783   1.585  53.341  1.00  0.00     0.179 C 
HETATM   21  C16 UNL     1      25.596   1.132  54.181  1.00  0.00     0.151 C 
HETATM   22  H11 UNL     1      22.486  -0.015  50.122  1.00  0.00     0.163 HD
ENDROOT
BRANCH  17  23
HETATM   23  C12 UNL     1      25.910   3.313  49.889  1.00  0.00     0.115 C 
BRANCH  23  24
HETATM   24  C13 UNL     1      25.499   4.733  49.850  1.00  0.00     0.357 C 
HETATM   25  F2  UNL     1      24.731   4.865  48.656  1.00  0.00    -0.214 F 
HETATM   26  F3  UNL     1      26.555   5.602  49.645  1.00  0.00    -0.214 F 
ENDBRANCH  23  24
ENDBRANCH  17  23
TORSDOF 2
ENDMDL
MODEL 2
REMARK VINA RESULT:      -8.0      2.805      5.179
REMARK  2 active torsions:
REMARK  status: ('A' for Active; 'I' for Inactive)
REMARK       I    between atoms: C2_2  and  N1_4 
REMARK    1  A    between atoms: C11_17  and  C12_18 
REMARK    2  A    between atoms: C12_18  and  C13_19 
ROOT
HETATM    1  C1  UNL     1      24.553   6.625  50.785  1.00  0.00     0.117 C 
HETATM    2  C2  UNL     1      24.655   5.332  50.075  1.00  0.00     0.216 C 
HETATM    3  O1  UNL     1      25.035   4.823  48.976  1.00  0.00    -0.274 OA
HETATM    4  N1  UNL     1      24.149   4.280  50.943  1.00  0.00    -0.337 N 
HETATM    5  C3  UNL     1      23.561   4.328  52.262  1.00  0.00     0.146 C 
HETATM    6  C4  UNL     1      22.199   3.765  52.401  1.00  0.00     0.137 C 
HETATM    7  N2  UNL     1      21.823   2.786  51.376  1.00  0.00    -0.400 N 
HETATM    8  C5  UNL     1      20.771   1.876  51.088  1.00  0.00     0.135 C 
HETATM    9  C6  UNL     1      19.986   0.906  51.485  1.00  0.00     0.165 A 
HETATM   10  C7  UNL     1      19.236  -0.179  52.194  1.00  0.00     0.093 A 
HETATM   11  C8  UNL     1      19.474  -0.518  53.457  1.00  0.00     0.200 A 
HETATM   12  F1  UNL     1      19.968   0.379  52.588  1.00  0.00    -0.368 F 
HETATM   13  N3  UNL     1      20.423   0.115  54.237  1.00  0.00    -0.347 N 
HETATM   14  C9  UNL     1      21.665  -0.684  54.200  1.00  0.00     0.204 C 
HETATM   15  N4  UNL     1      22.930  -0.821  53.857  1.00  0.00    -0.256 NA
HETATM   16  C10 UNL     1      23.702   0.111  53.187  1.00  0.00     0.129 C 
HETATM   17  C11 UNL     1      24.554   0.950  52.627  1.00  0.00     0.013 C 
HETATM   18  C14 UNL     1      24.691   1.990  51.667  1.00  0.00     0.181 C 
HETATM   19  O2  UNL     1      25.917   2.372  51.664  1.00  0.00    -0.290 OA
HETATM   20  C15 UNL     1      24.134   2.863  50.664  1.00  0.00     0.179 C 
HETATM   21  C16 UNL     1      22.715   2.527  50.224  1.00  0.00     0.151 C 
HETATM   22  H11 UNL     1      21.169   0.606  54.847  1.00  0.00     0.163 HD
ENDROOT
BRANCH  17  23
HETATM   23  C12 UNL     1      25.719   0.469  53.388  1.00  0.00     0.115 C 
BRANCH  23  24
HETATM   24  C13 UNL     1      26.377  -0.761  52.900  1.00  0.00     0.357 C 
HETATM   25  F2  UNL     1      27.603  -0.841  53.624  1.00  0.00    -0.214 F 
HETATM   26  F3  UNL     1      26.792  -0.675  51.584  1.00  0.00    -0.214 F 
ENDBRANCH  23  24
ENDBRANCH  17  23
TORSDOF 2
ENDMDL
MODEL 3
REMARK VINA RESULT:      -7.7      3.034      6.020
REMARK  2 active torsions:
REMARK  status: ('A' for Active; 'I' for Inactive)
REMARK       I    between atoms: C2_2  and  N1_4 
REMARK    1  A    between atoms: C11_17  and  C12_18 
REMARK    2  A    between atoms: C12_18  and  C13_19 
ROOT
HETATM    1  C1  UNL     1      19.622  -0.239  52.194  1.00  0.00     0.117 C 
HETATM    2  C2  UNL     1      20.530   0.390  53.176  1.00  0.00     0.216 C 
HETATM    3  O1  UNL     1      20.658   0.612  54.419  1.00  0.00    -0.274 OA
HETATM    4  N1  UNL     1      21.678   0.937  52.469  1.00  0.00    -0.337 N 
HETATM    5  C3  UNL     1      21.995   0.995  51.061  1.00  0.00     0.146 C 
HETATM    6  C4  UNL     1      22.222   2.341  50.489  1.00  0.00     0.137 C 
HETATM    7  N2  UNL     1      22.615   3.371  51.456  1.00  0.00    -0.400 N 
HETATM    8  C5  UNL     1      23.064   4.718  51.474  1.00  0.00     0.135 C 
HETATM    9  C6  UNL     1      23.892   5.631  51.032  1.00  0.00     0.165 A 
HETATM   10  C7  UNL     1      24.949   6.456  50.365  1.00  0.00     0.093 A 
HETATM   11  C8  UNL     1      25.790   5.960  49.462  1.00  0.00     0.200 A 
HETATM   12  F1  UNL     1      24.778   5.482  50.204  1.00  0.00    -0.368 F 
HETATM   13  N3  UNL     1      25.751   4.645  49.042  1.00  0.00    -0.347 N 
HETATM   14  C9  UNL     1      26.750   3.879  49.816  1.00  0.00     0.204 C 
HETATM   15  N4  UNL     1      27.047   2.947  50.699  1.00  0.00    -0.256 NA
HETATM   16  C10 UNL     1      26.145   2.148  51.381  1.00  0.00     0.129 C 
HETATM   17  C11 UNL     1      25.389   1.279  52.026  1.00  0.00     0.013 C 
HETATM   18  C14 UNL     1      24.128   1.087  52.654  1.00  0.00     0.181 C 
HETATM   19  O2  UNL     1      24.081  -0.119  53.096  1.00  0.00    -0.290 OA
HETATM   20  C15 UNL     1      22.833   1.572  53.059  1.00  0.00     0.179 C 
HETATM   21  C16 UNL     1      22.623   3.073  52.906  1.00  0.00     0.151 C 
HETATM   22  H11 UNL     1      25.725   3.614  48.718  1.00  0.00     0.163 HD
ENDROOT
BRANCH  17  23
HETATM   23  C12 UNL     1      26.389   0.199  51.996  1.00  0.00     0.115 C 
BRANCH  23  24
HETATM   24  C13 UNL     1      27.464   0.253  53.010  1.00  0.00     0.357 C 
HETATM   25  F2  UNL     1      28.271  -0.895  52.758  1.00  0.00    -0.214 F 
HETATM   26  F3  UNL     1      27.010   0.044  54.300  1.00  0.00    -0.214 F 
ENDBRANCH  23  24
ENDBRANCH  17  23
TORSDOF 2
ENDMDL
MODEL 4
REMARK VINA RESULT:      -7.6      2.183      4.888
REMARK  2 active torsions:
REMARK  status: ('A' for Active; 'I' for Inactive)
REMARK       I    between atoms: C2_2  and  N1_4 
REMARK    1  A    between atoms: C11_17  and  C12_18 
REMARK    2  A    between atoms: C12_18  and  C13_19 
ROOT
HETATM    1  C1  UNL     1      28.967   0.190  54.958  1.00  0.00     0.117 C 
HETATM    2  C2  UNL     1      28.175  -0.466  53.895  1.00  0.00     0.216 C 
HETATM    3  O1  UNL     1      28.187  -1.465  53.112  1.00  0.00    -0.274 OA
HETATM    4  N1  UNL     1      26.957   0.300  53.680  1.00  0.00    -0.337 N 
HETATM    5  C3  UNL     1      26.485   1.532  54.268  1.00  0.00     0.146 C 
HETATM    6  C4  UNL     1      26.198   2.645  53.334  1.00  0.00     0.137 C 
HETATM    7  N2  UNL     1      25.919   2.241  51.952  1.00  0.00    -0.400 N 
HETATM    8  C5  UNL     1      25.477   2.814  50.730  1.00  0.00     0.135 C 
HETATM    9  C6  UNL     1      24.607   3.550  50.085  1.00  0.00     0.165 A 
HETATM   10  C7  UNL     1      23.484   4.420  49.611  1.00  0.00     0.093 A 
HETATM   11  C8  UNL     1      22.546   4.898  50.424  1.00  0.00     0.200 A 
HETATM   12  F1  UNL     1      23.634   4.121  50.555  1.00  0.00    -0.368 F 
HETATM   13  N3  UNL     1      22.535   4.652  51.783  1.00  0.00    -0.347 N 
HETATM   14  C9  UNL     1      21.627   3.516  52.044  1.00  0.00     0.204 C 
HETATM   15  N4  UNL     1      21.428   2.275  52.440  1.00  0.00    -0.256 NA
HETATM   16  C10 UNL     1      22.399   1.390  52.876  1.00  0.00     0.129 C 
HETATM   17  C11 UNL     1      23.220   0.489  53.383  1.00  0.00     0.013 C 
HETATM   18  C14 UNL     1      24.542  -0.030  53.329  1.00  0.00     0.181 C 
HETATM   19  O2  UNL     1      24.636  -0.979  54.190  1.00  0.00    -0.290 OA
HETATM   20  C15 UNL     1      25.876  -0.032  52.781  1.00  0.00     0.179 C 
HETATM   21  C16 UNL     1      26.071   0.828  51.539  1.00  0.00     0.151 C 
HETATM   22  H11 UNL     1      22.523   4.456  52.846  1.00  0.00     0.163 HD
ENDROOT
BRANCH  17  23
HETATM   23  C12 UNL     1      22.221  -0.089  54.297  1.00  0.00     0.115 C 
BRANCH  23  24
HETATM   24  C13 UNL     1      21.377  -1.179  53.763  1.00  0.00     0.357 C 
HETATM   25  F2  UNL     1      20.034  -0.751  53.980  1.00  0.00    -0.214 F 
HETATM   26  F3  UNL     1      21.460  -2.347  54.500  1.00  0.00    -0.214 F 
ENDBRANCH  23  24
ENDBRANCH  17  23
TORSDOF 2
ENDMDL
MODEL 5
REMARK VINA RESULT:      -7.6      3.185      6.573
REMARK  2 active torsions:
REMARK  status: ('A' for Active; 'I' for Inactive)
REMARK       I    between atoms: C2_2  and  N1_4 
REMARK    1  A    between atoms: C11_17  and  C12_18 
REMARK    2  A    between atoms: C12_18  and  C13_19 
ROOT
HETATM    1  C1  UNL     1      21.988   4.512  49.492  1.00  0.00     0.117 C 
HETATM    2  C2  UNL     1      22.006   4.393  50.965  1.00  0.00     0.216 C 
HETATM    3  O1  UNL     1      21.549   4.937  52.017  1.00  0.00    -0.274 OA
HETATM    4  N1  UNL     1      22.831   3.253  51.333  1.00  0.00    -0.337 N 
HETATM    5  C3  UNL     1      23.610   2.338  50.531  1.00  0.00     0.146 C 
HETATM    6  C4  UNL     1      25.055   2.252  50.839  1.00  0.00     0.137 C 
HETATM    7  N2  UNL     1      25.429   2.670  52.194  1.00  0.00    -0.400 N 
HETATM    8  C5  UNL     1      26.566   2.679  53.045  1.00  0.00     0.135 C 
HETATM    9  C6  UNL     1      27.568   2.033  53.586  1.00  0.00     0.165 A 
HETATM   10  C7  UNL     1      28.610   1.064  54.053  1.00  0.00     0.093 A 
HETATM   11  C8  UNL     1      28.649  -0.205  53.656  1.00  0.00     0.200 A 
HETATM   12  F1  UNL     1      27.864   0.859  53.418  1.00  0.00    -0.368 F 
HETATM   13  N3  UNL     1      27.743  -0.737  52.759  1.00  0.00    -0.347 N 
HETATM   14  C9  UNL     1      26.678  -1.420  53.523  1.00  0.00     0.204 C 
HETATM   15  N4  UNL     1      25.420  -1.510  53.904  1.00  0.00    -0.256 NA
HETATM   16  C10 UNL     1      24.391  -0.657  53.544  1.00  0.00     0.129 C 
HETATM   17  C11 UNL     1      23.321   0.037  53.207  1.00  0.00     0.013 C 
HETATM   18  C14 UNL     1      22.841   1.334  52.876  1.00  0.00     0.181 C 
HETATM   19  O2  UNL     1      21.582   1.246  52.636  1.00  0.00    -0.290 OA
HETATM   20  C15 UNL     1      23.057   2.744  52.665  1.00  0.00     0.179 C 
HETATM   21  C16 UNL     1      24.420   3.266  53.099  1.00  0.00     0.151 C 
HETATM   22  H11 UNL     1      27.032  -1.157  52.062  1.00  0.00     0.163 HD
ENDROOT
BRANCH  17  23
HETATM   23  C12 UNL     1      22.404  -1.114  53.261  1.00  0.00     0.115 C 
BRANCH  23  24
HETATM   24  C13 UNL     1      21.921  -1.522  54.597  1.00  0.00     0.357 C 
HETATM   25  F2  UNL     1      20.577  -1.954  54.391  1.00  0.00    -0.214 F 
HETATM   26  F3  UNL     1      21.781  -0.463  55.475  1.00  0.00    -0.214 F 
ENDBRANCH  23  24
ENDBRANCH  17  23
TORSDOF 2
ENDMDL
MODEL 6
REMARK VINA RESULT:      -7.6      2.538      4.956
REMARK  2 active torsions:
REMARK  status: ('A' for Active; 'I' for Inactive)
REMARK       I    between atoms: C2_2  and  N1_4 
REMARK    1  A    between atoms: C11_17  and  C12_18 
REMARK    2  A    between atoms: C12_18  and  C13_19 
ROOT
HETATM    1  C1  UNL     1      24.409   6.409  50.757  1.00  0.00     0.117 C 
HETATM    2  C2  UNL     1      24.578   5.133  50.031  1.00  0.00     0.216 C 
HETATM    3  O1  UNL     1      24.681   4.656  48.859  1.00  0.00    -0.274 OA
HETATM    4  N1  UNL     1      24.660   4.051  51.000  1.00  0.00    -0.337 N 
HETATM    5  C3  UNL     1      24.551   4.046  52.440  1.00  0.00     0.146 C 
HETATM    6  C4  UNL     1      23.493   3.190  53.022  1.00  0.00     0.137 C 
HETATM    7  N2  UNL     1      23.045   2.087  52.167  1.00  0.00    -0.400 N 
HETATM    8  C5  UNL     1      22.210   0.939  52.236  1.00  0.00     0.135 C 
HETATM    9  C6  UNL     1      21.862  -0.159  52.857  1.00  0.00     0.165 A 
HETATM   10  C7  UNL     1      21.676  -1.341  53.758  1.00  0.00     0.093 A 
HETATM   11  C8  UNL     1      22.396  -1.532  54.860  1.00  0.00     0.200 A 
HETATM   12  F1  UNL     1      22.340  -0.604  53.891  1.00  0.00    -0.368 F 
HETATM   13  N3  UNL     1      23.367  -0.646  55.284  1.00  0.00    -0.347 N 
HETATM   14  C9  UNL     1      24.680  -1.134  54.814  1.00  0.00     0.204 C 
HETATM   15  N4  UNL     1      25.752  -0.994  54.060  1.00  0.00    -0.256 NA
HETATM   16  C10 UNL     1      26.007   0.048  53.185  1.00  0.00     0.129 C 
HETATM   17  C11 UNL     1      26.395   1.024  52.385  1.00  0.00     0.013 C 
HETATM   18  C14 UNL     1      25.948   2.003  51.455  1.00  0.00     0.181 C 
HETATM   19  O2  UNL     1      26.973   2.660  51.044  1.00  0.00    -0.290 OA
HETATM   20  C15 UNL     1      24.896   2.654  50.716  1.00  0.00     0.179 C 
HETATM   21  C16 UNL     1      23.538   1.968  50.776  1.00  0.00     0.151 C 
HETATM   22  H11 UNL     1      24.131   0.044  55.614  1.00  0.00     0.163 HD
ENDROOT
BRANCH  17  23
HETATM   23  C12 UNL     1      27.826   0.880  52.698  1.00  0.00     0.115 C 
BRANCH  23  24
HETATM   24  C13 UNL     1      28.289   1.436  53.988  1.00  0.00     0.357 C 
HETATM   25  F2  UNL     1      28.279   2.851  53.808  1.00  0.00    -0.214 F 
HETATM   26  F3  UNL     1      29.616   1.160  54.258  1.00  0.00    -0.214 F 
ENDBRANCH  23  24
ENDBRANCH  17  23
TORSDOF 2
ENDMDL
MODEL 7
REMARK VINA RESULT:      -7.4      2.755      5.624
REMARK  2 active torsions:
REMARK  status: ('A' for Active; 'I' for Inactive)
REMARK       I    between atoms: C2_2  and  N1_4 
REMARK    1  A    between atoms: C11_17  and  C12_18 
REMARK    2  A    between atoms: C12_18  and  C13_19 
ROOT
HETATM    1  C1  UNL     1      19.209   4.270  50.537  1.00  0.00     0.117 C 
HETATM    2  C2  UNL     1      19.973   3.210  49.844  1.00  0.00     0.216 C 
HETATM    3  O1  UNL     1      19.867   2.337  48.929  1.00  0.00    -0.274 OA
HETATM    4  N1  UNL     1      21.314   3.157  50.406  1.00  0.00    -0.337 N 
HETATM    5  C3  UNL     1      21.928   3.892  51.488  1.00  0.00     0.146 C 
HETATM    6  C4  UNL     1      22.473   3.092  52.607  1.00  0.00     0.137 C 
HETATM    7  N2  UNL     1      22.803   1.702  52.275  1.00  0.00    -0.400 N 
HETATM    8  C5  UNL     1      23.438   0.574  52.862  1.00  0.00     0.135 C 
HETATM    9  C6  UNL     1      24.469   0.067  53.488  1.00  0.00     0.165 A 
HETATM   10  C7  UNL     1      25.757  -0.239  54.190  1.00  0.00     0.093 A 
HETATM   11  C8  UNL     1      26.685   0.682  54.433  1.00  0.00     0.200 A 
HETATM   12  F1  UNL     1      25.478   0.659  53.845  1.00  0.00    -0.368 F 
HETATM   13  N3  UNL     1      26.536   2.009  54.080  1.00  0.00    -0.347 N 
HETATM   14  C9  UNL     1      27.220   2.226  52.788  1.00  0.00     0.204 C 
HETATM   15  N4  UNL     1      27.178   2.516  51.504  1.00  0.00    -0.256 NA
HETATM   16  C10 UNL     1      26.042   2.795  50.764  1.00  0.00     0.129 C 
HETATM   17  C11 UNL     1      25.043   3.153  49.978  1.00  0.00     0.013 C 
HETATM   18  C14 UNL     1      23.664   2.953  49.699  1.00  0.00     0.181 C 
HETATM   19  O2  UNL     1      23.341   3.712  48.712  1.00  0.00    -0.290 OA
HETATM   20  C15 UNL     1      22.401   2.313  49.969  1.00  0.00     0.179 C 
HETATM   21  C16 UNL     1      22.459   1.147  50.947  1.00  0.00     0.151 C 
HETATM   22  H11 UNL     1      26.423   3.047  53.798  1.00  0.00     0.163 HD
ENDROOT
BRANCH  17  23
HETATM   23  C12 UNL     1      25.850   4.078  49.166  1.00  0.00     0.115 C 
BRANCH  23  24
HETATM   24  C13 UNL     1      26.010   5.455  49.680  1.00  0.00     0.357 C 
HETATM   25  F2  UNL     1      24.918   6.187  49.129  1.00  0.00    -0.214 F 
HETATM   26  F3  UNL     1      27.118   6.106  49.167  1.00  0.00    -0.214 F 
ENDBRANCH  23  24
ENDBRANCH  17  23
TORSDOF 2
ENDMDL
MODEL 8
REMARK VINA RESULT:      -7.2      3.602      6.424
REMARK  2 active torsions:
REMARK  status: ('A' for Active; 'I' for Inactive)
REMARK       I    between atoms: C2_2  and  N1_4 
REMARK    1  A    between atoms: C11_17  and  C12_18 
REMARK    2  A    between atoms: C12_18  and  C13_19 
ROOT
HETATM    1  C1  UNL     1      22.456   6.040  48.568  1.00  0.00     0.117 C 
HETATM    2  C2  UNL     1      22.189   6.100  50.020  1.00  0.00     0.216 C 
HETATM    3  O1  UNL     1      21.850   6.904  50.942  1.00  0.00    -0.274 OA
HETATM    4  N1  UNL     1      22.374   4.772  50.585  1.00  0.00    -0.337 N 
HETATM    5  C3  UNL     1      22.800   3.528  49.985  1.00  0.00     0.146 C 
HETATM    6  C4  UNL     1      23.999   2.888  50.570  1.00  0.00     0.137 C 
HETATM    7  N2  UNL     1      24.296   3.269  51.954  1.00  0.00    -0.400 N 
HETATM    8  C5  UNL     1      25.177   2.906  53.008  1.00  0.00     0.135 C 
HETATM    9  C6  UNL     1      25.705   1.971  53.757  1.00  0.00     0.165 A 
HETATM   10  C7  UNL     1      26.141   0.719  54.454  1.00  0.00     0.093 A 
HETATM   11  C8  UNL     1      25.693  -0.488  54.122  1.00  0.00     0.200 A 
HETATM   12  F1  UNL     1      25.490   0.769  53.696  1.00  0.00    -0.368 F 
HETATM   13  N3  UNL     1      24.801  -0.699  53.089  1.00  0.00    -0.347 N 
HETATM   14  C9  UNL     1      23.440  -0.782  53.658  1.00  0.00     0.204 C 
HETATM   15  N4  UNL     1      22.222  -0.297  53.793  1.00  0.00    -0.256 NA
HETATM   16  C10 UNL     1      21.731   0.857  53.207  1.00  0.00     0.129 C 
HETATM   17  C11 UNL     1      21.131   1.889  52.642  1.00  0.00     0.013 C 
HETATM   18  C14 UNL     1      21.315   3.218  52.174  1.00  0.00     0.181 C 
HETATM   19  O2  UNL     1      20.195   3.633  51.699  1.00  0.00    -0.290 OA
HETATM   20  C15 UNL     1      22.145   4.376  51.954  1.00  0.00     0.179 C 
HETATM   21  C16 UNL     1      23.513   4.332  52.623  1.00  0.00     0.151 C 
HETATM   22  H11 UNL     1      24.098  -0.864  52.284  1.00  0.00     0.163 HD
ENDROOT
BRANCH  17  23
HETATM   23  C12 UNL     1      19.813   1.237  52.563  1.00  0.00     0.115 C 
BRANCH  23  24
HETATM   24  C13 UNL     1      19.632   0.220  51.504  1.00  0.00     0.357 C 
HETATM   25  F2  UNL     1      19.158   0.944  50.371  1.00  0.00    -0.214 F 
HETATM   26  F3  UNL     1      18.604  -0.666  51.767  1.00  0.00    -0.214 F 
ENDBRANCH  23  24
ENDBRANCH  17  23
TORSDOF 2
ENDMDL
MODEL 9
REMARK VINA RESULT:      -7.1      3.007      6.866
REMARK  2 active torsions:
REMARK  status: ('A' for Active; 'I' for Inactive)
REMARK       I    between atoms: C2_2  and  N1_4 
REMARK    1  A    between atoms: C11_17  and  C12_18 
REMARK    2  A    between atoms: C12_18  and  C13_19 
ROOT
HETATM    1  C1  UNL     1      18.481   0.789  50.146  1.00  0.00     0.117 C 
HETATM    2  C2  UNL     1      18.961   1.819  51.092  1.00  0.00     0.216 C 
HETATM    3  O1  UNL     1      18.548   2.661  51.947  1.00  0.00    -0.274 OA
HETATM    4  N1  UNL     1      20.413   1.880  51.019  1.00  0.00    -0.337 N 
HETATM    5  C3  UNL     1      21.359   1.177  50.183  1.00  0.00     0.146 C 
HETATM    6  C4  UNL     1      22.248   2.011  49.343  1.00  0.00     0.137 C 
HETATM    7  N2  UNL     1      22.441   3.386  49.815  1.00  0.00    -0.400 N 
HETATM    8  C5  UNL     1      23.232   4.528  49.517  1.00  0.00     0.135 C 
HETATM    9  C6  UNL     1      24.412   5.047  49.293  1.00  0.00     0.165 A 
HETATM   10  C7  UNL     1      25.860   5.367  49.080  1.00  0.00     0.093 A 
HETATM   11  C8  UNL     1      26.820   4.448  49.133  1.00  0.00     0.200 A 
HETATM   12  F1  UNL     1      25.484   4.461  49.279  1.00  0.00    -0.368 F 
HETATM   13  N3  UNL     1      26.565   3.111  49.369  1.00  0.00    -0.347 N 
HETATM   14  C9  UNL     1      26.773   2.844  50.807  1.00  0.00     0.204 C 
HETATM   15  N4  UNL     1      26.300   2.511  51.991  1.00  0.00    -0.256 NA
HETATM   16  C10 UNL     1      24.982   2.217  52.293  1.00  0.00     0.129 C 
HETATM   17  C11 UNL     1      23.778   1.840  52.682  1.00  0.00     0.013 C 
HETATM   18  C14 UNL     1      22.384   2.041  52.485  1.00  0.00     0.181 C 
HETATM   19  O2  UNL     1      21.750   1.253  53.278  1.00  0.00    -0.290 OA
HETATM   20  C15 UNL     1      21.284   2.701  51.826  1.00  0.00     0.179 C 
HETATM   21  C16 UNL     1      21.665   3.899  50.966  1.00  0.00     0.151 C 
HETATM   22  H11 UNL     1      26.368   2.065  49.560  1.00  0.00     0.163 HD
ENDROOT
BRANCH  17  23
HETATM   23  C12 UNL     1      24.266   0.882  53.687  1.00  0.00     0.115 C 
BRANCH  23  24
HETATM   24  C13 UNL     1      24.724  -0.433  53.190  1.00  0.00     0.357 C 
HETATM   25  F2  UNL     1      23.552  -1.244  53.146  1.00  0.00    -0.214 F 
HETATM   26  F3  UNL     1      25.538  -1.103  54.085  1.00  0.00    -0.214 F 
ENDBRANCH  23  24
ENDBRANCH  17  23
TORSDOF 2
ENDMDL
