MODEL 1
REMARK VINA RESULT:      -6.0      0.000      0.000
REMARK  9 active torsions:
REMARK  status: ('A' for Active; 'I' for Inactive)
REMARK    1  A    between atoms: O1_2  and  C2_3 
REMARK    2  A    between atoms: C3_4  and  C4_5 
REMARK    3  A    between atoms: C4_5  and  N1_6 
REMARK    4  A    between atoms: C4_5  and  C5_7 
REMARK    5  A    between atoms: C6_8  and  N2_9 
REMARK    6  A    between atoms: N2_9  and  C7_10 
REMARK    7  A    between atoms: C9_12  and  O2_13 
REMARK    8  A    between atoms: C11_15  and  O3_16 
REMARK    9  A    between atoms: C13_18  and  O4_19 
ROOT
HETATM    1  C7  UNL     1      24.568   1.753  52.344  1.00  0.00     0.037 A 
HETATM    2  C8  UNL     1      23.896   0.807  53.068  1.00  0.00     0.069 A 
HETATM    3  C9  UNL     1      22.687   0.355  52.565  1.00  0.00     0.106 A 
HETATM    4  C11 UNL     1      22.174   0.832  51.386  1.00  0.00     0.135 A 
HETATM    5  C13 UNL     1      22.898   1.799  50.683  1.00  0.00     0.106 A 
HETATM    6  C15 UNL     1      24.118   2.282  51.153  1.00  0.00     0.069 A 
ENDROOT
BRANCH   1   7
HETATM    7  N2  UNL     1      25.796   2.203  52.870  1.00  0.00    -0.366 N 
HETATM    8  H11 UNL     1      26.202   3.138  52.718  1.00  0.00     0.165 HD
BRANCH   7   9
HETATM    9  C6  UNL     1      26.771   1.574  53.693  1.00  0.00     0.086 C 
HETATM   10  C5  UNL     1      28.050   1.372  53.400  1.00  0.00     0.029 C 
BRANCH  10  11
HETATM   11  C4  UNL     1      28.997   0.695  54.347  1.00  0.00     0.266 C 
BRANCH  11  12
HETATM   12  C3  UNL     1      29.842  -0.236  53.562  1.00  0.00     0.036 C 
HETATM   13  C2  UNL     1      29.265  -1.385  53.253  1.00  0.00     0.132 C 
BRANCH  13  14
HETATM   14  O1  UNL     1      28.289  -2.365  53.188  1.00  0.00    -0.368 OA
HETATM   15  C1  UNL     1      27.030  -2.152  52.566  1.00  0.00     0.208 C 
ENDBRANCH  13  14
ENDBRANCH  11  12
BRANCH  11  16
HETATM   16  N1  UNL     1      28.278  -0.100  55.325  1.00  0.00     0.090 N 
HETATM   17  H7  UNL     1      28.074  -1.059  54.964  1.00  0.00     0.314 HD
HETATM   18  H8  UNL     1      28.934  -0.147  56.160  1.00  0.00     0.314 HD
ENDBRANCH  11  16
ENDBRANCH  10  11
ENDBRANCH   7   9
ENDBRANCH   1   7
BRANCH   3  19
HETATM   19  O2  UNL     1      21.949  -0.614  53.256  1.00  0.00    -0.353 OA
HETATM   20  C10 UNL     1      21.747  -0.363  54.637  1.00  0.00     0.210 C 
ENDBRANCH   3  19
BRANCH   5  21
HETATM   21  O4  UNL     1      22.305   2.225  49.503  1.00  0.00    -0.353 OA
HETATM   22  C14 UNL     1      22.876   3.051  48.541  1.00  0.00     0.210 C 
ENDBRANCH   5  21
BRANCH   4  23
HETATM   23  O3  UNL     1      20.954   0.343  50.924  1.00  0.00    -0.351 OA
HETATM   24  C12 UNL     1      19.778   0.989  51.362  1.00  0.00     0.210 C 
ENDBRANCH   4  23
TORSDOF 9
ENDMDL
MODEL 2
REMARK VINA RESULT:      -6.0      1.428      2.829
REMARK  9 active torsions:
REMARK  status: ('A' for Active; 'I' for Inactive)
REMARK    1  A    between atoms: O1_2  and  C2_3 
REMARK    2  A    between atoms: C3_4  and  C4_5 
REMARK    3  A    between atoms: C4_5  and  N1_6 
REMARK    4  A    between atoms: C4_5  and  C5_7 
REMARK    5  A    between atoms: C6_8  and  N2_9 
REMARK    6  A    between atoms: N2_9  and  C7_10 
REMARK    7  A    between atoms: C9_12  and  O2_13 
REMARK    8  A    between atoms: C11_15  and  O3_16 
REMARK    9  A    between atoms: C13_18  and  O4_19 
ROOT
HETATM    1  C7  UNL     1      24.534   2.390  52.704  1.00  0.00     0.037 A 
HETATM    2  C8  UNL     1      23.728   3.464  52.443  1.00  0.00     0.069 A 
HETATM    3  C9  UNL     1      22.372   3.223  52.287  1.00  0.00     0.106 A 
HETATM    4  C11 UNL     1      21.849   1.960  52.388  1.00  0.00     0.135 A 
HETATM    5  C13 UNL     1      22.714   0.896  52.656  1.00  0.00     0.106 A 
HETATM    6  C15 UNL     1      24.083   1.092  52.820  1.00  0.00     0.069 A 
ENDROOT
BRANCH   1   7
HETATM    7  N2  UNL     1      25.911   2.651  52.860  1.00  0.00    -0.366 N 
HETATM    8  H11 UNL     1      26.435   3.390  52.370  1.00  0.00     0.165 HD
BRANCH   7   9
HETATM    9  C6  UNL     1      26.915   2.040  53.660  1.00  0.00     0.086 C 
HETATM   10  C5  UNL     1      28.185   1.840  53.329  1.00  0.00     0.029 C 
BRANCH  10  11
HETATM   11  C4  UNL     1      29.165   1.182  54.255  1.00  0.00     0.266 C 
BRANCH  11  12
HETATM   12  C3  UNL     1      29.869   0.119  53.497  1.00  0.00     0.036 C 
HETATM   13  C2  UNL     1      29.173  -0.991  53.319  1.00  0.00     0.132 C 
BRANCH  13  14
HETATM   14  O1  UNL     1      28.111  -1.877  53.395  1.00  0.00    -0.368 OA
HETATM   15  C1  UNL     1      26.881  -1.659  52.720  1.00  0.00     0.208 C 
ENDBRANCH  13  14
ENDBRANCH  11  12
BRANCH  11  16
HETATM   16  N1  UNL     1      28.487   0.538  55.363  1.00  0.00     0.090 N 
HETATM   17  H7  UNL     1      28.679   1.025  56.267  1.00  0.00     0.314 HD
HETATM   18  H8  UNL     1      27.456   0.604  55.115  1.00  0.00     0.314 HD
ENDBRANCH  11  16
ENDBRANCH  10  11
ENDBRANCH   7   9
ENDBRANCH   1   7
BRANCH   3  19
HETATM   19  O2  UNL     1      21.491   4.279  52.020  1.00  0.00    -0.353 OA
HETATM   20  C10 UNL     1      21.923   5.205  51.038  1.00  0.00     0.210 C 
ENDBRANCH   3  19
BRANCH   5  21
HETATM   21  O4  UNL     1      22.099  -0.346  52.741  1.00  0.00    -0.353 OA
HETATM   22  C14 UNL     1      21.969  -1.128  53.882  1.00  0.00     0.210 C 
ENDBRANCH   5  21
BRANCH   4  23
HETATM   23  O3  UNL     1      20.477   1.773  52.224  1.00  0.00    -0.351 OA
HETATM   24  C12 UNL     1      20.005   1.481  50.926  1.00  0.00     0.210 C 
ENDBRANCH   4  23
TORSDOF 9
ENDMDL
MODEL 3
REMARK VINA RESULT:      -5.9      0.754      2.875
REMARK  9 active torsions:
REMARK  status: ('A' for Active; 'I' for Inactive)
REMARK    1  A    between atoms: O1_2  and  C2_3 
REMARK    2  A    between atoms: C3_4  and  C4_5 
REMARK    3  A    between atoms: C4_5  and  N1_6 
REMARK    4  A    between atoms: C4_5  and  C5_7 
REMARK    5  A    between atoms: C6_8  and  N2_9 
REMARK    6  A    between atoms: N2_9  and  C7_10 
REMARK    7  A    between atoms: C9_12  and  O2_13 
REMARK    8  A    between atoms: C11_15  and  O3_16 
REMARK    9  A    between atoms: C13_18  and  O4_19 
ROOT
HETATM    1  C7  UNL     1      24.680   2.190  52.125  1.00  0.00     0.037 A 
HETATM    2  C8  UNL     1      24.443   2.647  50.858  1.00  0.00     0.069 A 
HETATM    3  C9  UNL     1      23.321   2.164  50.203  1.00  0.00     0.106 A 
HETATM    4  C11 UNL     1      22.474   1.263  50.795  1.00  0.00     0.135 A 
HETATM    5  C13 UNL     1      22.760   0.827  52.092  1.00  0.00     0.106 A 
HETATM    6  C15 UNL     1      23.877   1.286  52.786  1.00  0.00     0.069 A 
ENDROOT
BRANCH   1   7
HETATM    7  N2  UNL     1      25.825   2.691  52.778  1.00  0.00    -0.366 N 
HETATM    8  H11 UNL     1      26.145   3.670  52.751  1.00  0.00     0.165 HD
BRANCH   7   9
HETATM    9  C6  UNL     1      26.807   2.068  53.597  1.00  0.00     0.086 C 
HETATM   10  C5  UNL     1      28.064   1.797  53.267  1.00  0.00     0.029 C 
BRANCH  10  11
HETATM   11  C4  UNL     1      29.021   1.134  54.214  1.00  0.00     0.266 C 
BRANCH  11  12
HETATM   12  C3  UNL     1      29.725   0.059  53.474  1.00  0.00     0.036 C 
HETATM   13  C2  UNL     1      29.025  -1.050  53.304  1.00  0.00     0.132 C 
BRANCH  13  14
HETATM   14  O1  UNL     1      27.958  -1.929  53.383  1.00  0.00    -0.368 OA
HETATM   15  C1  UNL     1      26.738  -1.719  52.685  1.00  0.00     0.208 C 
ENDBRANCH  13  14
ENDBRANCH  11  12
BRANCH  11  16
HETATM   16  N1  UNL     1      28.316   0.506  55.315  1.00  0.00     0.090 N 
HETATM   17  H7  UNL     1      27.633   1.161  55.757  1.00  0.00     0.314 HD
HETATM   18  H8  UNL     1      27.812  -0.316  54.870  1.00  0.00     0.314 HD
ENDBRANCH  11  16
ENDBRANCH  10  11
ENDBRANCH   7   9
ENDBRANCH   1   7
BRANCH   3  19
HETATM   19  O2  UNL     1      23.020   2.592  48.904  1.00  0.00    -0.353 OA
HETATM   20  C10 UNL     1      22.870   3.991  48.737  1.00  0.00     0.210 C 
ENDBRANCH   3  19
BRANCH   5  21
HETATM   21  O4  UNL     1      21.851  -0.084  52.612  1.00  0.00    -0.353 OA
HETATM   22  C14 UNL     1      22.120  -1.083  53.542  1.00  0.00     0.210 C 
ENDBRANCH   5  21
BRANCH   4  23
HETATM   23  O3  UNL     1      21.359   0.810  50.093  1.00  0.00    -0.351 OA
HETATM   24  C12 UNL     1      20.159   1.542  50.223  1.00  0.00     0.210 C 
ENDBRANCH   4  23
TORSDOF 9
ENDMDL
MODEL 4
REMARK VINA RESULT:      -5.9      3.941      6.667
REMARK  9 active torsions:
REMARK  status: ('A' for Active; 'I' for Inactive)
REMARK    1  A    between atoms: O1_2  and  C2_3 
REMARK    2  A    between atoms: C3_4  and  C4_5 
REMARK    3  A    between atoms: C4_5  and  N1_6 
REMARK    4  A    between atoms: C4_5  and  C5_7 
REMARK    5  A    between atoms: C6_8  and  N2_9 
REMARK    6  A    between atoms: N2_9  and  C7_10 
REMARK    7  A    between atoms: C9_12  and  O2_13 
REMARK    8  A    between atoms: C11_15  and  O3_16 
REMARK    9  A    between atoms: C13_18  and  O4_19 
ROOT
HETATM    1  C7  UNL     1      26.249   1.216  51.839  1.00  0.00     0.037 A 
HETATM    2  C8  UNL     1      27.250   0.600  52.538  1.00  0.00     0.069 A 
HETATM    3  C9  UNL     1      26.882  -0.231  53.585  1.00  0.00     0.106 A 
HETATM    4  C11 UNL     1      25.567  -0.434  53.915  1.00  0.00     0.135 A 
HETATM    5  C13 UNL     1      24.581   0.219  53.170  1.00  0.00     0.106 A 
HETATM    6  C15 UNL     1      24.906   1.063  52.110  1.00  0.00     0.069 A 
ENDROOT
BRANCH   1   7
HETATM    7  N2  UNL     1      26.640   2.058  50.778  1.00  0.00    -0.366 N 
HETATM    8  H11 UNL     1      27.310   1.808  50.036  1.00  0.00     0.165 HD
BRANCH   7   9
HETATM    9  C6  UNL     1      26.272   3.386  50.427  1.00  0.00     0.086 C 
HETATM   10  C5  UNL     1      26.694   4.077  49.374  1.00  0.00     0.029 C 
BRANCH  10  11
HETATM   11  C4  UNL     1      26.240   5.480  49.096  1.00  0.00     0.266 C 
BRANCH  11  12
HETATM   12  C3  UNL     1      27.314   6.167  48.339  1.00  0.00     0.036 C 
HETATM   13  C2  UNL     1      27.566   7.405  48.731  1.00  0.00     0.132 C 
BRANCH  13  14
HETATM   14  O1  UNL     1      27.459   8.576  49.462  1.00  0.00    -0.368 OA
HETATM   15  C1  UNL     1      28.545   9.474  49.635  1.00  0.00     0.208 C 
ENDBRANCH  13  14
ENDBRANCH  11  12
BRANCH  11  16
HETATM   16  N1  UNL     1      26.044   6.220  50.328  1.00  0.00     0.090 N 
HETATM   17  H7  UNL     1      26.639   7.077  50.361  1.00  0.00     0.314 HD
HETATM   18  H8  UNL     1      25.014   6.479  50.319  1.00  0.00     0.314 HD
ENDBRANCH  11  16
ENDBRANCH  10  11
ENDBRANCH   7   9
ENDBRANCH   1   7
BRANCH   3  19
HETATM   19  O2  UNL     1      27.858  -0.893  54.341  1.00  0.00    -0.353 OA
HETATM   20  C10 UNL     1      29.162  -0.341  54.278  1.00  0.00     0.210 C 
ENDBRANCH   3  19
BRANCH   5  21
HETATM   21  O4  UNL     1      23.279  -0.043  53.573  1.00  0.00    -0.353 OA
HETATM   22  C14 UNL     1      22.200  -0.336  52.747  1.00  0.00     0.210 C 
ENDBRANCH   5  21
BRANCH   4  23
HETATM   23  O3  UNL     1      25.252  -1.280  54.976  1.00  0.00    -0.351 OA
HETATM   24  C12 UNL     1      25.171  -0.714  56.267  1.00  0.00     0.210 C 
ENDBRANCH   4  23
TORSDOF 9
ENDMDL
MODEL 5
REMARK VINA RESULT:      -5.7      4.250      6.560
REMARK  9 active torsions:
REMARK  status: ('A' for Active; 'I' for Inactive)
REMARK    1  A    between atoms: O1_2  and  C2_3 
REMARK    2  A    between atoms: C3_4  and  C4_5 
REMARK    3  A    between atoms: C4_5  and  N1_6 
REMARK    4  A    between atoms: C4_5  and  C5_7 
REMARK    5  A    between atoms: C6_8  and  N2_9 
REMARK    6  A    between atoms: N2_9  and  C7_10 
REMARK    7  A    between atoms: C9_12  and  O2_13 
REMARK    8  A    between atoms: C11_15  and  O3_16 
REMARK    9  A    between atoms: C13_18  and  O4_19 
ROOT
HETATM    1  C7  UNL     1      25.354   2.114  51.394  1.00  0.00     0.037 A 
HETATM    2  C8  UNL     1      26.638   1.754  51.695  1.00  0.00     0.069 A 
HETATM    3  C9  UNL     1      26.819   0.757  52.640  1.00  0.00     0.106 A 
HETATM    4  C11 UNL     1      25.756   0.148  53.257  1.00  0.00     0.135 A 
HETATM    5  C13 UNL     1      24.462   0.552  52.915  1.00  0.00     0.106 A 
HETATM    6  C15 UNL     1      24.235   1.550  51.970  1.00  0.00     0.069 A 
ENDROOT
BRANCH   1   7
HETATM    7  N2  UNL     1      25.187   3.130  50.431  1.00  0.00    -0.366 N 
HETATM    8  H11 UNL     1      24.283   3.456  50.060  1.00  0.00     0.165 HD
BRANCH   7   9
HETATM    9  C6  UNL     1      26.119   3.946  49.731  1.00  0.00     0.086 C 
HETATM   10  C5  UNL     1      25.938   5.200  49.335  1.00  0.00     0.029 C 
BRANCH  10  11
HETATM   11  C4  UNL     1      26.993   5.974  48.600  1.00  0.00     0.266 C 
BRANCH  11  12
HETATM   12  C3  UNL     1      28.179   5.097  48.446  1.00  0.00     0.036 C 
HETATM   13  C2  UNL     1      29.325   5.735  48.274  1.00  0.00     0.132 C 
BRANCH  13  14
HETATM   14  O1  UNL     1      30.205   6.794  48.132  1.00  0.00    -0.368 OA
HETATM   15  C1  UNL     1      30.456   7.421  46.883  1.00  0.00     0.208 C 
ENDBRANCH  13  14
ENDBRANCH  11  12
BRANCH  11  16
HETATM   16  N1  UNL     1      27.415   7.134  49.361  1.00  0.00     0.090 N 
HETATM   17  H7  UNL     1      26.811   7.284  50.200  1.00  0.00     0.314 HD
HETATM   18  H8  UNL     1      28.412   6.909  49.653  1.00  0.00     0.314 HD
ENDBRANCH  11  16
ENDBRANCH  10  11
ENDBRANCH   7   9
ENDBRANCH   1   7
BRANCH   3  19
HETATM   19  O2  UNL     1      28.109   0.340  52.994  1.00  0.00    -0.353 OA
HETATM   20  C10 UNL     1      28.856   1.255  53.778  1.00  0.00     0.210 C 
ENDBRANCH   3  19
BRANCH   5  21
HETATM   21  O4  UNL     1      23.448  -0.116  53.587  1.00  0.00    -0.353 OA
HETATM   22  C14 UNL     1      22.435  -0.875  53.013  1.00  0.00     0.210 C 
ENDBRANCH   5  21
BRANCH   4  23
HETATM   23  O3  UNL     1      25.993  -0.850  54.200  1.00  0.00    -0.351 OA
HETATM   24  C12 UNL     1      25.969  -0.485  55.563  1.00  0.00     0.210 C 
ENDBRANCH   4  23
TORSDOF 9
ENDMDL
MODEL 6
REMARK VINA RESULT:      -5.7      1.648      3.497
REMARK  9 active torsions:
REMARK  status: ('A' for Active; 'I' for Inactive)
REMARK    1  A    between atoms: O1_2  and  C2_3 
REMARK    2  A    between atoms: C3_4  and  C4_5 
REMARK    3  A    between atoms: C4_5  and  N1_6 
REMARK    4  A    between atoms: C4_5  and  C5_7 
REMARK    5  A    between atoms: C6_8  and  N2_9 
REMARK    6  A    between atoms: N2_9  and  C7_10 
REMARK    7  A    between atoms: C9_12  and  O2_13 
REMARK    8  A    between atoms: C11_15  and  O3_16 
REMARK    9  A    between atoms: C13_18  and  O4_19 
ROOT
HETATM    1  C7  UNL     1      23.960   0.844  52.109  1.00  0.00     0.037 A 
HETATM    2  C8  UNL     1      23.474   1.516  51.022  1.00  0.00     0.069 A 
HETATM    3  C9  UNL     1      22.102   1.505  50.823  1.00  0.00     0.106 A 
HETATM    4  C11 UNL     1      21.257   0.847  51.678  1.00  0.00     0.135 A 
HETATM    5  C13 UNL     1      21.803   0.174  52.775  1.00  0.00     0.106 A 
HETATM    6  C15 UNL     1      23.175   0.160  53.012  1.00  0.00     0.069 A 
ENDROOT
BRANCH   1   7
HETATM    7  N2  UNL     1      25.358   0.865  52.297  1.00  0.00    -0.366 N 
HETATM    8  H11 UNL     1      26.003   1.555  51.887  1.00  0.00     0.165 HD
BRANCH   7   9
HETATM    9  C6  UNL     1      26.235   0.024  53.036  1.00  0.00     0.086 C 
HETATM   10  C5  UNL     1      27.231  -0.709  52.552  1.00  0.00     0.029 C 
BRANCH  10  11
HETATM   11  C4  UNL     1      28.100  -1.565  53.426  1.00  0.00     0.266 C 
BRANCH  11  12
HETATM   12  C3  UNL     1      29.485  -1.040  53.348  1.00  0.00     0.036 C 
HETATM   13  C2  UNL     1      29.648   0.176  53.842  1.00  0.00     0.132 C 
BRANCH  13  14
HETATM   14  O1  UNL     1      29.323   1.382  54.439  1.00  0.00    -0.368 OA
HETATM   15  C1  UNL     1      28.795   2.481  53.710  1.00  0.00     0.208 C 
ENDBRANCH  13  14
ENDBRANCH  11  12
BRANCH  11  16
HETATM   16  N1  UNL     1      28.133  -2.934  52.949  1.00  0.00     0.090 N 
HETATM   17  H7  UNL     1      28.428  -2.985  51.948  1.00  0.00     0.314 HD
HETATM   18  H8  UNL     1      28.846  -3.413  53.574  1.00  0.00     0.314 HD
ENDBRANCH  11  16
ENDBRANCH  10  11
ENDBRANCH   7   9
ENDBRANCH   1   7
BRANCH   3  19
HETATM   19  O2  UNL     1      21.539   2.175  49.729  1.00  0.00    -0.353 OA
HETATM   20  C10 UNL     1      21.744   1.567  48.465  1.00  0.00     0.210 C 
ENDBRANCH   3  19
BRANCH   5  21
HETATM   21  O4  UNL     1      20.875  -0.464  53.586  1.00  0.00    -0.353 OA
HETATM   22  C14 UNL     1      21.081  -1.621  54.328  1.00  0.00     0.210 C 
ENDBRANCH   5  21
BRANCH   4  23
HETATM   23  O3  UNL     1      19.885   0.868  51.433  1.00  0.00    -0.351 OA
HETATM   24  C12 UNL     1      19.163   2.013  51.833  1.00  0.00     0.210 C 
ENDBRANCH   4  23
TORSDOF 9
ENDMDL
MODEL 7
REMARK VINA RESULT:      -5.7      3.832      6.142
REMARK  9 active torsions:
REMARK  status: ('A' for Active; 'I' for Inactive)
REMARK    1  A    between atoms: O1_2  and  C2_3 
REMARK    2  A    between atoms: C3_4  and  C4_5 
REMARK    3  A    between atoms: C4_5  and  N1_6 
REMARK    4  A    between atoms: C4_5  and  C5_7 
REMARK    5  A    between atoms: C6_8  and  N2_9 
REMARK    6  A    between atoms: N2_9  and  C7_10 
REMARK    7  A    between atoms: C9_12  and  O2_13 
REMARK    8  A    between atoms: C11_15  and  O3_16 
REMARK    9  A    between atoms: C13_18  and  O4_19 
ROOT
HETATM    1  C7  UNL     1      24.455   2.219  52.344  1.00  0.00     0.037 A 
HETATM    2  C8  UNL     1      23.608   1.148  52.411  1.00  0.00     0.069 A 
HETATM    3  C9  UNL     1      23.999   0.069  53.188  1.00  0.00     0.106 A 
HETATM    4  C11 UNL     1      25.189   0.066  53.868  1.00  0.00     0.135 A 
HETATM    5  C13 UNL     1      26.021   1.185  53.768  1.00  0.00     0.106 A 
HETATM    6  C15 UNL     1      25.667   2.290  52.998  1.00  0.00     0.069 A 
ENDROOT
BRANCH   1   7
HETATM    7  N2  UNL     1      24.043   3.308  51.549  1.00  0.00    -0.366 N 
HETATM    8  H11 UNL     1      23.065   3.571  51.361  1.00  0.00     0.165 HD
BRANCH   7   9
HETATM    9  C6  UNL     1      24.771   4.293  50.825  1.00  0.00     0.086 C 
HETATM   10  C5  UNL     1      25.519   4.096  49.746  1.00  0.00     0.029 C 
BRANCH  10  11
HETATM   11  C4  UNL     1      26.247   5.212  49.056  1.00  0.00     0.266 C 
BRANCH  11  12
HETATM   12  C3  UNL     1      27.591   4.714  48.675  1.00  0.00     0.036 C 
HETATM   13  C2  UNL     1      28.472   5.657  48.383  1.00  0.00     0.132 C 
BRANCH  13  14
HETATM   14  O1  UNL     1      28.988   6.927  48.188  1.00  0.00    -0.368 OA
HETATM   15  C1  UNL     1      30.379   7.174  48.037  1.00  0.00     0.208 C 
ENDBRANCH  13  14
ENDBRANCH  11  12
BRANCH  11  16
HETATM   16  N1  UNL     1      26.445   6.337  49.949  1.00  0.00     0.090 N 
HETATM   17  H7  UNL     1      26.305   6.065  50.947  1.00  0.00     0.314 HD
HETATM   18  H8  UNL     1      27.451   6.635  49.779  1.00  0.00     0.314 HD
ENDBRANCH  11  16
ENDBRANCH  10  11
ENDBRANCH   7   9
ENDBRANCH   1   7
BRANCH   3  19
HETATM   19  O2  UNL     1      23.176  -1.059  53.299  1.00  0.00    -0.353 OA
HETATM   20  C10 UNL     1      21.964  -0.867  54.009  1.00  0.00     0.210 C 
ENDBRANCH   3  19
BRANCH   5  21
HETATM   21  O4  UNL     1      27.204   1.096  54.488  1.00  0.00    -0.353 OA
HETATM   22  C14 UNL     1      28.474   1.440  54.039  1.00  0.00     0.210 C 
ENDBRANCH   5  21
BRANCH   4  23
HETATM   23  O3  UNL     1      25.534  -1.044  54.636  1.00  0.00    -0.351 OA
HETATM   24  C12 UNL     1      25.111  -1.069  55.983  1.00  0.00     0.210 C 
ENDBRANCH   4  23
TORSDOF 9
ENDMDL
MODEL 8
REMARK VINA RESULT:      -5.6      2.664      6.972
REMARK  9 active torsions:
REMARK  status: ('A' for Active; 'I' for Inactive)
REMARK    1  A    between atoms: O1_2  and  C2_3 
REMARK    2  A    between atoms: C3_4  and  C4_5 
REMARK    3  A    between atoms: C4_5  and  N1_6 
REMARK    4  A    between atoms: C4_5  and  C5_7 
REMARK    5  A    between atoms: C6_8  and  N2_9 
REMARK    6  A    between atoms: N2_9  and  C7_10 
REMARK    7  A    between atoms: C9_12  and  O2_13 
REMARK    8  A    between atoms: C11_15  and  O3_16 
REMARK    9  A    between atoms: C13_18  and  O4_19 
ROOT
HETATM    1  C7  UNL     1      25.315   2.344  52.350  1.00  0.00     0.037 A 
HETATM    2  C8  UNL     1      26.663   2.150  52.479  1.00  0.00     0.069 A 
HETATM    3  C9  UNL     1      27.093   0.898  52.888  1.00  0.00     0.106 A 
HETATM    4  C11 UNL     1      26.210  -0.115  53.155  1.00  0.00     0.135 A 
HETATM    5  C13 UNL     1      24.842   0.132  53.009  1.00  0.00     0.106 A 
HETATM    6  C15 UNL     1      24.365   1.376  52.600  1.00  0.00     0.069 A 
ENDROOT
BRANCH   1   7
HETATM    7  N2  UNL     1      24.893   3.623  51.934  1.00  0.00    -0.366 N 
HETATM    8  H11 UNL     1      25.465   4.294  51.401  1.00  0.00     0.165 HD
BRANCH   7   9
HETATM    9  C6  UNL     1      23.668   4.326  52.100  1.00  0.00     0.086 C 
HETATM   10  C5  UNL     1      23.081   5.123  51.215  1.00  0.00     0.029 C 
BRANCH  10  11
HETATM   11  C4  UNL     1      21.781   5.819  51.494  1.00  0.00     0.266 C 
BRANCH  11  12
HETATM   12  C3  UNL     1      20.733   5.185  50.658  1.00  0.00     0.036 C 
HETATM   13  C2  UNL     1      20.038   4.236  51.263  1.00  0.00     0.132 C 
BRANCH  13  14
HETATM   14  O1  UNL     1      19.625   3.378  52.268  1.00  0.00    -0.368 OA
HETATM   15  C1  UNL     1      20.382   2.244  52.667  1.00  0.00     0.208 C 
ENDBRANCH  13  14
ENDBRANCH  11  12
BRANCH  11  16
HETATM   16  N1  UNL     1      21.845   7.217  51.113  1.00  0.00     0.090 N 
HETATM   17  H7  UNL     1      21.771   7.337  50.078  1.00  0.00     0.314 HD
HETATM   18  H8  UNL     1      21.012   7.661  51.601  1.00  0.00     0.314 HD
ENDBRANCH  11  16
ENDBRANCH  10  11
ENDBRANCH   7   9
ENDBRANCH   1   7
BRANCH   3  19
HETATM   19  O2  UNL     1      28.461   0.633  53.039  1.00  0.00    -0.353 OA
HETATM   20  C10 UNL     1      29.065   1.169  54.204  1.00  0.00     0.210 C 
ENDBRANCH   3  19
BRANCH   5  21
HETATM   21  O4  UNL     1      24.021  -0.948  53.300  1.00  0.00    -0.353 OA
HETATM   22  C14 UNL     1      22.639  -0.922  53.446  1.00  0.00     0.210 C 
ENDBRANCH   5  21
BRANCH   4  23
HETATM   23  O3  UNL     1      26.696  -1.357  53.562  1.00  0.00    -0.351 OA
HETATM   24  C12 UNL     1      27.017  -2.297  52.560  1.00  0.00     0.210 C 
ENDBRANCH   4  23
TORSDOF 9
ENDMDL
MODEL 9
REMARK VINA RESULT:      -5.5      3.483      6.691
REMARK  9 active torsions:
REMARK  status: ('A' for Active; 'I' for Inactive)
REMARK    1  A    between atoms: O1_2  and  C2_3 
REMARK    2  A    between atoms: C3_4  and  C4_5 
REMARK    3  A    between atoms: C4_5  and  N1_6 
REMARK    4  A    between atoms: C4_5  and  C5_7 
REMARK    5  A    between atoms: C6_8  and  N2_9 
REMARK    6  A    between atoms: N2_9  and  C7_10 
REMARK    7  A    between atoms: C9_12  and  O2_13 
REMARK    8  A    between atoms: C11_15  and  O3_16 
REMARK    9  A    between atoms: C13_18  and  O4_19 
ROOT
HETATM    1  C7  UNL     1      24.030   1.355  51.944  1.00  0.00     0.037 A 
HETATM    2  C8  UNL     1      25.367   1.330  52.229  1.00  0.00     0.069 A 
HETATM    3  C9  UNL     1      25.795   0.457  53.217  1.00  0.00     0.106 A 
HETATM    4  C11 UNL     1      24.918  -0.355  53.888  1.00  0.00     0.135 A 
HETATM    5  C13 UNL     1      23.561  -0.292  53.560  1.00  0.00     0.106 A 
HETATM    6  C15 UNL     1      23.088   0.570  52.574  1.00  0.00     0.069 A 
ENDROOT
BRANCH   1   7
HETATM    7  N2  UNL     1      23.611   2.248  50.936  1.00  0.00    -0.366 N 
HETATM    8  H11 UNL     1      22.958   2.020  50.173  1.00  0.00     0.165 HD
BRANCH   7   9
HETATM    9  C6  UNL     1      23.924   3.612  50.677  1.00  0.00     0.086 C 
HETATM   10  C5  UNL     1      23.606   4.658  51.430  1.00  0.00     0.029 C 
BRANCH  10  11
HETATM   11  C4  UNL     1      23.989   6.062  51.061  1.00  0.00     0.266 C 
BRANCH  11  12
HETATM   12  C3  UNL     1      25.167   5.994  50.164  1.00  0.00     0.036 C 
HETATM   13  C2  UNL     1      25.746   7.158  49.917  1.00  0.00     0.132 C 
BRANCH  13  14
HETATM   14  O1  UNL     1      25.976   8.522  49.965  1.00  0.00    -0.368 OA
HETATM   15  C1  UNL     1      27.260   9.075  50.215  1.00  0.00     0.208 C 
ENDBRANCH  13  14
ENDBRANCH  11  12
BRANCH  11  16
HETATM   16  N1  UNL     1      24.385   6.819  52.232  1.00  0.00     0.090 N 
HETATM   17  H7  UNL     1      25.134   7.512  52.006  1.00  0.00     0.314 HD
HETATM   18  H8  UNL     1      23.497   7.315  52.539  1.00  0.00     0.314 HD
ENDBRANCH  11  16
ENDBRANCH  10  11
ENDBRANCH   7   9
ENDBRANCH   1   7
BRANCH   3  19
HETATM   19  O2  UNL     1      27.152   0.382  53.557  1.00  0.00    -0.353 OA
HETATM   20  C10 UNL     1      27.961   1.450  53.094  1.00  0.00     0.210 C 
ENDBRANCH   3  19
BRANCH   5  21
HETATM   21  O4  UNL     1      22.747  -1.148  54.289  1.00  0.00    -0.353 OA
HETATM   22  C14 UNL     1      21.370  -1.042  54.453  1.00  0.00     0.210 C 
ENDBRANCH   5  21
BRANCH   4  23
HETATM   23  O3  UNL     1      25.401  -1.216  54.873  1.00  0.00    -0.351 OA
HETATM   24  C12 UNL     1      25.292  -0.802  56.218  1.00  0.00     0.210 C 
ENDBRANCH   4  23
TORSDOF 9
ENDMDL
