MODEL 1
REMARK VINA RESULT:      -7.6      0.000      0.000
REMARK  4 active torsions:
REMARK  status: ('A' for Active; 'I' for Inactive)
REMARK    1  A    between atoms: S1_2  and  C2_3 
REMARK    2  A    between atoms: C2_3  and  C3_4 
REMARK    3  A    between atoms: C7_8  and  C8_9 
REMARK    4  A    between atoms: C8_9  and  S2_10 
ROOT
HETATM    1  C3  UNL     1      23.305   2.269  50.160  1.00  0.00    -0.040 C 
HETATM    2  C4  UNL     1      23.798   1.534  51.195  1.00  0.00    -0.003 C 
HETATM    3  C5  UNL     1      24.191   1.823  52.548  1.00  0.00     0.017 C 
HETATM    4  C6  UNL     1      24.090   3.216  53.094  1.00  0.00    -0.003 C 
HETATM    5  C7  UNL     1      23.603   4.300  52.264  1.00  0.00    -0.040 C 
HETATM    6  C10 UNL     1      23.435   3.363  51.210  1.00  0.00    -0.011 C 
HETATM    7  O1  UNL     1      24.217   2.579  51.781  1.00  0.00     0.000 OA
HETATM    8  C11 UNL     1      25.723   2.704  51.470  1.00  0.00     0.420 C 
HETATM    9  O2  UNL     1      26.345   3.441  50.754  1.00  0.00    -0.254 OA
HETATM   10  N1  UNL     1      26.601   1.793  52.126  1.00  0.00     0.034 N 
HETATM   11  C12 UNL     1      27.480   0.903  52.764  1.00  0.00     0.138 A 
HETATM   12  C13 UNL     1      28.815   1.192  53.129  1.00  0.00     0.034 A 
HETATM   13  C14 UNL     1      29.670   0.317  53.644  1.00  0.00     0.002 A 
HETATM   14  C15 UNL     1      29.052  -0.868  53.743  1.00  0.00    -0.003 A 
HETATM   15  C16 UNL     1      27.783  -1.071  53.379  1.00  0.00    -0.007 A 
HETATM   16  C17 UNL     1      26.712  -0.493  52.877  1.00  0.00     0.077 A 
HETATM   17  C18 UNL     1      25.688   0.393  52.349  1.00  0.00     0.229 A 
HETATM   18  C19 UNL     1      25.043   1.040  53.381  1.00  0.00     0.044 C 
HETATM   19  H13 UNL     1      27.405   1.955  51.403  1.00  0.00     0.298 HD
ENDROOT
BRANCH   1  20
HETATM   20  C2  UNL     1      22.757   3.211  49.160  1.00  0.00     0.112 C 
BRANCH  20  21
HETATM   21  S1  UNL     1      21.386   2.315  48.311  1.00  0.00    -0.169 SA
HETATM   22  C1  UNL     1      20.341   1.364  49.343  1.00  0.00     0.090 C 
ENDBRANCH  20  21
ENDBRANCH   1  20
BRANCH   5  23
HETATM   23  C8  UNL     1      23.201   5.607  51.763  1.00  0.00     0.112 C 
BRANCH  23  24
HETATM   24  S2  UNL     1      24.506   6.303  50.645  1.00  0.00    -0.169 SA
HETATM   25  C9  UNL     1      24.141   8.089  50.540  1.00  0.00     0.090 C 
ENDBRANCH  23  24
ENDBRANCH   5  23
TORSDOF 4
ENDMDL
MODEL 2
REMARK VINA RESULT:      -7.0      2.674      6.148
REMARK  4 active torsions:
REMARK  status: ('A' for Active; 'I' for Inactive)
REMARK    1  A    between atoms: S1_2  and  C2_3 
REMARK    2  A    between atoms: C2_3  and  C3_4 
REMARK    3  A    between atoms: C7_8  and  C8_9 
REMARK    4  A    between atoms: C8_9  and  S2_10 
ROOT
HETATM    1  C3  UNL     1      23.598   0.828  52.284  1.00  0.00    -0.040 C 
HETATM    2  C4  UNL     1      23.846   1.670  51.243  1.00  0.00    -0.003 C 
HETATM    3  C5  UNL     1      24.988   2.423  50.796  1.00  0.00     0.017 C 
HETATM    4  C6  UNL     1      26.283   2.366  51.548  1.00  0.00    -0.003 C 
HETATM    5  C7  UNL     1      26.406   1.560  52.747  1.00  0.00    -0.040 C 
HETATM    6  C10 UNL     1      25.052   1.168  52.573  1.00  0.00    -0.011 C 
HETATM    7  O1  UNL     1      24.862   2.151  51.831  1.00  0.00     0.000 OA
HETATM    8  C11 UNL     1      24.426   3.478  52.485  1.00  0.00     0.420 C 
HETATM    9  O2  UNL     1      24.219   3.791  53.626  1.00  0.00    -0.254 OA
HETATM   10  N1  UNL     1      24.204   4.589  51.620  1.00  0.00     0.034 N 
HETATM   11  C12 UNL     1      23.982   5.693  50.782  1.00  0.00     0.138 A 
HETATM   12  C13 UNL     1      24.196   7.046  51.136  1.00  0.00     0.034 A 
HETATM   13  C14 UNL     1      23.893   8.089  50.374  1.00  0.00     0.002 A 
HETATM   14  C15 UNL     1      23.351   7.636  49.235  1.00  0.00    -0.003 A 
HETATM   15  C16 UNL     1      23.180   6.339  48.963  1.00  0.00    -0.007 A 
HETATM   16  C17 UNL     1      23.349   5.121  49.433  1.00  0.00     0.077 A 
HETATM   17  C18 UNL     1      23.679   3.911  50.169  1.00  0.00     0.229 A 
HETATM   18  C19 UNL     1      24.986   3.549  49.924  1.00  0.00     0.044 C 
HETATM   19  H13 UNL     1      23.604   5.123  52.362  1.00  0.00     0.298 HD
ENDROOT
BRANCH   1  20
HETATM   20  C2  UNL     1      23.515  -0.075  53.452  1.00  0.00     0.112 C 
BRANCH  20  21
HETATM   21  S1  UNL     1      21.754  -0.033  54.006  1.00  0.00    -0.169 SA
HETATM   22  C1  UNL     1      21.003  -1.590  54.278  1.00  0.00     0.090 C 
ENDBRANCH  20  21
ENDBRANCH   1  20
BRANCH   5  23
HETATM   23  C8  UNL     1      26.903   0.913  53.953  1.00  0.00     0.112 C 
BRANCH  23  24
HETATM   24  S2  UNL     1      28.755   0.980  54.010  1.00  0.00    -0.169 SA
HETATM   25  C9  UNL     1      29.302  -0.748  53.795  1.00  0.00     0.090 C 
ENDBRANCH  23  24
ENDBRANCH   5  23
TORSDOF 4
ENDMDL
MODEL 3
REMARK VINA RESULT:      -6.9      1.716      2.517
REMARK  4 active torsions:
REMARK  status: ('A' for Active; 'I' for Inactive)
REMARK    1  A    between atoms: S1_2  and  C2_3 
REMARK    2  A    between atoms: C2_3  and  C3_4 
REMARK    3  A    between atoms: C7_8  and  C8_9 
REMARK    4  A    between atoms: C8_9  and  S2_10 
ROOT
HETATM    1  C3  UNL     1      21.207   4.060  50.420  1.00  0.00    -0.040 C 
HETATM    2  C4  UNL     1      21.855   3.511  51.485  1.00  0.00    -0.003 C 
HETATM    3  C5  UNL     1      23.029   3.850  52.244  1.00  0.00     0.017 C 
HETATM    4  C6  UNL     1      23.834   5.069  51.904  1.00  0.00    -0.003 C 
HETATM    5  C7  UNL     1      23.450   5.921  50.796  1.00  0.00    -0.040 C 
HETATM    6  C10 UNL     1      22.345   5.058  50.568  1.00  0.00    -0.011 C 
HETATM    7  O1  UNL     1      22.912   4.159  51.219  1.00  0.00     0.000 OA
HETATM    8  C11 UNL     1      23.856   3.203  50.461  1.00  0.00     0.420 C 
HETATM    9  O2  UNL     1      24.186   3.133  49.308  1.00  0.00    -0.254 OA
HETATM   10  N1  UNL     1      24.489   2.175  51.220  1.00  0.00     0.034 N 
HETATM   11  C12 UNL     1      25.119   1.158  51.953  1.00  0.00     0.138 A 
HETATM   12  C13 UNL     1      26.396   0.619  51.672  1.00  0.00     0.034 A 
HETATM   13  C14 UNL     1      26.946  -0.408  52.309  1.00  0.00     0.002 A 
HETATM   14  C15 UNL     1      26.084  -0.837  53.241  1.00  0.00    -0.003 A 
HETATM   15  C16 UNL     1      24.889  -0.277  53.455  1.00  0.00    -0.007 A 
HETATM   16  C17 UNL     1      24.074   0.677  53.059  1.00  0.00     0.077 A 
HETATM   17  C18 UNL     1      23.400   1.816  52.456  1.00  0.00     0.229 A 
HETATM   18  C19 UNL     1      23.796   2.982  53.074  1.00  0.00     0.044 C 
HETATM   19  H13 UNL     1      24.711   1.575  50.333  1.00  0.00     0.298 HD
ENDROOT
BRANCH   1  20
HETATM   20  C2  UNL     1      20.625   4.801  49.281  1.00  0.00     0.112 C 
BRANCH  20  21
HETATM   21  S1  UNL     1      20.611   3.626  47.859  1.00  0.00    -0.169 SA
HETATM   22  C1  UNL     1      20.969   1.957  48.245  1.00  0.00     0.090 C 
ENDBRANCH  20  21
ENDBRANCH   1  20
BRANCH   5  23
HETATM   23  C8  UNL     1      23.405   6.973  49.791  1.00  0.00     0.112 C 
BRANCH  23  24
HETATM   24  S2  UNL     1      24.589   6.604  48.412  1.00  0.00    -0.169 SA
HETATM   25  C9  UNL     1      26.160   6.173  49.236  1.00  0.00     0.090 C 
ENDBRANCH  23  24
ENDBRANCH   5  23
TORSDOF 4
ENDMDL
MODEL 4
REMARK VINA RESULT:      -6.9      7.375      8.856
REMARK  4 active torsions:
REMARK  status: ('A' for Active; 'I' for Inactive)
REMARK    1  A    between atoms: S1_2  and  C2_3 
REMARK    2  A    between atoms: C2_3  and  C3_4 
REMARK    3  A    between atoms: C7_8  and  C8_9 
REMARK    4  A    between atoms: C8_9  and  S2_10 
ROOT
HETATM    1  C3  UNL     1      28.727   7.180  48.041  1.00  0.00    -0.040 C 
HETATM    2  C4  UNL     1      29.685   6.258  48.337  1.00  0.00    -0.003 C 
HETATM    3  C5  UNL     1      30.998   6.311  48.921  1.00  0.00     0.017 C 
HETATM    4  C6  UNL     1      31.588   7.617  49.361  1.00  0.00    -0.003 C 
HETATM    5  C7  UNL     1      30.850   8.853  49.195  1.00  0.00    -0.040 C 
HETATM    6  C10 UNL     1      29.789   8.096  48.632  1.00  0.00    -0.011 C 
HETATM    7  O1  UNL     1      30.577   7.158  48.406  1.00  0.00     0.000 OA
HETATM    8  C11 UNL     1      31.334   7.155  47.062  1.00  0.00     0.420 C 
HETATM    9  O2  UNL     1      31.330   7.909  46.127  1.00  0.00    -0.254 OA
HETATM   10  N1  UNL     1      32.224   6.069  46.817  1.00  0.00     0.034 N 
HETATM   11  C12 UNL     1      33.105   5.006  46.562  1.00  0.00     0.138 A 
HETATM   12  C13 UNL     1      34.286   5.091  45.788  1.00  0.00     0.034 A 
HETATM   13  C14 UNL     1      35.062   4.063  45.470  1.00  0.00     0.002 A 
HETATM   14  C15 UNL     1      34.529   2.952  45.997  1.00  0.00    -0.003 A 
HETATM   15  C16 UNL     1      33.407   2.945  46.723  1.00  0.00    -0.007 A 
HETATM   16  C17 UNL     1      32.449   3.704  47.211  1.00  0.00     0.077 A 
HETATM   17  C18 UNL     1      31.555   4.764  47.649  1.00  0.00     0.229 A 
HETATM   18  C19 UNL     1      32.026   5.330  48.814  1.00  0.00     0.044 C 
HETATM   19  H13 UNL     1      32.229   6.238  45.738  1.00  0.00     0.298 HD
ENDROOT
BRANCH   1  20
HETATM   20  C2  UNL     1      27.798   8.307  47.810  1.00  0.00     0.112 C 
BRANCH  20  21
HETATM   21  S1  UNL     1      26.967   8.623  49.427  1.00  0.00    -0.169 SA
HETATM   22  C1  UNL     1      25.921   7.347  50.011  1.00  0.00     0.090 C 
ENDBRANCH  20  21
ENDBRANCH   1  20
BRANCH   5  23
HETATM   23  C8  UNL     1      30.451  10.253  49.181  1.00  0.00     0.112 C 
BRANCH  23  24
HETATM   24  S2  UNL     1      31.250  11.142  47.763  1.00  0.00    -0.169 SA
HETATM   25  C9  UNL     1      29.976  11.201  46.458  1.00  0.00     0.090 C 
ENDBRANCH  23  24
ENDBRANCH   5  23
TORSDOF 4
ENDMDL
MODEL 5
REMARK VINA RESULT:      -6.8      3.059      4.933
REMARK  4 active torsions:
REMARK  status: ('A' for Active; 'I' for Inactive)
REMARK    1  A    between atoms: S1_2  and  C2_3 
REMARK    2  A    between atoms: C2_3  and  C3_4 
REMARK    3  A    between atoms: C7_8  and  C8_9 
REMARK    4  A    between atoms: C8_9  and  S2_10 
ROOT
HETATM    1  C3  UNL     1      23.921   5.234  51.256  1.00  0.00    -0.040 C 
HETATM    2  C4  UNL     1      24.068   3.882  51.337  1.00  0.00    -0.003 C 
HETATM    3  C5  UNL     1      23.455   2.754  50.688  1.00  0.00     0.017 C 
HETATM    4  C6  UNL     1      22.388   2.953  49.654  1.00  0.00    -0.003 C 
HETATM    5  C7  UNL     1      21.946   4.287  49.297  1.00  0.00    -0.040 C 
HETATM    6  C10 UNL     1      22.885   4.804  50.228  1.00  0.00    -0.011 C 
HETATM    7  O1  UNL     1      22.938   3.694  50.792  1.00  0.00     0.000 OA
HETATM    8  C11 UNL     1      21.928   3.408  51.923  1.00  0.00     0.420 C 
HETATM    9  O2  UNL     1      21.045   4.063  52.407  1.00  0.00    -0.254 OA
HETATM   10  N1  UNL     1      22.008   2.137  52.563  1.00  0.00     0.034 N 
HETATM   11  C12 UNL     1      22.075   0.889  53.203  1.00  0.00     0.138 A 
HETATM   12  C13 UNL     1      20.974   0.193  53.754  1.00  0.00     0.034 A 
HETATM   13  C14 UNL     1      21.056  -0.939  54.442  1.00  0.00     0.002 A 
HETATM   14  C15 UNL     1      22.347  -1.289  54.525  1.00  0.00    -0.003 A 
HETATM   15  C16 UNL     1      23.340  -0.583  53.977  1.00  0.00    -0.007 A 
HETATM   16  C17 UNL     1      23.620   0.496  53.276  1.00  0.00     0.077 A 
HETATM   17  C18 UNL     1      23.637   1.710  52.477  1.00  0.00     0.229 A 
HETATM   18  C19 UNL     1      23.435   1.406  51.148  1.00  0.00     0.044 C 
HETATM   19  H13 UNL     1      21.455   2.478  53.442  1.00  0.00     0.298 HD
ENDROOT
BRANCH   1  20
HETATM   20  C2  UNL     1      23.645   6.668  51.022  1.00  0.00     0.112 C 
BRANCH  20  21
HETATM   21  S1  UNL     1      25.198   7.380  50.323  1.00  0.00    -0.169 SA
HETATM   22  C1  UNL     1      26.126   6.317  49.287  1.00  0.00     0.090 C 
ENDBRANCH  20  21
ENDBRANCH   1  20
BRANCH   5  23
HETATM   23  C8  UNL     1      21.245   5.416  48.703  1.00  0.00     0.112 C 
BRANCH  23  24
HETATM   24  S2  UNL     1      19.631   5.707  49.568  1.00  0.00    -0.169 SA
HETATM   25  C9  UNL     1      18.775   4.095  49.537  1.00  0.00     0.090 C 
ENDBRANCH  23  24
ENDBRANCH   5  23
TORSDOF 4
ENDMDL
MODEL 6
REMARK VINA RESULT:      -6.7      2.727      6.438
REMARK  4 active torsions:
REMARK  status: ('A' for Active; 'I' for Inactive)
REMARK    1  A    between atoms: S1_2  and  C2_3 
REMARK    2  A    between atoms: C2_3  and  C3_4 
REMARK    3  A    between atoms: C7_8  and  C8_9 
REMARK    4  A    between atoms: C8_9  and  S2_10 
ROOT
HETATM    1  C3  UNL     1      24.219   1.687  52.861  1.00  0.00    -0.040 C 
HETATM    2  C4  UNL     1      23.231   1.023  52.200  1.00  0.00    -0.003 C 
HETATM    3  C5  UNL     1      22.594   1.167  50.918  1.00  0.00     0.017 C 
HETATM    4  C6  UNL     1      23.008   2.257  49.975  1.00  0.00    -0.003 C 
HETATM    5  C7  UNL     1      24.052   3.193  50.343  1.00  0.00    -0.040 C 
HETATM    6  C10 UNL     1      24.180   2.503  51.577  1.00  0.00    -0.011 C 
HETATM    7  O1  UNL     1      23.049   2.006  51.418  1.00  0.00     0.000 OA
HETATM    8  C11 UNL     1      21.832   2.792  51.949  1.00  0.00     0.420 C 
HETATM    9  O2  UNL     1      21.731   3.846  52.516  1.00  0.00    -0.254 OA
HETATM   10  N1  UNL     1      20.546   2.204  51.766  1.00  0.00     0.034 N 
HETATM   11  C12 UNL     1      19.273   1.639  51.593  1.00  0.00     0.138 A 
HETATM   12  C13 UNL     1      18.073   2.365  51.410  1.00  0.00     0.034 A 
HETATM   13  C14 UNL     1      16.862   1.829  51.344  1.00  0.00     0.002 A 
HETATM   14  C15 UNL     1      16.979   0.501  51.488  1.00  0.00    -0.003 A 
HETATM   15  C16 UNL     1      18.149  -0.122  51.656  1.00  0.00    -0.007 A 
HETATM   16  C17 UNL     1      19.448   0.061  51.759  1.00  0.00     0.077 A 
HETATM   17  C18 UNL     1      20.820   0.541  51.803  1.00  0.00     0.229 A 
HETATM   18  C19 UNL     1      21.327   0.647  50.526  1.00  0.00     0.044 C 
HETATM   19  H13 UNL     1      20.088   2.821  52.543  1.00  0.00     0.298 HD
ENDROOT
BRANCH   1  20
HETATM   20  C2  UNL     1      25.317   2.506  53.419  1.00  0.00     0.112 C 
BRANCH  20  21
HETATM   21  S1  UNL     1      26.872   1.860  52.663  1.00  0.00    -0.169 SA
HETATM   22  C1  UNL     1      28.356   2.299  53.480  1.00  0.00     0.090 C 
ENDBRANCH  20  21
ENDBRANCH   1  20
BRANCH   5  23
HETATM   23  C8  UNL     1      25.003   4.295  50.351  1.00  0.00     0.112 C 
BRANCH  23  24
HETATM   24  S2  UNL     1      24.155   5.881  50.801  1.00  0.00    -0.169 SA
HETATM   25  C9  UNL     1      22.654   5.931  49.763  1.00  0.00     0.090 C 
ENDBRANCH  23  24
ENDBRANCH   5  23
TORSDOF 4
ENDMDL
MODEL 7
REMARK VINA RESULT:      -6.7      7.779     10.184
REMARK  4 active torsions:
REMARK  status: ('A' for Active; 'I' for Inactive)
REMARK    1  A    between atoms: S1_2  and  C2_3 
REMARK    2  A    between atoms: C2_3  and  C3_4 
REMARK    3  A    between atoms: C7_8  and  C8_9 
REMARK    4  A    between atoms: C8_9  and  S2_10 
ROOT
HETATM    1  C3  UNL     1      32.708   6.847  45.924  1.00  0.00    -0.040 C 
HETATM    2  C4  UNL     1      31.712   7.267  46.752  1.00  0.00    -0.003 C 
HETATM    3  C5  UNL     1      31.436   7.131  48.158  1.00  0.00     0.017 C 
HETATM    4  C6  UNL     1      32.375   6.380  49.053  1.00  0.00    -0.003 C 
HETATM    5  C7  UNL     1      33.573   5.766  48.516  1.00  0.00    -0.040 C 
HETATM    6  C10 UNL     1      33.208   6.266  47.238  1.00  0.00    -0.011 C 
HETATM    7  O1  UNL     1      32.033   6.408  47.629  1.00  0.00     0.000 OA
HETATM    8  C11 UNL     1      31.069   5.214  47.472  1.00  0.00     0.420 C 
HETATM    9  O2  UNL     1      31.213   4.106  47.030  1.00  0.00    -0.254 OA
HETATM   10  N1  UNL     1      29.727   5.397  47.916  1.00  0.00     0.034 N 
HETATM   11  C12 UNL     1      28.401   5.562  48.349  1.00  0.00     0.138 A 
HETATM   12  C13 UNL     1      27.579   4.539  48.873  1.00  0.00     0.034 A 
HETATM   13  C14 UNL     1      26.298   4.679  49.190  1.00  0.00     0.002 A 
HETATM   14  C15 UNL     1      25.932   5.939  48.919  1.00  0.00    -0.003 A 
HETATM   15  C16 UNL     1      26.765   6.860  48.425  1.00  0.00    -0.007 A 
HETATM   16  C17 UNL     1      28.000   7.073  48.024  1.00  0.00     0.077 A 
HETATM   17  C18 UNL     1      29.413   7.038  47.685  1.00  0.00     0.229 A 
HETATM   18  C19 UNL     1      30.176   7.289  48.805  1.00  0.00     0.044 C 
HETATM   19  H13 UNL     1      29.353   4.558  47.324  1.00  0.00     0.298 HD
ENDROOT
BRANCH   1  20
HETATM   20  C2  UNL     1      33.878   6.332  45.182  1.00  0.00     0.112 C 
BRANCH  20  21
HETATM   21  S1  UNL     1      33.865   7.188  43.547  1.00  0.00    -0.169 SA
HETATM   22  C1  UNL     1      35.208   8.269  43.242  1.00  0.00     0.090 C 
ENDBRANCH  20  21
ENDBRANCH   1  20
BRANCH   5  23
HETATM   23  C8  UNL     1      34.816   5.023  48.362  1.00  0.00     0.112 C 
BRANCH  23  24
HETATM   24  S2  UNL     1      34.561   3.554  47.259  1.00  0.00    -0.169 SA
HETATM   25  C9  UNL     1      33.717   2.315  48.301  1.00  0.00     0.090 C 
ENDBRANCH  23  24
ENDBRANCH   5  23
TORSDOF 4
ENDMDL
MODEL 8
REMARK VINA RESULT:      -6.6      2.210      4.531
REMARK  4 active torsions:
REMARK  status: ('A' for Active; 'I' for Inactive)
REMARK    1  A    between atoms: S1_2  and  C2_3 
REMARK    2  A    between atoms: C2_3  and  C3_4 
REMARK    3  A    between atoms: C7_8  and  C8_9 
REMARK    4  A    between atoms: C8_9  and  S2_10 
ROOT
HETATM    1  C3  UNL     1      25.026   6.714  50.378  1.00  0.00    -0.040 C 
HETATM    2  C4  UNL     1      25.412   5.433  50.122  1.00  0.00    -0.003 C 
HETATM    3  C5  UNL     1      24.764   4.267  49.583  1.00  0.00     0.017 C 
HETATM    4  C6  UNL     1      23.328   4.318  49.156  1.00  0.00    -0.003 C 
HETATM    5  C7  UNL     1      22.562   5.542  49.288  1.00  0.00    -0.040 C 
HETATM    6  C10 UNL     1      23.723   6.163  49.819  1.00  0.00    -0.011 C 
HETATM    7  O1  UNL     1      24.205   5.044  50.078  1.00  0.00     0.000 OA
HETATM    8  C11 UNL     1      23.878   4.414  51.448  1.00  0.00     0.420 C 
HETATM    9  O2  UNL     1      23.216   4.790  52.377  1.00  0.00    -0.254 OA
HETATM   10  N1  UNL     1      24.445   3.137  51.730  1.00  0.00     0.034 N 
HETATM   11  C12 UNL     1      24.997   1.880  52.023  1.00  0.00     0.138 A 
HETATM   12  C13 UNL     1      24.394   0.892  52.837  1.00  0.00     0.034 A 
HETATM   13  C14 UNL     1      24.962  -0.254  53.188  1.00  0.00     0.002 A 
HETATM   14  C15 UNL     1      26.189  -0.300  52.650  1.00  0.00    -0.003 A 
HETATM   15  C16 UNL     1      26.696   0.671  51.886  1.00  0.00    -0.007 A 
HETATM   16  C17 UNL     1      26.449   1.852  51.360  1.00  0.00     0.077 A 
HETATM   17  C18 UNL     1      25.904   3.114  50.884  1.00  0.00     0.229 A 
HETATM   18  C19 UNL     1      25.174   2.911  49.733  1.00  0.00     0.044 C 
HETATM   19  H13 UNL     1      24.303   3.246  52.808  1.00  0.00     0.298 HD
ENDROOT
BRANCH   1  20
HETATM   20  C2  UNL     1      24.445   8.060  50.569  1.00  0.00     0.112 C 
BRANCH  20  21
HETATM   21  S1  UNL     1      25.635   9.245  49.803  1.00  0.00    -0.169 SA
HETATM   22  C1  UNL     1      27.257   8.639  49.549  1.00  0.00     0.090 C 
ENDBRANCH  20  21
ENDBRANCH   1  20
BRANCH   5  23
HETATM   23  C8  UNL     1      21.494   6.531  49.279  1.00  0.00     0.112 C 
BRANCH  23  24
HETATM   24  S2  UNL     1      19.842   5.706  49.438  1.00  0.00    -0.169 SA
HETATM   25  C9  UNL     1      20.017   4.554  50.843  1.00  0.00     0.090 C 
ENDBRANCH  23  24
ENDBRANCH   5  23
TORSDOF 4
ENDMDL
MODEL 9
REMARK VINA RESULT:      -6.4      6.678      9.217
REMARK  4 active torsions:
REMARK  status: ('A' for Active; 'I' for Inactive)
REMARK    1  A    between atoms: S1_2  and  C2_3 
REMARK    2  A    between atoms: C2_3  and  C3_4 
REMARK    3  A    between atoms: C7_8  and  C8_9 
REMARK    4  A    between atoms: C8_9  and  S2_10 
ROOT
HETATM    1  C3  UNL     1      30.705   7.689  45.999  1.00  0.00    -0.040 C 
HETATM    2  C4  UNL     1      29.584   7.832  46.759  1.00  0.00    -0.003 C 
HETATM    3  C5  UNL     1      29.319   7.907  48.171  1.00  0.00     0.017 C 
HETATM    4  C6  UNL     1      30.438   7.826  49.165  1.00  0.00    -0.003 C 
HETATM    5  C7  UNL     1      31.808   7.660  48.722  1.00  0.00    -0.040 C 
HETATM    6  C10 UNL     1      31.334   7.670  47.384  1.00  0.00    -0.011 C 
HETATM    7  O1  UNL     1      30.187   7.397  47.787  1.00  0.00     0.000 OA
HETATM    8  C11 UNL     1      29.808   5.910  47.943  1.00  0.00     0.420 C 
HETATM    9  O2  UNL     1      30.418   4.893  47.750  1.00  0.00    -0.254 OA
HETATM   10  N1  UNL     1      28.490   5.616  48.397  1.00  0.00     0.034 N 
HETATM   11  C12 UNL     1      27.194   5.311  48.844  1.00  0.00     0.138 A 
HETATM   12  C13 UNL     1      26.841   4.182  49.618  1.00  0.00     0.034 A 
HETATM   13  C14 UNL     1      25.602   3.848  49.956  1.00  0.00     0.002 A 
HETATM   14  C15 UNL     1      24.763   4.752  49.431  1.00  0.00    -0.003 A 
HETATM   15  C16 UNL     1      25.167   5.800  48.707  1.00  0.00    -0.007 A 
HETATM   16  C17 UNL     1      26.223   6.410  48.212  1.00  0.00     0.077 A 
HETATM   17  C18 UNL     1      27.541   6.887  47.824  1.00  0.00     0.229 A 
HETATM   18  C19 UNL     1      28.075   7.670  48.825  1.00  0.00     0.044 C 
HETATM   19  H13 UNL     1      28.524   4.590  48.022  1.00  0.00     0.298 HD
ENDROOT
BRANCH   1  20
HETATM   20  C2  UNL     1      32.019   7.552  45.335  1.00  0.00     0.112 C 
BRANCH  20  21
HETATM   21  S1  UNL     1      32.617   9.271  45.025  1.00  0.00    -0.169 SA
HETATM   22  C1  UNL     1      31.376  10.498  44.894  1.00  0.00     0.090 C 
ENDBRANCH  20  21
ENDBRANCH   1  20
BRANCH   5  23
HETATM   23  C8  UNL     1      33.252   7.481  48.679  1.00  0.00     0.112 C 
BRANCH  23  24
HETATM   24  S2  UNL     1      33.678   5.687  48.481  1.00  0.00    -0.169 SA
HETATM   25  C9  UNL     1      35.375   5.525  49.136  1.00  0.00     0.090 C 
ENDBRANCH  23  24
ENDBRANCH   5  23
TORSDOF 4
ENDMDL
