MODEL 1
REMARK VINA RESULT:      -7.5      0.000      0.000
REMARK  7 active torsions:
REMARK  status: ('A' for Active; 'I' for Inactive)
REMARK    1  A    between atoms: C3_3  and  C4_5 
REMARK    2  A    between atoms: C4_5  and  C5_6 
REMARK    3  A    between atoms: C5_6  and  C6_7 
REMARK    4  A    between atoms: C6_7  and  S1_8 
REMARK    5  A    between atoms: S1_8  and  N1_11 
REMARK       I    between atoms: N1_11  and  C7_12 
REMARK    6  A    between atoms: C7_12  and  C8_14 
REMARK    7  A    between atoms: C8_14  and  C9_15 
ROOT
HETATM    1  N1  UNL     1      25.542   2.854  53.100  1.00  0.00    -0.251 N 
HETATM    2  C7  UNL     1      26.769   2.503  52.525  1.00  0.00     0.235 C 
HETATM    3  O3  UNL     1      27.108   2.328  51.319  1.00  0.00    -0.272 OA
HETATM    4  H7  UNL     1      25.474   2.947  54.127  1.00  0.00     0.181 HD
ENDROOT
BRANCH   1   5
HETATM    5  S1  UNL     1      24.207   3.112  52.033  1.00  0.00     0.256 S 
HETATM    6  O1  UNL     1      23.187   3.967  52.741  1.00  0.00    -0.201 OA
HETATM    7  O2  UNL     1      24.688   3.972  50.908  1.00  0.00    -0.201 OA
BRANCH   5   8
HETATM    8  C6  UNL     1      23.536   1.618  51.593  1.00  0.00     0.144 C 
BRANCH   8   9
HETATM    9  C5  UNL     1      23.448   0.599  52.441  1.00  0.00    -0.011 C 
BRANCH   9  10
HETATM   10  C4  UNL     1      23.822  -0.339  53.311  1.00  0.00     0.036 C 
BRANCH  10  11
HETATM   11  C3  UNL     1      22.896  -0.795  54.324  1.00  0.00     0.030 C 
HETATM   12  C2  UNL     1      21.582  -0.878  54.462  1.00  0.00    -0.007 C 
HETATM   13  C1  UNL     1      20.297  -0.598  53.760  1.00  0.00     0.038 C 
HETATM   14 CL1  UNL     1      24.150  -1.270  55.478  1.00  0.00    -0.085 Cl
ENDBRANCH  10  11
ENDBRANCH   9  10
ENDBRANCH   8   9
ENDBRANCH   5   8
ENDBRANCH   1   5
BRANCH   2  15
HETATM   15  C8  UNL     1      27.980   2.260  53.377  1.00  0.00     0.142 C 
BRANCH  15  16
HETATM   16  C9  UNL     1      28.340   0.829  53.374  1.00  0.00    -0.049 A 
HETATM   17  C10 UNL     1      29.618   0.368  53.643  1.00  0.00     0.011 A 
HETATM   18  C11 UNL     1      29.958  -0.977  53.641  1.00  0.00     0.043 A 
HETATM   19  C12 UNL     1      28.927  -1.851  53.349  1.00  0.00     0.116 A 
HETATM   20  F1  UNL     1      29.175  -3.195  53.325  1.00  0.00    -0.206 F 
HETATM   21  C13 UNL     1      27.633  -1.473  53.071  1.00  0.00     0.043 A 
HETATM   22  C14 UNL     1      27.371  -0.110  53.093  1.00  0.00     0.011 A 
ENDBRANCH  15  16
ENDBRANCH   2  15
TORSDOF 7
ENDMDL
MODEL 2
REMARK VINA RESULT:      -7.4      3.598      5.712
REMARK  7 active torsions:
REMARK  status: ('A' for Active; 'I' for Inactive)
REMARK    1  A    between atoms: C3_3  and  C4_5 
REMARK    2  A    between atoms: C4_5  and  C5_6 
REMARK    3  A    between atoms: C5_6  and  C6_7 
REMARK    4  A    between atoms: C6_7  and  S1_8 
REMARK    5  A    between atoms: S1_8  and  N1_11 
REMARK       I    between atoms: N1_11  and  C7_12 
REMARK    6  A    between atoms: C7_12  and  C8_14 
REMARK    7  A    between atoms: C8_14  and  C9_15 
ROOT
HETATM    1  N1  UNL     1      26.433   0.864  54.657  1.00  0.00    -0.251 N 
HETATM    2  C7  UNL     1      25.965  -0.440  54.456  1.00  0.00     0.235 C 
HETATM    3  O3  UNL     1      26.358  -1.359  53.681  1.00  0.00    -0.272 OA
HETATM    4  H7  UNL     1      25.962   1.467  55.351  1.00  0.00     0.181 HD
ENDROOT
BRANCH   1   5
HETATM    5  S1  UNL     1      27.787   1.378  53.715  1.00  0.00     0.256 S 
HETATM    6  O1  UNL     1      28.252   2.714  54.234  1.00  0.00    -0.201 OA
HETATM    7  O2  UNL     1      28.923   0.453  54.013  1.00  0.00    -0.201 OA
BRANCH   5   8
HETATM    8  C6  UNL     1      27.332   1.494  52.084  1.00  0.00     0.144 C 
BRANCH   8   9
HETATM    9  C5  UNL     1      26.348   2.288  51.674  1.00  0.00    -0.011 C 
BRANCH   9  10
HETATM   10  C4  UNL     1      25.595   3.026  50.860  1.00  0.00     0.036 C 
BRANCH  10  11
HETATM   11  C3  UNL     1      24.156   3.008  50.994  1.00  0.00     0.030 C 
HETATM   12  C2  UNL     1      23.115   2.808  50.200  1.00  0.00    -0.007 C 
HETATM   13  C1  UNL     1      22.744   2.498  48.789  1.00  0.00     0.038 C 
HETATM   14 CL1  UNL     1      24.155   3.375  52.725  1.00  0.00    -0.085 Cl
ENDBRANCH  10  11
ENDBRANCH   9  10
ENDBRANCH   8   9
ENDBRANCH   5   8
ENDBRANCH   1   5
BRANCH   2  15
HETATM   15  C8  UNL     1      24.794  -0.969  55.231  1.00  0.00     0.142 C 
BRANCH  15  16
HETATM   16  C9  UNL     1      23.540  -0.778  54.477  1.00  0.00    -0.049 A 
HETATM   17  C10 UNL     1      23.474  -0.091  53.277  1.00  0.00     0.011 A 
HETATM   18  C11 UNL     1      22.297   0.090  52.567  1.00  0.00     0.043 A 
HETATM   19  C12 UNL     1      21.167  -0.467  53.137  1.00  0.00     0.116 A 
HETATM   20  F1  UNL     1      19.963  -0.336  52.502  1.00  0.00    -0.206 F 
HETATM   21  C13 UNL     1      21.149  -1.165  54.324  1.00  0.00     0.043 A 
HETATM   22  C14 UNL     1      22.366  -1.302  54.975  1.00  0.00     0.011 A 
ENDBRANCH  15  16
ENDBRANCH   2  15
TORSDOF 7
ENDMDL
MODEL 3
REMARK VINA RESULT:      -7.0      3.303      5.316
REMARK  7 active torsions:
REMARK  status: ('A' for Active; 'I' for Inactive)
REMARK    1  A    between atoms: C3_3  and  C4_5 
REMARK    2  A    between atoms: C4_5  and  C5_6 
REMARK    3  A    between atoms: C5_6  and  C6_7 
REMARK    4  A    between atoms: C6_7  and  S1_8 
REMARK    5  A    between atoms: S1_8  and  N1_11 
REMARK       I    between atoms: N1_11  and  C7_12 
REMARK    6  A    between atoms: C7_12  and  C8_14 
REMARK    7  A    between atoms: C8_14  and  C9_15 
ROOT
HETATM    1  N1  UNL     1      24.168   1.613  52.921  1.00  0.00    -0.251 N 
HETATM    2  C7  UNL     1      23.626   0.356  53.213  1.00  0.00     0.235 C 
HETATM    3  O3  UNL     1      22.585  -0.225  52.790  1.00  0.00    -0.272 OA
HETATM    4  H7  UNL     1      25.045   1.905  53.383  1.00  0.00     0.181 HD
ENDROOT
BRANCH   1   5
HETATM    5  S1  UNL     1      23.317   2.603  51.789  1.00  0.00     0.256 S 
HETATM    6  O1  UNL     1      23.133   1.823  50.513  1.00  0.00    -0.201 OA
HETATM    7  O2  UNL     1      21.927   2.790  52.308  1.00  0.00    -0.201 OA
BRANCH   5   8
HETATM    8  C6  UNL     1      24.200   4.023  51.501  1.00  0.00     0.144 C 
BRANCH   8   9
HETATM    9  C5  UNL     1      24.860   4.233  50.368  1.00  0.00    -0.011 C 
BRANCH   9  10
HETATM   10  C4  UNL     1      25.468   4.886  49.378  1.00  0.00     0.036 C 
BRANCH  10  11
HETATM   11  C3  UNL     1      26.831   4.556  49.026  1.00  0.00     0.030 C 
HETATM   12  C2  UNL     1      27.883   5.195  48.538  1.00  0.00    -0.007 C 
HETATM   13  C1  UNL     1      28.343   6.534  48.069  1.00  0.00     0.038 C 
HETATM   14 CL1  UNL     1      26.700   2.850  49.477  1.00  0.00    -0.085 Cl
ENDBRANCH  10  11
ENDBRANCH   9  10
ENDBRANCH   8   9
ENDBRANCH   5   8
ENDBRANCH   1   5
BRANCH   2  15
HETATM   15  C8  UNL     1      24.299  -0.569  54.184  1.00  0.00     0.142 C 
BRANCH  15  16
HETATM   16  C9  UNL     1      25.766  -0.497  54.041  1.00  0.00    -0.049 A 
HETATM   17  C10 UNL     1      26.583   0.179  54.932  1.00  0.00     0.011 A 
HETATM   18  C11 UNL     1      27.962   0.248  54.799  1.00  0.00     0.043 A 
HETATM   19  C12 UNL     1      28.487  -0.411  53.702  1.00  0.00     0.116 A 
HETATM   20  F1  UNL     1      29.839  -0.393  53.495  1.00  0.00    -0.206 F 
HETATM   21  C13 UNL     1      27.744  -1.104  52.773  1.00  0.00     0.043 A 
HETATM   22  C14 UNL     1      26.372  -1.127  52.975  1.00  0.00     0.011 A 
ENDBRANCH  15  16
ENDBRANCH   2  15
TORSDOF 7
ENDMDL
MODEL 4
REMARK VINA RESULT:      -6.9      4.187      6.207
REMARK  7 active torsions:
REMARK  status: ('A' for Active; 'I' for Inactive)
REMARK    1  A    between atoms: C3_3  and  C4_5 
REMARK    2  A    between atoms: C4_5  and  C5_6 
REMARK    3  A    between atoms: C5_6  and  C6_7 
REMARK    4  A    between atoms: C6_7  and  S1_8 
REMARK    5  A    between atoms: S1_8  and  N1_11 
REMARK       I    between atoms: N1_11  and  C7_12 
REMARK    6  A    between atoms: C7_12  and  C8_14 
REMARK    7  A    between atoms: C8_14  and  C9_15 
ROOT
HETATM    1  N1  UNL     1      24.958   2.153  51.271  1.00  0.00    -0.251 N 
HETATM    2  C7  UNL     1      26.255   2.538  50.916  1.00  0.00     0.235 C 
HETATM    3  O3  UNL     1      27.295   2.719  51.613  1.00  0.00    -0.272 OA
HETATM    4  H7  UNL     1      24.238   2.061  50.535  1.00  0.00     0.181 HD
ENDROOT
BRANCH   1   5
HETATM    5  S1  UNL     1      24.647   1.853  52.944  1.00  0.00     0.256 S 
HETATM    6  O1  UNL     1      25.543   2.743  53.765  1.00  0.00    -0.201 OA
HETATM    7  O2  UNL     1      23.267   2.346  53.243  1.00  0.00    -0.201 OA
BRANCH   5   8
HETATM    8  C6  UNL     1      24.943   0.218  53.292  1.00  0.00     0.144 C 
BRANCH   8   9
HETATM    9  C5  UNL     1      25.890  -0.480  52.675  1.00  0.00    -0.011 C 
BRANCH   9  10
HETATM   10  C4  UNL     1      27.097  -0.829  52.231  1.00  0.00     0.036 C 
BRANCH  10  11
HETATM   11  C3  UNL     1      28.193  -0.980  53.161  1.00  0.00     0.030 C 
HETATM   12  C2  UNL     1      28.907  -0.189  53.947  1.00  0.00    -0.007 C 
HETATM   13  C1  UNL     1      29.060   1.232  54.373  1.00  0.00     0.038 C 
HETATM   14 CL1  UNL     1      28.349  -2.728  52.937  1.00  0.00    -0.085 Cl
ENDBRANCH  10  11
ENDBRANCH   9  10
ENDBRANCH   8   9
ENDBRANCH   5   8
ENDBRANCH   1   5
BRANCH   2  15
HETATM   15  C8  UNL     1      26.613   2.819  49.485  1.00  0.00     0.142 C 
BRANCH  15  16
HETATM   16  C9  UNL     1      26.728   4.271  49.252  1.00  0.00    -0.049 A 
HETATM   17  C10 UNL     1      27.804   4.853  48.605  1.00  0.00     0.011 A 
HETATM   18  C11 UNL     1      27.913   6.219  48.385  1.00  0.00     0.043 A 
HETATM   19  C12 UNL     1      26.863   6.983  48.860  1.00  0.00     0.116 A 
HETATM   20  F1  UNL     1      26.890   8.339  48.686  1.00  0.00    -0.206 F 
HETATM   21  C13 UNL     1      25.759   6.482  49.513  1.00  0.00     0.043 A 
HETATM   22  C14 UNL     1      25.724   5.107  49.694  1.00  0.00     0.011 A 
ENDBRANCH  15  16
ENDBRANCH   2  15
TORSDOF 7
ENDMDL
MODEL 5
REMARK VINA RESULT:      -6.8      3.199      4.064
REMARK  7 active torsions:
REMARK  status: ('A' for Active; 'I' for Inactive)
REMARK    1  A    between atoms: C3_3  and  C4_5 
REMARK    2  A    between atoms: C4_5  and  C5_6 
REMARK    3  A    between atoms: C5_6  and  C6_7 
REMARK    4  A    between atoms: C6_7  and  S1_8 
REMARK    5  A    between atoms: S1_8  and  N1_11 
REMARK       I    between atoms: N1_11  and  C7_12 
REMARK    6  A    between atoms: C7_12  and  C8_14 
REMARK    7  A    between atoms: C8_14  and  C9_15 
ROOT
HETATM    1  N1  UNL     1      23.506  -0.893  53.144  1.00  0.00    -0.251 N 
HETATM    2  C7  UNL     1      24.484   0.098  53.290  1.00  0.00     0.235 C 
HETATM    3  O3  UNL     1      24.698   0.931  54.216  1.00  0.00    -0.272 OA
HETATM    4  H7  UNL     1      23.505  -1.480  52.294  1.00  0.00     0.181 HD
ENDROOT
BRANCH   1   5
HETATM    5  S1  UNL     1      22.353  -1.066  54.419  1.00  0.00     0.256 S 
HETATM    6  O1  UNL     1      21.537  -2.307  54.161  1.00  0.00    -0.201 OA
HETATM    7  O2  UNL     1      23.107  -1.377  55.672  1.00  0.00    -0.201 OA
BRANCH   5   8
HETATM    8  C6  UNL     1      21.356   0.306  54.472  1.00  0.00     0.144 C 
BRANCH   8   9
HETATM    9  C5  UNL     1      20.870   0.876  53.375  1.00  0.00    -0.011 C 
BRANCH   9  10
HETATM   10  C4  UNL     1      20.666   1.126  52.082  1.00  0.00     0.036 C 
BRANCH  10  11
HETATM   11  C3  UNL     1      21.728   1.686  51.278  1.00  0.00     0.030 C 
HETATM   12  C2  UNL     1      22.661   2.615  51.423  1.00  0.00    -0.007 C 
HETATM   13  C1  UNL     1      23.203   3.607  52.395  1.00  0.00     0.038 C 
HETATM   14 CL1  UNL     1      21.407   0.670  49.865  1.00  0.00    -0.085 Cl
ENDBRANCH  10  11
ENDBRANCH   9  10
ENDBRANCH   8   9
ENDBRANCH   5   8
ENDBRANCH   1   5
BRANCH   2  15
HETATM   15  C8  UNL     1      25.525   0.317  52.231  1.00  0.00     0.142 C 
BRANCH  15  16
HETATM   16  C9  UNL     1      26.856  -0.096  52.715  1.00  0.00    -0.049 A 
HETATM   17  C10 UNL     1      27.817   0.801  53.149  1.00  0.00     0.011 A 
HETATM   18  C11 UNL     1      29.069   0.414  53.605  1.00  0.00     0.043 A 
HETATM   19  C12 UNL     1      29.309  -0.948  53.602  1.00  0.00     0.116 A 
HETATM   20  F1  UNL     1      30.518  -1.417  54.035  1.00  0.00    -0.206 F 
HETATM   21  C13 UNL     1      28.407  -1.903  53.187  1.00  0.00     0.043 A 
HETATM   22  C14 UNL     1      27.177  -1.436  52.745  1.00  0.00     0.011 A 
ENDBRANCH  15  16
ENDBRANCH   2  15
TORSDOF 7
ENDMDL
MODEL 6
REMARK VINA RESULT:      -6.8      1.733      1.944
REMARK  7 active torsions:
REMARK  status: ('A' for Active; 'I' for Inactive)
REMARK    1  A    between atoms: C3_3  and  C4_5 
REMARK    2  A    between atoms: C4_5  and  C5_6 
REMARK    3  A    between atoms: C5_6  and  C6_7 
REMARK    4  A    between atoms: C6_7  and  S1_8 
REMARK    5  A    between atoms: S1_8  and  N1_11 
REMARK       I    between atoms: N1_11  and  C7_12 
REMARK    6  A    between atoms: C7_12  and  C8_14 
REMARK    7  A    between atoms: C8_14  and  C9_15 
ROOT
HETATM    1  N1  UNL     1      26.148   2.849  51.900  1.00  0.00    -0.251 N 
HETATM    2  C7  UNL     1      26.620   2.456  53.157  1.00  0.00     0.235 C 
HETATM    3  O3  UNL     1      26.012   2.195  54.235  1.00  0.00    -0.272 OA
HETATM    4  H7  UNL     1      26.824   3.016  51.136  1.00  0.00     0.181 HD
ENDROOT
BRANCH   1   5
HETATM    5  S1  UNL     1      24.440   3.030  51.712  1.00  0.00     0.256 S 
HETATM    6  O1  UNL     1      23.892   3.708  52.941  1.00  0.00    -0.201 OA
HETATM    7  O2  UNL     1      24.208   4.019  50.615  1.00  0.00    -0.201 OA
BRANCH   5   8
HETATM    8  C6  UNL     1      23.727   1.504  51.501  1.00  0.00     0.144 C 
BRANCH   8   9
HETATM    9  C5  UNL     1      22.520   1.211  51.973  1.00  0.00    -0.011 C 
BRANCH   9  10
HETATM   10  C4  UNL     1      21.221   1.331  52.243  1.00  0.00     0.036 C 
BRANCH  10  11
HETATM   11  C3  UNL     1      20.549   0.315  53.022  1.00  0.00     0.030 C 
HETATM   12  C2  UNL     1      20.855  -0.489  54.028  1.00  0.00    -0.007 C 
HETATM   13  C1  UNL     1      21.966  -0.864  54.949  1.00  0.00     0.038 C 
HETATM   14 CL1  UNL     1      19.010   0.450  52.158  1.00  0.00    -0.085 Cl
ENDBRANCH  10  11
ENDBRANCH   9  10
ENDBRANCH   8   9
ENDBRANCH   5   8
ENDBRANCH   1   5
BRANCH   2  15
HETATM   15  C8  UNL     1      28.089   2.275  53.409  1.00  0.00     0.142 C 
BRANCH  15  16
HETATM   16  C9  UNL     1      28.448   0.844  53.392  1.00  0.00    -0.049 A 
HETATM   17  C10 UNL     1      29.695   0.371  53.764  1.00  0.00     0.011 A 
HETATM   18  C11 UNL     1      30.034  -0.974  53.749  1.00  0.00     0.043 A 
HETATM   19  C12 UNL     1      29.035  -1.835  53.333  1.00  0.00     0.116 A 
HETATM   20  F1  UNL     1      29.284  -3.179  53.288  1.00  0.00    -0.206 F 
HETATM   21  C13 UNL     1      27.772  -1.444  52.949  1.00  0.00     0.043 A 
HETATM   22  C14 UNL     1      27.510  -0.082  52.991  1.00  0.00     0.011 A 
ENDBRANCH  15  16
ENDBRANCH   2  15
TORSDOF 7
ENDMDL
MODEL 7
REMARK VINA RESULT:      -6.7      2.083      2.576
REMARK  7 active torsions:
REMARK  status: ('A' for Active; 'I' for Inactive)
REMARK    1  A    between atoms: C3_3  and  C4_5 
REMARK    2  A    between atoms: C4_5  and  C5_6 
REMARK    3  A    between atoms: C5_6  and  C6_7 
REMARK    4  A    between atoms: C6_7  and  S1_8 
REMARK    5  A    between atoms: S1_8  and  N1_11 
REMARK       I    between atoms: N1_11  and  C7_12 
REMARK    6  A    between atoms: C7_12  and  C8_14 
REMARK    7  A    between atoms: C8_14  and  C9_15 
ROOT
HETATM    1  N1  UNL     1      23.855   2.054  53.137  1.00  0.00    -0.251 N 
HETATM    2  C7  UNL     1      24.740   1.045  52.741  1.00  0.00     0.235 C 
HETATM    3  O3  UNL     1      25.388   0.874  51.669  1.00  0.00    -0.272 OA
HETATM    4  H7  UNL     1      23.421   2.007  54.074  1.00  0.00     0.181 HD
ENDROOT
BRANCH   1   5
HETATM    5  S1  UNL     1      23.546   3.329  52.012  1.00  0.00     0.256 S 
HETATM    6  O1  UNL     1      23.194   4.574  52.783  1.00  0.00    -0.201 OA
HETATM    7  O2  UNL     1      24.841   3.665  51.344  1.00  0.00    -0.201 OA
BRANCH   5   8
HETATM    8  C6  UNL     1      22.273   2.881  50.983  1.00  0.00     0.144 C 
BRANCH   8   9
HETATM    9  C5  UNL     1      21.888   1.618  50.835  1.00  0.00    -0.011 C 
BRANCH   9  10
HETATM   10  C4  UNL     1      21.483   0.389  51.155  1.00  0.00     0.036 C 
BRANCH  10  11
HETATM   11  C3  UNL     1      20.507   0.201  52.204  1.00  0.00     0.030 C 
HETATM   12  C2  UNL     1      20.525  -0.021  53.510  1.00  0.00    -0.007 C 
HETATM   13  C1  UNL     1      21.447  -0.208  54.667  1.00  0.00     0.038 C 
HETATM   14 CL1  UNL     1      19.102   0.365  51.142  1.00  0.00    -0.085 Cl
ENDBRANCH  10  11
ENDBRANCH   9  10
ENDBRANCH   8   9
ENDBRANCH   5   8
ENDBRANCH   1   5
BRANCH   2  15
HETATM   15  C8  UNL     1      25.065  -0.100  53.656  1.00  0.00     0.142 C 
BRANCH  15  16
HETATM   16  C9  UNL     1      26.524  -0.300  53.742  1.00  0.00    -0.049 A 
HETATM   17  C10 UNL     1      27.354   0.495  54.514  1.00  0.00     0.011 A 
HETATM   18  C11 UNL     1      28.726   0.309  54.596  1.00  0.00     0.043 A 
HETATM   19  C12 UNL     1      29.230  -0.739  53.848  1.00  0.00     0.116 A 
HETATM   20  F1  UNL     1      30.573  -0.994  53.871  1.00  0.00    -0.206 F 
HETATM   21  C13 UNL     1      28.473  -1.574  53.057  1.00  0.00     0.043 A 
HETATM   22  C14 UNL     1      27.109  -1.323  53.027  1.00  0.00     0.011 A 
ENDBRANCH  15  16
ENDBRANCH   2  15
TORSDOF 7
ENDMDL
MODEL 8
REMARK VINA RESULT:      -6.7      1.947      2.679
REMARK  7 active torsions:
REMARK  status: ('A' for Active; 'I' for Inactive)
REMARK    1  A    between atoms: C3_3  and  C4_5 
REMARK    2  A    between atoms: C4_5  and  C5_6 
REMARK    3  A    between atoms: C5_6  and  C6_7 
REMARK    4  A    between atoms: C6_7  and  S1_8 
REMARK    5  A    between atoms: S1_8  and  N1_11 
REMARK       I    between atoms: N1_11  and  C7_12 
REMARK    6  A    between atoms: C7_12  and  C8_14 
REMARK    7  A    between atoms: C8_14  and  C9_15 
ROOT
HETATM    1  N1  UNL     1      23.259   2.679  50.941  1.00  0.00    -0.251 N 
HETATM    2  C7  UNL     1      24.351   2.948  51.774  1.00  0.00     0.235 C 
HETATM    3  O3  UNL     1      24.411   3.277  52.993  1.00  0.00    -0.272 OA
HETATM    4  H7  UNL     1      23.427   2.423  49.954  1.00  0.00     0.181 HD
ENDROOT
BRANCH   1   5
HETATM    5  S1  UNL     1      21.680   2.797  51.634  1.00  0.00     0.256 S 
HETATM    6  O1  UNL     1      21.554   4.137  52.312  1.00  0.00    -0.201 OA
HETATM    7  O2  UNL     1      20.697   2.861  50.510  1.00  0.00    -0.201 OA
BRANCH   5   8
HETATM    8  C6  UNL     1      21.455   1.538  52.749  1.00  0.00     0.144 C 
BRANCH   8   9
HETATM    9  C5  UNL     1      22.112   0.386  52.664  1.00  0.00    -0.011 C 
BRANCH   9  10
HETATM   10  C4  UNL     1      22.564  -0.823  52.996  1.00  0.00     0.036 C 
BRANCH  10  11
HETATM   11  C3  UNL     1      22.551  -1.243  54.379  1.00  0.00     0.030 C 
HETATM   12  C2  UNL     1      23.425  -1.325  55.371  1.00  0.00    -0.007 C 
HETATM   13  C1  UNL     1      24.854  -1.072  55.714  1.00  0.00     0.038 C 
HETATM   14 CL1  UNL     1      20.836  -1.676  54.395  1.00  0.00    -0.085 Cl
ENDBRANCH  10  11
ENDBRANCH   9  10
ENDBRANCH   8   9
ENDBRANCH   5   8
ENDBRANCH   1   5
BRANCH   2  15
HETATM   15  C8  UNL     1      25.757   2.870  51.254  1.00  0.00     0.142 C 
BRANCH  15  16
HETATM   16  C9  UNL     1      26.521   1.832  51.972  1.00  0.00    -0.049 A 
HETATM   17  C10 UNL     1      27.638   2.108  52.741  1.00  0.00     0.011 A 
HETATM   18  C11 UNL     1      28.357   1.133  53.417  1.00  0.00     0.043 A 
HETATM   19  C12 UNL     1      27.885  -0.159  53.277  1.00  0.00     0.116 A 
HETATM   20  F1  UNL     1      28.534  -1.182  53.911  1.00  0.00    -0.206 F 
HETATM   21  C13 UNL     1      26.782  -0.515  52.533  1.00  0.00     0.043 A 
HETATM   22  C14 UNL     1      26.117   0.516  51.887  1.00  0.00     0.011 A 
ENDBRANCH  15  16
ENDBRANCH   2  15
TORSDOF 7
ENDMDL
MODEL 9
REMARK VINA RESULT:      -6.7      4.394      6.483
REMARK  7 active torsions:
REMARK  status: ('A' for Active; 'I' for Inactive)
REMARK    1  A    between atoms: C3_3  and  C4_5 
REMARK    2  A    between atoms: C4_5  and  C5_6 
REMARK    3  A    between atoms: C5_6  and  C6_7 
REMARK    4  A    between atoms: C6_7  and  S1_8 
REMARK    5  A    between atoms: S1_8  and  N1_11 
REMARK       I    between atoms: N1_11  and  C7_12 
REMARK    6  A    between atoms: C7_12  and  C8_14 
REMARK    7  A    between atoms: C8_14  and  C9_15 
ROOT
HETATM    1  N1  UNL     1      24.942   4.235  51.268  1.00  0.00    -0.251 N 
HETATM    2  C7  UNL     1      24.675   4.337  49.898  1.00  0.00     0.235 C 
HETATM    3  O3  UNL     1      24.379   3.461  49.035  1.00  0.00    -0.272 OA
HETATM    4  H7  UNL     1      25.168   5.089  51.804  1.00  0.00     0.181 HD
ENDROOT
BRANCH   1   5
HETATM    5  S1  UNL     1      24.875   2.660  51.976  1.00  0.00     0.256 S 
HETATM    6  O1  UNL     1      24.996   2.801  53.471  1.00  0.00    -0.201 OA
HETATM    7  O2  UNL     1      23.492   2.130  51.769  1.00  0.00    -0.201 OA
BRANCH   5   8
HETATM    8  C6  UNL     1      26.136   1.706  51.359  1.00  0.00     0.144 C 
BRANCH   8   9
HETATM    9  C5  UNL     1      26.572   0.615  51.980  1.00  0.00    -0.011 C 
BRANCH   9  10
HETATM   10  C4  UNL     1      26.644  -0.369  52.876  1.00  0.00     0.036 C 
BRANCH  10  11
HETATM   11  C3  UNL     1      27.541  -0.254  54.004  1.00  0.00     0.030 C 
HETATM   12  C2  UNL     1      28.846  -0.331  54.211  1.00  0.00    -0.007 C 
HETATM   13  C1  UNL     1      30.144  -0.561  53.514  1.00  0.00     0.038 C 
HETATM   14 CL1  UNL     1      26.262   0.056  55.188  1.00  0.00    -0.085 Cl
ENDBRANCH  10  11
ENDBRANCH   9  10
ENDBRANCH   8   9
ENDBRANCH   5   8
ENDBRANCH   1   5
BRANCH   2  15
HETATM   15  C8  UNL     1      24.711   5.667  49.201  1.00  0.00     0.142 C 
BRANCH  15  16
HETATM   16  C9  UNL     1      26.073   5.964  48.717  1.00  0.00    -0.049 A 
HETATM   17  C10 UNL     1      26.422   7.164  48.124  1.00  0.00     0.011 A 
HETATM   18  C11 UNL     1      27.702   7.445  47.668  1.00  0.00     0.043 A 
HETATM   19  C12 UNL     1      28.631   6.436  47.845  1.00  0.00     0.116 A 
HETATM   20  F1  UNL     1      29.918   6.629  47.425  1.00  0.00    -0.206 F 
HETATM   21  C13 UNL     1      28.364   5.217  48.426  1.00  0.00     0.043 A 
HETATM   22  C14 UNL     1      27.061   5.012  48.855  1.00  0.00     0.011 A 
ENDBRANCH  15  16
ENDBRANCH   2  15
TORSDOF 7
ENDMDL
