MODEL 1
REMARK VINA RESULT:      -7.5      0.000      0.000
REMARK  5 active torsions:
REMARK  status: ('A' for Active; 'I' for Inactive)
REMARK    1  A    between atoms: C2_2  and  O1_3 
REMARK    2  A    between atoms: O1_3  and  C3_4 
REMARK    3  A    between atoms: C7_9  and  C8_10 
REMARK    4  A    between atoms: C10_12  and  N2_13 
REMARK    5  A    between atoms: C17_21  and  N3_22 
ROOT
HETATM    1  C3  UNL     1      26.386   0.326  54.042  1.00  0.00     0.137 C 
HETATM    2  C4  UNL     1      26.106   1.645  54.128  1.00  0.00     0.166 A 
HETATM    3  C5  UNL     1      25.293   2.842  53.800  1.00  0.00     0.093 A 
HETATM    4  N1  UNL     1      24.795   1.915  53.190  1.00  0.00    -0.355 N 
HETATM    5  C6  UNL     1      23.724   1.798  52.343  1.00  0.00     0.096 C 
HETATM    6  C7  UNL     1      22.741   1.701  51.402  1.00  0.00    -0.040 C 
HETATM    7  C10 UNL     1      21.809   1.267  52.428  1.00  0.00     0.146 C 
HETATM    8  C17 UNL     1      21.942  -0.202  52.797  1.00  0.00     0.198 C 
HETATM    9  C20 UNL     1      23.348  -0.477  53.262  1.00  0.00     0.242 C 
HETATM   10  O2  UNL     1      23.829  -0.529  54.424  1.00  0.00    -0.271 OA
HETATM   11  N4  UNL     1      24.616  -0.764  52.703  1.00  0.00    -0.356 N 
HETATM   12  C21 UNL     1      25.870  -0.928  53.410  1.00  0.00     0.166 C 
HETATM   13  H29 UNL     1      24.342  -0.831  51.708  1.00  0.00     0.162 HD
ENDROOT
BRANCH   7  14
HETATM   14  N2  UNL     1      20.473   1.315  51.782  1.00  0.00    -0.373 N 
HETATM   15  C11 UNL     1      19.832   2.550  52.020  1.00  0.00     0.129 A 
HETATM   16  C12 UNL     1      18.650   2.883  51.535  1.00  0.00     0.137 A 
HETATM   17  F1  UNL     1      18.009   4.080  51.755  1.00  0.00    -0.204 F 
HETATM   18  C13 UNL     1      17.905   1.956  50.701  1.00  0.00    -0.024 A 
HETATM   19  C14 UNL     1      16.576   2.231  50.107  1.00  0.00     0.051 C 
HETATM   20  C15 UNL     1      18.504   0.795  50.490  1.00  0.00     0.003 A 
HETATM   21  C16 UNL     1      19.818   0.302  50.977  1.00  0.00     0.151 A 
ENDBRANCH   7  14
BRANCH   6  22
HETATM   22  C8  UNL     1      22.840   1.830  49.923  1.00  0.00     0.033 C 
HETATM   23  C9  UNL     1      23.575   3.027  49.428  1.00  0.00     0.010 C 
ENDBRANCH   6  22
BRANCH   8  24
HETATM   24  N3  UNL     1      20.993  -0.421  53.841  1.00  0.00    -0.407 N 
HETATM   25  C18 UNL     1      20.776  -1.790  54.201  1.00  0.00     0.143 C 
HETATM   26  C19 UNL     1      20.985   0.505  54.916  1.00  0.00     0.143 C 
ENDBRANCH   8  24
BRANCH   1  27
HETATM   27  O1  UNL     1      27.516  -0.180  54.741  1.00  0.00    -0.373 OA
BRANCH  27  28
HETATM   28  C2  UNL     1      28.819   0.266  54.568  1.00  0.00     0.164 C 
HETATM   29  C1  UNL     1      29.668  -0.692  53.753  1.00  0.00     0.033 C 
ENDBRANCH  27  28
ENDBRANCH   1  27
TORSDOF 5
ENDMDL
MODEL 2
REMARK VINA RESULT:      -7.2      1.719      3.582
REMARK  5 active torsions:
REMARK  status: ('A' for Active; 'I' for Inactive)
REMARK    1  A    between atoms: C2_2  and  O1_3 
REMARK    2  A    between atoms: O1_3  and  C3_4 
REMARK    3  A    between atoms: C7_9  and  C8_10 
REMARK    4  A    between atoms: C10_12  and  N2_13 
REMARK    5  A    between atoms: C17_21  and  N3_22 
ROOT
HETATM    1  C3  UNL     1      27.291   0.964  53.222  1.00  0.00     0.137 C 
HETATM    2  C4  UNL     1      26.814  -0.159  52.640  1.00  0.00     0.166 A 
HETATM    3  C5  UNL     1      25.709  -1.023  52.155  1.00  0.00     0.093 A 
HETATM    4  N1  UNL     1      25.183  -0.046  52.653  1.00  0.00    -0.355 N 
HETATM    5  C6  UNL     1      23.884   0.354  52.825  1.00  0.00     0.096 C 
HETATM    6  C7  UNL     1      22.595   0.694  53.112  1.00  0.00    -0.040 C 
HETATM    7  C10 UNL     1      22.556   1.527  51.923  1.00  0.00     0.146 C 
HETATM    8  C17 UNL     1      23.214   2.885  52.101  1.00  0.00     0.198 C 
HETATM    9  C20 UNL     1      24.648   2.696  52.521  1.00  0.00     0.242 C 
HETATM   10  O2  UNL     1      25.706   2.692  51.839  1.00  0.00    -0.271 OA
HETATM   11  N4  UNL     1      25.387   2.465  53.705  1.00  0.00    -0.356 N 
HETATM   12  C21 UNL     1      26.815   2.249  53.820  1.00  0.00     0.166 C 
HETATM   13  H29 UNL     1      24.616   2.524  54.392  1.00  0.00     0.162 HD
ENDROOT
BRANCH   7  14
HETATM   14  N2  UNL     1      21.125   1.885  51.748  1.00  0.00    -0.373 N 
HETATM   15  C11 UNL     1      20.446   0.922  50.972  1.00  0.00     0.129 A 
HETATM   16  C12 UNL     1      19.156   0.965  50.689  1.00  0.00     0.137 A 
HETATM   17  F1  UNL     1      18.476   0.037  49.935  1.00  0.00    -0.204 F 
HETATM   18  C13 UNL     1      18.330   2.058  51.173  1.00  0.00    -0.024 A 
HETATM   19  C14 UNL     1      16.878   2.199  50.915  1.00  0.00     0.051 C 
HETATM   20  C15 UNL     1      18.973   2.965  51.891  1.00  0.00     0.003 A 
HETATM   21  C16 UNL     1      20.407   3.031  52.273  1.00  0.00     0.151 A 
ENDBRANCH   7  14
BRANCH   6  22
HETATM   22  C8  UNL     1      21.792   0.392  54.328  1.00  0.00     0.033 C 
HETATM   23  C9  UNL     1      21.531  -1.051  54.586  1.00  0.00     0.010 C 
ENDBRANCH   6  22
BRANCH   8  24
HETATM   24  N3  UNL     1      23.122   3.525  50.828  1.00  0.00    -0.407 N 
HETATM   25  C18 UNL     1      23.417   4.927  50.819  1.00  0.00     0.143 C 
HETATM   26  C19 UNL     1      23.575   2.794  49.700  1.00  0.00     0.143 C 
ENDBRANCH   8  24
BRANCH   1  27
HETATM   27  O1  UNL     1      28.697   1.109  53.375  1.00  0.00    -0.373 OA
BRANCH  27  28
HETATM   28  C2  UNL     1      29.473   0.398  54.279  1.00  0.00     0.164 C 
HETATM   29  C1  UNL     1      30.040  -0.882  53.692  1.00  0.00     0.033 C 
ENDBRANCH  27  28
ENDBRANCH   1  27
TORSDOF 5
ENDMDL
MODEL 3
REMARK VINA RESULT:      -6.8      3.104      7.435
REMARK  5 active torsions:
REMARK  status: ('A' for Active; 'I' for Inactive)
REMARK    1  A    between atoms: C2_2  and  O1_3 
REMARK    2  A    between atoms: O1_3  and  C3_4 
REMARK    3  A    between atoms: C7_9  and  C8_10 
REMARK    4  A    between atoms: C10_12  and  N2_13 
REMARK    5  A    between atoms: C17_21  and  N3_22 
ROOT
HETATM    1  C3  UNL     1      19.439   2.201  49.942  1.00  0.00     0.137 C 
HETATM    2  C4  UNL     1      20.253   1.600  49.047  1.00  0.00     0.166 A 
HETATM    3  C5  UNL     1      21.580   1.116  48.592  1.00  0.00     0.093 A 
HETATM    4  N1  UNL     1      21.764   1.649  49.670  1.00  0.00    -0.355 N 
HETATM    5  C6  UNL     1      22.868   1.857  50.455  1.00  0.00     0.096 C 
HETATM    6  C7  UNL     1      23.979   2.178  51.176  1.00  0.00    -0.040 C 
HETATM    7  C10 UNL     1      23.766   1.012  52.014  1.00  0.00     0.146 C 
HETATM    8  C17 UNL     1      22.709   1.211  53.089  1.00  0.00     0.198 C 
HETATM    9  C20 UNL     1      21.405   1.598  52.443  1.00  0.00     0.242 C 
HETATM   10  O2  UNL     1      20.410   0.895  52.125  1.00  0.00    -0.271 OA
HETATM   11  N4  UNL     1      20.764   2.761  51.953  1.00  0.00    -0.356 N 
HETATM   12  C21 UNL     1      19.477   2.841  51.293  1.00  0.00     0.166 C 
HETATM   13  H29 UNL     1      21.469   3.464  52.232  1.00  0.00     0.162 HD
ENDROOT
BRANCH   7  14
HETATM   14  N2  UNL     1      25.011   0.875  52.812  1.00  0.00    -0.373 N 
HETATM   15  C11 UNL     1      25.767  -0.243  52.397  1.00  0.00     0.129 A 
HETATM   16  C12 UNL     1      26.937  -0.583  52.905  1.00  0.00     0.137 A 
HETATM   17  F1  UNL     1      27.688  -1.667  52.514  1.00  0.00    -0.204 F 
HETATM   18  C13 UNL     1      27.536   0.201  53.972  1.00  0.00    -0.024 A 
HETATM   19  C14 UNL     1      28.841  -0.093  54.608  1.00  0.00     0.051 C 
HETATM   20  C15 UNL     1      26.819   1.241  54.366  1.00  0.00     0.003 A 
HETATM   21  C16 UNL     1      25.500   1.723  53.882  1.00  0.00     0.151 A 
ENDBRANCH   7  14
BRANCH   6  22
HETATM   22  C8  UNL     1      24.824   3.402  51.107  1.00  0.00     0.033 C 
HETATM   23  C9  UNL     1      26.074   3.277  50.308  1.00  0.00     0.010 C 
ENDBRANCH   6  22
BRANCH   8  24
HETATM   24  N3  UNL     1      22.608  -0.043  53.763  1.00  0.00    -0.407 N 
HETATM   25  C18 UNL     1      21.821  -0.038  54.960  1.00  0.00     0.143 C 
HETATM   26  C19 UNL     1      22.496  -1.205  52.959  1.00  0.00     0.143 C 
ENDBRANCH   8  24
BRANCH   1  27
HETATM   27  O1  UNL     1      18.057   2.329  49.631  1.00  0.00    -0.373 OA
BRANCH  27  28
HETATM   28  C2  UNL     1      17.490   3.418  48.983  1.00  0.00     0.164 C 
HETATM   29  C1  UNL     1      16.678   3.021  47.763  1.00  0.00     0.033 C 
ENDBRANCH  27  28
ENDBRANCH   1  27
TORSDOF 5
ENDMDL
MODEL 4
REMARK VINA RESULT:      -6.8      4.246      6.897
REMARK  5 active torsions:
REMARK  status: ('A' for Active; 'I' for Inactive)
REMARK    1  A    between atoms: C2_2  and  O1_3 
REMARK    2  A    between atoms: O1_3  and  C3_4 
REMARK    3  A    between atoms: C7_9  and  C8_10 
REMARK    4  A    between atoms: C10_12  and  N2_13 
REMARK    5  A    between atoms: C17_21  and  N3_22 
ROOT
HETATM    1  C3  UNL     1      22.847   0.936  52.236  1.00  0.00     0.137 C 
HETATM    2  C4  UNL     1      23.782   1.508  53.026  1.00  0.00     0.166 A 
HETATM    3  C5  UNL     1      24.872   2.482  53.282  1.00  0.00     0.093 A 
HETATM    4  N1  UNL     1      24.544   2.637  52.121  1.00  0.00    -0.355 N 
HETATM    5  C6  UNL     1      24.961   3.469  51.115  1.00  0.00     0.096 C 
HETATM    6  C7  UNL     1      25.458   4.202  50.079  1.00  0.00    -0.040 C 
HETATM    7  C10 UNL     1      24.426   5.200  50.297  1.00  0.00     0.146 C 
HETATM    8  C17 UNL     1      23.075   4.826  49.707  1.00  0.00     0.198 C 
HETATM    9  C20 UNL     1      22.621   3.513  50.289  1.00  0.00     0.242 C 
HETATM   10  O2  UNL     1      21.847   3.269  51.252  1.00  0.00    -0.271 OA
HETATM   11  N4  UNL     1      22.816   2.128  50.070  1.00  0.00    -0.356 N 
HETATM   12  C21 UNL     1      22.284   1.033  50.854  1.00  0.00     0.166 C 
HETATM   13  H29 UNL     1      23.400   2.180  49.218  1.00  0.00     0.162 HD
ENDROOT
BRANCH   7  14
HETATM   14  N2  UNL     1      24.827   6.362  49.463  1.00  0.00    -0.373 N 
HETATM   15  C11 UNL     1      25.560   7.304  50.216  1.00  0.00     0.129 A 
HETATM   16  C12 UNL     1      26.076   8.416  49.723  1.00  0.00     0.137 A 
HETATM   17  F1  UNL     1      26.793   9.346  50.438  1.00  0.00    -0.204 F 
HETATM   18  C13 UNL     1      25.903   8.751  48.319  1.00  0.00    -0.024 A 
HETATM   19  C14 UNL     1      26.440   9.967  47.667  1.00  0.00     0.051 C 
HETATM   20  C15 UNL     1      25.205   7.870  47.620  1.00  0.00     0.003 A 
HETATM   21  C16 UNL     1      24.576   6.597  48.054  1.00  0.00     0.151 A 
ENDBRANCH   7  14
BRANCH   6  22
HETATM   22  C8  UNL     1      26.520   3.846  49.099  1.00  0.00     0.033 C 
HETATM   23  C9  UNL     1      27.627   4.832  48.961  1.00  0.00     0.010 C 
ENDBRANCH   6  22
BRANCH   8  24
HETATM   24  N3  UNL     1      22.193   5.890  50.066  1.00  0.00    -0.407 N 
HETATM   25  C18 UNL     1      20.984   5.973  49.301  1.00  0.00     0.143 C 
HETATM   26  C19 UNL     1      22.070   6.194  51.445  1.00  0.00     0.143 C 
ENDBRANCH   8  24
BRANCH   1  27
HETATM   27  O1  UNL     1      22.054  -0.117  52.768  1.00  0.00    -0.373 OA
BRANCH  27  28
HETATM   28  C2  UNL     1      21.526  -0.140  54.051  1.00  0.00     0.164 C 
HETATM   29  C1  UNL     1      22.087  -1.265  54.902  1.00  0.00     0.033 C 
ENDBRANCH  27  28
ENDBRANCH   1  27
TORSDOF 5
ENDMDL
MODEL 5
REMARK VINA RESULT:      -6.7      3.314      7.744
REMARK  5 active torsions:
REMARK  status: ('A' for Active; 'I' for Inactive)
REMARK    1  A    between atoms: C2_2  and  O1_3 
REMARK    2  A    between atoms: O1_3  and  C3_4 
REMARK    3  A    between atoms: C7_9  and  C8_10 
REMARK    4  A    between atoms: C10_12  and  N2_13 
REMARK    5  A    between atoms: C17_21  and  N3_22 
ROOT
HETATM    1  C3  UNL     1      19.806   2.696  49.802  1.00  0.00     0.137 C 
HETATM    2  C4  UNL     1      19.636   3.029  51.100  1.00  0.00     0.166 A 
HETATM    3  C5  UNL     1      20.042   3.010  52.528  1.00  0.00     0.093 A 
HETATM    4  N1  UNL     1      20.859   2.334  51.934  1.00  0.00    -0.355 N 
HETATM    5  C6  UNL     1      21.974   1.633  52.313  1.00  0.00     0.096 C 
HETATM    6  C7  UNL     1      23.005   0.832  52.705  1.00  0.00    -0.040 C 
HETATM    7  C10 UNL     1      23.944   1.892  52.383  1.00  0.00     0.146 C 
HETATM    8  C17 UNL     1      24.265   2.000  50.901  1.00  0.00     0.198 C 
HETATM    9  C20 UNL     1      22.991   2.219  50.127  1.00  0.00     0.242 C 
HETATM   10  O2  UNL     1      22.463   3.282  49.706  1.00  0.00    -0.271 OA
HETATM   11  N4  UNL     1      21.932   1.454  49.583  1.00  0.00    -0.356 N 
HETATM   12  C21 UNL     1      20.747   1.948  48.912  1.00  0.00     0.166 C 
HETATM   13  H29 UNL     1      22.290   0.508  49.798  1.00  0.00     0.162 HD
ENDROOT
BRANCH   7  14
HETATM   14  N2  UNL     1      25.240   1.451  52.959  1.00  0.00    -0.373 N 
HETATM   15  C11 UNL     1      25.667   0.233  52.388  1.00  0.00     0.129 A 
HETATM   16  C12 UNL     1      26.802  -0.373  52.684  1.00  0.00     0.137 A 
HETATM   17  F1  UNL     1      27.237  -1.559  52.139  1.00  0.00    -0.204 F 
HETATM   18  C13 UNL     1      27.712   0.199  53.663  1.00  0.00    -0.024 A 
HETATM   19  C14 UNL     1      29.007  -0.398  54.064  1.00  0.00     0.051 C 
HETATM   20  C15 UNL     1      27.302   1.334  54.204  1.00  0.00     0.003 A 
HETATM   21  C16 UNL     1      26.057   2.108  53.961  1.00  0.00     0.151 A 
ENDBRANCH   7  14
BRANCH   6  22
HETATM   22  C8  UNL     1      22.986  -0.608  53.083  1.00  0.00     0.033 C 
HETATM   23  C9  UNL     1      22.518  -0.904  54.465  1.00  0.00     0.010 C 
ENDBRANCH   6  22
BRANCH   8  24
HETATM   24  N3  UNL     1      25.148   3.116  50.781  1.00  0.00    -0.407 N 
HETATM   25  C18 UNL     1      26.063   3.063  49.680  1.00  0.00     0.143 C 
HETATM   26  C19 UNL     1      24.620   4.397  51.080  1.00  0.00     0.143 C 
ENDBRANCH   8  24
BRANCH   1  27
HETATM   27  O1  UNL     1      18.848   3.145  48.851  1.00  0.00    -0.373 OA
BRANCH  27  28
HETATM   28  C2  UNL     1      18.332   4.432  48.793  1.00  0.00     0.164 C 
HETATM   29  C1  UNL     1      19.315   5.437  48.222  1.00  0.00     0.033 C 
ENDBRANCH  27  28
ENDBRANCH   1  27
TORSDOF 5
ENDMDL
MODEL 6
REMARK VINA RESULT:      -6.6      4.547      6.468
REMARK  5 active torsions:
REMARK  status: ('A' for Active; 'I' for Inactive)
REMARK    1  A    between atoms: C2_2  and  O1_3 
REMARK    2  A    between atoms: O1_3  and  C3_4 
REMARK    3  A    between atoms: C7_9  and  C8_10 
REMARK    4  A    between atoms: C10_12  and  N2_13 
REMARK    5  A    between atoms: C17_21  and  N3_22 
ROOT
HETATM    1  C3  UNL     1      26.626   7.053  49.314  1.00  0.00     0.137 C 
HETATM    2  C4  UNL     1      26.961   5.814  48.891  1.00  0.00     0.166 A 
HETATM    3  C5  UNL     1      26.823   4.336  48.904  1.00  0.00     0.093 A 
HETATM    4  N1  UNL     1      26.044   4.758  49.738  1.00  0.00    -0.355 N 
HETATM    5  C6  UNL     1      25.153   4.167  50.595  1.00  0.00     0.096 C 
HETATM    6  C7  UNL     1      24.362   3.578  51.536  1.00  0.00    -0.040 C 
HETATM    7  C10 UNL     1      23.211   3.744  50.666  1.00  0.00     0.146 C 
HETATM    8  C17 UNL     1      22.620   5.144  50.688  1.00  0.00     0.198 C 
HETATM    9  C20 UNL     1      23.680   6.142  50.299  1.00  0.00     0.242 C 
HETATM   10  O2  UNL     1      23.933   6.673  49.186  1.00  0.00    -0.271 OA
HETATM   11  N4  UNL     1      24.742   6.855  50.903  1.00  0.00    -0.356 N 
HETATM   12  C21 UNL     1      25.686   7.740  50.252  1.00  0.00     0.166 C 
HETATM   13  H29 UNL     1      24.598   6.560  51.884  1.00  0.00     0.162 HD
ENDROOT
BRANCH   7  14
HETATM   14  N2  UNL     1      22.134   2.932  51.288  1.00  0.00    -0.373 N 
HETATM   15  C11 UNL     1      22.147   1.606  50.805  1.00  0.00     0.129 A 
HETATM   16  C12 UNL     1      21.326   0.655  51.212  1.00  0.00     0.137 A 
HETATM   17  F1  UNL     1      21.323  -0.642  50.754  1.00  0.00    -0.204 F 
HETATM   18  C13 UNL     1      20.314   0.933  52.217  1.00  0.00    -0.024 A 
HETATM   19  C14 UNL     1      19.348  -0.059  52.742  1.00  0.00     0.051 C 
HETATM   20  C15 UNL     1      20.298   2.181  52.659  1.00  0.00     0.003 A 
HETATM   21  C16 UNL     1      21.157   3.333  52.282  1.00  0.00     0.151 A 
ENDBRANCH   7  14
BRANCH   6  22
HETATM   22  C8  UNL     1      24.697   3.181  52.931  1.00  0.00     0.033 C 
HETATM   23  C9  UNL     1      25.245   1.806  53.096  1.00  0.00     0.010 C 
ENDBRANCH   6  22
BRANCH   8  24
HETATM   24  N3  UNL     1      21.550   5.123  49.744  1.00  0.00    -0.407 N 
HETATM   25  C18 UNL     1      20.632   6.220  49.826  1.00  0.00     0.143 C 
HETATM   26  C19 UNL     1      21.848   4.668  48.435  1.00  0.00     0.143 C 
ENDBRANCH   8  24
BRANCH   1  27
HETATM   27  O1  UNL     1      27.307   8.171  48.760  1.00  0.00    -0.373 OA
BRANCH  27  28
HETATM   28  C2  UNL     1      27.863   9.205  49.500  1.00  0.00     0.164 C 
HETATM   29  C1  UNL     1      29.354   9.366  49.264  1.00  0.00     0.033 C 
ENDBRANCH  27  28
ENDBRANCH   1  27
TORSDOF 5
ENDMDL
MODEL 7
REMARK VINA RESULT:      -6.5      3.743      6.008
REMARK  5 active torsions:
REMARK  status: ('A' for Active; 'I' for Inactive)
REMARK    1  A    between atoms: C2_2  and  O1_3 
REMARK    2  A    between atoms: O1_3  and  C3_4 
REMARK    3  A    between atoms: C7_9  and  C8_10 
REMARK    4  A    between atoms: C10_12  and  N2_13 
REMARK    5  A    between atoms: C17_21  and  N3_22 
ROOT
HETATM    1  C3  UNL     1      25.638   6.427  49.776  1.00  0.00     0.137 C 
HETATM    2  C4  UNL     1      26.369   5.392  49.307  1.00  0.00     0.166 A 
HETATM    3  C5  UNL     1      26.804   3.974  49.321  1.00  0.00     0.093 A 
HETATM    4  N1  UNL     1      26.019   4.098  50.242  1.00  0.00    -0.355 N 
HETATM    5  C6  UNL     1      25.518   3.245  51.191  1.00  0.00     0.096 C 
HETATM    6  C7  UNL     1      25.118   2.434  52.210  1.00  0.00    -0.040 C 
HETATM    7  C10 UNL     1      23.902   2.123  51.479  1.00  0.00     0.146 C 
HETATM    8  C17 UNL     1      22.830   3.197  51.582  1.00  0.00     0.198 C 
HETATM    9  C20 UNL     1      23.384   4.506  51.084  1.00  0.00     0.242 C 
HETATM   10  O2  UNL     1      23.293   5.055  49.954  1.00  0.00    -0.271 OA
HETATM   11  N4  UNL     1      24.156   5.588  51.569  1.00  0.00    -0.356 N 
HETATM   12  C21 UNL     1      24.617   6.741  50.823  1.00  0.00     0.166 C 
HETATM   13  H29 UNL     1      24.243   5.295  52.557  1.00  0.00     0.162 HD
ENDROOT
BRANCH   7  14
HETATM   14  N2  UNL     1      23.288   0.987  52.212  1.00  0.00    -0.373 N 
HETATM   15  C11 UNL     1      22.258   1.427  53.071  1.00  0.00     0.129 A 
HETATM   16  C12 UNL     1      21.514   0.630  53.816  1.00  0.00     0.137 A 
HETATM   17  F1  UNL     1      20.506   1.038  54.657  1.00  0.00    -0.204 F 
HETATM   18  C13 UNL     1      21.729  -0.808  53.800  1.00  0.00    -0.024 A 
HETATM   19  C14 UNL     1      20.952  -1.788  54.594  1.00  0.00     0.051 C 
HETATM   20  C15 UNL     1      22.704  -1.215  53.004  1.00  0.00     0.003 A 
HETATM   21  C16 UNL     1      23.605  -0.425  52.126  1.00  0.00     0.151 A 
ENDBRANCH   7  14
BRANCH   6  22
HETATM   22  C8  UNL     1      25.728   2.241  53.554  1.00  0.00     0.033 C 
HETATM   23  C9  UNL     1      27.211   2.101  53.573  1.00  0.00     0.010 C 
ENDBRANCH   6  22
BRANCH   8  24
HETATM   24  N3  UNL     1      21.751   2.740  50.767  1.00  0.00    -0.407 N 
HETATM   25  C18 UNL     1      20.543   3.505  50.857  1.00  0.00     0.143 C 
HETATM   26  C19 UNL     1      22.075   2.253  49.475  1.00  0.00     0.143 C 
ENDBRANCH   8  24
BRANCH   1  27
HETATM   27  O1  UNL     1      25.780   7.700  49.159  1.00  0.00    -0.373 OA
BRANCH  27  28
HETATM   28  C2  UNL     1      25.886   8.904  49.842  1.00  0.00     0.164 C 
HETATM   29  C1  UNL     1      27.318   9.258  50.196  1.00  0.00     0.033 C 
ENDBRANCH  27  28
ENDBRANCH   1  27
TORSDOF 5
ENDMDL
MODEL 8
REMARK VINA RESULT:      -6.4      9.809     12.290
REMARK  5 active torsions:
REMARK  status: ('A' for Active; 'I' for Inactive)
REMARK    1  A    between atoms: C2_2  and  O1_3 
REMARK    2  A    between atoms: O1_3  and  C3_4 
REMARK    3  A    between atoms: C7_9  and  C8_10 
REMARK    4  A    between atoms: C10_12  and  N2_13 
REMARK    5  A    between atoms: C17_21  and  N3_22 
ROOT
HETATM    1  C3  UNL     1      31.309   5.721  48.875  1.00  0.00     0.137 C 
HETATM    2  C4  UNL     1      30.183   5.506  48.160  1.00  0.00     0.166 A 
HETATM    3  C5  UNL     1      28.856   5.918  47.639  1.00  0.00     0.093 A 
HETATM    4  N1  UNL     1      29.245   6.833  48.340  1.00  0.00    -0.355 N 
HETATM    5  C6  UNL     1      28.725   8.051  48.694  1.00  0.00     0.096 C 
HETATM    6  C7  UNL     1      28.157   9.203  49.149  1.00  0.00    -0.040 C 
HETATM    7  C10 UNL     1      28.865   9.951  48.125  1.00  0.00     0.146 C 
HETATM    8  C17 UNL     1      30.318  10.240  48.468  1.00  0.00     0.198 C 
HETATM    9  C20 UNL     1      31.041   8.943  48.718  1.00  0.00     0.242 C 
HETATM   10  O2  UNL     1      31.753   8.243  47.952  1.00  0.00    -0.271 OA
HETATM   11  N4  UNL     1      31.239   8.022  49.775  1.00  0.00    -0.356 N 
HETATM   12  C21 UNL     1      31.961   6.767  49.721  1.00  0.00     0.166 C 
HETATM   13  H29 UNL     1      30.749   8.534  50.529  1.00  0.00     0.162 HD
ENDROOT
BRANCH   7  14
HETATM   14  N2  UNL     1      28.256  11.306  48.144  1.00  0.00    -0.373 N 
HETATM   15  C11 UNL     1      27.145  11.381  47.278  1.00  0.00     0.129 A 
HETATM   16  C12 UNL     1      26.390  12.453  47.123  1.00  0.00     0.137 A 
HETATM   17  F1  UNL     1      25.303  12.547  46.285  1.00  0.00    -0.204 F 
HETATM   18  C13 UNL     1      26.677  13.672  47.861  1.00  0.00    -0.024 A 
HETATM   19  C14 UNL     1      25.894  14.926  47.762  1.00  0.00     0.051 C 
HETATM   20  C15 UNL     1      27.727  13.601  48.663  1.00  0.00     0.003 A 
HETATM   21  C16 UNL     1      28.650  12.466  48.921  1.00  0.00     0.151 A 
ENDBRANCH   7  14
BRANCH   6  22
HETATM   22  C8  UNL     1      27.328   9.426  50.365  1.00  0.00     0.033 C 
HETATM   23  C9  UNL     1      25.870   9.172  50.206  1.00  0.00     0.010 C 
ENDBRANCH   6  22
BRANCH   8  24
HETATM   24  N3  UNL     1      30.849  10.925  47.334  1.00  0.00    -0.407 N 
HETATM   25  C18 UNL     1      32.138  11.522  47.522  1.00  0.00     0.143 C 
HETATM   26  C19 UNL     1      30.620  10.347  46.060  1.00  0.00     0.143 C 
ENDBRANCH   8  24
BRANCH   1  27
HETATM   27  O1  UNL     1      32.294   4.696  48.922  1.00  0.00    -0.373 OA
BRANCH  27  28
HETATM   28  C2  UNL     1      32.696   3.934  47.835  1.00  0.00     0.164 C 
HETATM   29  C1  UNL     1      34.198   3.954  47.622  1.00  0.00     0.033 C 
ENDBRANCH  27  28
ENDBRANCH   1  27
TORSDOF 5
ENDMDL
MODEL 9
REMARK VINA RESULT:      -6.3      4.104      8.042
REMARK  5 active torsions:
REMARK  status: ('A' for Active; 'I' for Inactive)
REMARK    1  A    between atoms: C2_2  and  O1_3 
REMARK    2  A    between atoms: O1_3  and  C3_4 
REMARK    3  A    between atoms: C7_9  and  C8_10 
REMARK    4  A    between atoms: C10_12  and  N2_13 
REMARK    5  A    between atoms: C17_21  and  N3_22 
ROOT
HETATM    1  C3  UNL     1      20.615   4.446  47.517  1.00  0.00     0.137 C 
HETATM    2  C4  UNL     1      20.083   4.792  48.710  1.00  0.00     0.166 A 
HETATM    3  C5  UNL     1      20.005   4.711  50.189  1.00  0.00     0.093 A 
HETATM    4  N1  UNL     1      20.877   3.933  49.852  1.00  0.00    -0.355 N 
HETATM    5  C6  UNL     1      21.713   3.085  50.530  1.00  0.00     0.096 C 
HETATM    6  C7  UNL     1      22.454   2.150  51.189  1.00  0.00    -0.040 C 
HETATM    7  C10 UNL     1      23.573   3.074  51.232  1.00  0.00     0.146 C 
HETATM    8  C17 UNL     1      24.362   3.146  49.934  1.00  0.00     0.198 C 
HETATM    9  C20 UNL     1      23.442   3.540  48.809  1.00  0.00     0.242 C 
HETATM   10  O2  UNL     1      23.215   4.667  48.295  1.00  0.00    -0.271 OA
HETATM   11  N4  UNL     1      22.525   2.929  47.922  1.00  0.00    -0.356 N 
HETATM   12  C21 UNL     1      21.689   3.583  46.935  1.00  0.00     0.166 C 
HETATM   13  H29 UNL     1      22.672   1.941  48.192  1.00  0.00     0.162 HD
ENDROOT
BRANCH   7  14
HETATM   14  N2  UNL     1      24.550   2.458  52.166  1.00  0.00    -0.373 N 
HETATM   15  C11 UNL     1      25.226   1.377  51.562  1.00  0.00     0.129 A 
HETATM   16  C12 UNL     1      26.176   0.669  52.146  1.00  0.00     0.137 A 
HETATM   17  F1  UNL     1      26.847  -0.386  51.575  1.00  0.00    -0.204 F 
HETATM   18  C13 UNL     1      26.590   0.970  53.506  1.00  0.00    -0.024 A 
HETATM   19  C14 UNL     1      27.642   0.241  54.251  1.00  0.00     0.051 C 
HETATM   20  C15 UNL     1      25.945   1.977  54.074  1.00  0.00     0.003 A 
HETATM   21  C16 UNL     1      24.866   2.841  53.529  1.00  0.00     0.151 A 
ENDBRANCH   7  14
BRANCH   6  22
HETATM   22  C8  UNL     1      22.133   0.724  51.471  1.00  0.00     0.033 C 
HETATM   23  C9  UNL     1      21.702   0.425  52.865  1.00  0.00     0.010 C 
ENDBRANCH   6  22
BRANCH   8  24
HETATM   24  N3  UNL     1      25.371   4.132  50.155  1.00  0.00    -0.407 N 
HETATM   25  C18 UNL     1      26.511   4.053  49.290  1.00  0.00     0.143 C 
HETATM   26  C19 UNL     1      24.938   5.442  50.482  1.00  0.00     0.143 C 
ENDBRANCH   8  24
BRANCH   1  27
HETATM   27  O1  UNL     1      20.078   5.026  46.335  1.00  0.00    -0.373 OA
BRANCH  27  28
HETATM   28  C2  UNL     1      20.832   5.594  45.318  1.00  0.00     0.164 C 
HETATM   29  C1  UNL     1      21.212   7.036  45.600  1.00  0.00     0.033 C 
ENDBRANCH  27  28
ENDBRANCH   1  27
TORSDOF 5
ENDMDL
