MODEL 1
REMARK VINA RESULT:      -7.2      0.000      0.000
REMARK  6 active torsions:
REMARK  status: ('A' for Active; 'I' for Inactive)
REMARK    1  A    between atoms: O1_2  and  C2_3 
REMARK    2  A    between atoms: C5_6  and  C6_7 
REMARK    3  A    between atoms: C6_7  and  O2_8 
REMARK    4  A    between atoms: C7_9  and  C8_10 
REMARK    5  A    between atoms: N2_13  and  C10_14 
REMARK    6  A    between atoms: C10_14  and  C11_15 
ROOT
HETATM    1  C6  UNL     1      25.084   2.066  52.556  1.00  0.00     0.074 C 
HETATM    2  C7  UNL     1      24.235   1.758  51.593  1.00  0.00     0.042 C 
ENDROOT
BRANCH   2   3
HETATM    3  C8  UNL     1      22.975   2.396  51.174  1.00  0.00     0.172 A 
HETATM    4  C9  UNL     1      22.498   1.739  49.920  1.00  0.00     0.142 A 
HETATM    5  N1  UNL     1      21.393   1.260  50.383  1.00  0.00    -0.190 NA
HETATM    6  N2  UNL     1      21.747   1.843  51.628  1.00  0.00    -0.288 N 
BRANCH   6   7
HETATM    7  C10 UNL     1      20.897   1.724  52.792  1.00  0.00     0.184 C 
BRANCH   7   8
HETATM    8  C11 UNL     1      21.227   0.451  53.518  1.00  0.00    -0.036 A 
HETATM    9  C12 UNL     1      20.208  -0.484  53.576  1.00  0.00     0.028 A 
HETATM   10  C13 UNL     1      20.387  -1.677  54.207  1.00  0.00     0.116 A 
HETATM   11  N3  UNL     1      21.565  -1.969  54.787  1.00  0.00    -0.273 NA
HETATM   12  C14 UNL     1      22.572  -1.078  54.744  1.00  0.00     0.116 A 
HETATM   13  C15 UNL     1      22.427   0.139  54.115  1.00  0.00     0.028 A 
ENDBRANCH   7   8
ENDBRANCH   6   7
ENDBRANCH   2   3
BRANCH   1  14
HETATM   14  C5  UNL     1      26.302   1.367  52.885  1.00  0.00    -0.003 A 
HETATM   15  C4  UNL     1      26.331   0.007  52.739  1.00  0.00     0.017 A 
HETATM   16  C3  UNL     1      27.534  -0.623  53.072  1.00  0.00     0.037 A 
HETATM   17  C2  UNL     1      28.638   0.102  53.527  1.00  0.00     0.068 A 
HETATM   18  C17 UNL     1      28.536   1.469  53.650  1.00  0.00     0.037 A 
HETATM   19  C16 UNL     1      27.358   2.131  53.329  1.00  0.00     0.017 A 
BRANCH  17  20
HETATM   20  O1  UNL     1      29.779  -0.629  53.826  1.00  0.00    -0.356 OA
HETATM   21  C1  UNL     1      29.772  -2.000  53.458  1.00  0.00     0.210 C 
ENDBRANCH  17  20
ENDBRANCH   1  14
BRANCH   1  22
HETATM   22  O2  UNL     1      24.631   3.197  53.236  1.00  0.00    -0.360 OA
HETATM   23  H6  UNL     1      24.891   4.127  52.986  1.00  0.00     0.217 HD
ENDBRANCH   1  22
TORSDOF 6
ENDMDL
MODEL 2
REMARK VINA RESULT:      -6.9      3.181      5.392
REMARK  6 active torsions:
REMARK  status: ('A' for Active; 'I' for Inactive)
REMARK    1  A    between atoms: O1_2  and  C2_3 
REMARK    2  A    between atoms: C5_6  and  C6_7 
REMARK    3  A    between atoms: C6_7  and  O2_8 
REMARK    4  A    between atoms: C7_9  and  C8_10 
REMARK    5  A    between atoms: N2_13  and  C10_14 
REMARK    6  A    between atoms: C10_14  and  C11_15 
ROOT
HETATM    1  C6  UNL     1      24.109   1.771  51.970  1.00  0.00     0.074 C 
HETATM    2  C7  UNL     1      23.591   2.938  52.307  1.00  0.00     0.042 C 
ENDROOT
BRANCH   2   3
HETATM    3  C8  UNL     1      22.476   3.705  51.725  1.00  0.00     0.172 A 
HETATM    4  C9  UNL     1      22.343   4.996  52.466  1.00  0.00     0.142 A 
HETATM    5  N1  UNL     1      22.602   5.790  51.482  1.00  0.00    -0.190 NA
HETATM    6  N2  UNL     1      22.755   4.628  50.681  1.00  0.00    -0.288 N 
BRANCH   6   7
HETATM    7  C10 UNL     1      23.091   4.711  49.276  1.00  0.00     0.184 C 
BRANCH   7   8
HETATM    8  C11 UNL     1      24.581   4.834  49.129  1.00  0.00    -0.036 A 
HETATM    9  C12 UNL     1      25.037   6.064  48.691  1.00  0.00     0.028 A 
HETATM   10  C13 UNL     1      26.368   6.297  48.520  1.00  0.00     0.116 A 
HETATM   11  N3  UNL     1      27.266   5.328  48.776  1.00  0.00    -0.273 NA
HETATM   12  C14 UNL     1      26.847   4.123  49.203  1.00  0.00     0.116 A 
HETATM   13  C15 UNL     1      25.510   3.852  49.388  1.00  0.00     0.028 A 
ENDBRANCH   7   8
ENDBRANCH   6   7
ENDBRANCH   2   3
BRANCH   1  14
HETATM   14  C5  UNL     1      25.212   1.102  52.613  1.00  0.00    -0.003 A 
HETATM   15  C4  UNL     1      26.483   1.394  52.196  1.00  0.00     0.017 A 
HETATM   16  C3  UNL     1      27.517   0.718  52.850  1.00  0.00     0.037 A 
HETATM   17  C2  UNL     1      27.261  -0.201  53.870  1.00  0.00     0.068 A 
HETATM   18  C17 UNL     1      25.957  -0.445  54.238  1.00  0.00     0.037 A 
HETATM   19  C16 UNL     1      24.902   0.207  53.612  1.00  0.00     0.017 A 
BRANCH  17  20
HETATM   20  O1  UNL     1      28.365  -0.809  54.448  1.00  0.00    -0.356 OA
HETATM   21  C1  UNL     1      29.548  -0.858  53.666  1.00  0.00     0.210 C 
ENDBRANCH  17  20
ENDBRANCH   1  14
BRANCH   1  22
HETATM   22  O2  UNL     1      23.422   1.253  50.871  1.00  0.00    -0.360 OA
HETATM   23  H6  UNL     1      22.867   1.812  50.260  1.00  0.00     0.217 HD
ENDBRANCH   1  22
TORSDOF 6
ENDMDL
MODEL 3
REMARK VINA RESULT:      -6.8      4.019      5.341
REMARK  6 active torsions:
REMARK  status: ('A' for Active; 'I' for Inactive)
REMARK    1  A    between atoms: O1_2  and  C2_3 
REMARK    2  A    between atoms: C5_6  and  C6_7 
REMARK    3  A    between atoms: C6_7  and  O2_8 
REMARK    4  A    between atoms: C7_9  and  C8_10 
REMARK    5  A    between atoms: N2_13  and  C10_14 
REMARK    6  A    between atoms: C10_14  and  C11_15 
ROOT
HETATM    1  C6  UNL     1      24.644   4.644  50.402  1.00  0.00     0.074 C 
HETATM    2  C7  UNL     1      23.794   3.716  50.003  1.00  0.00     0.042 C 
ENDROOT
BRANCH   2   3
HETATM    3  C8  UNL     1      22.605   3.146  50.658  1.00  0.00     0.172 A 
HETATM    4  C9  UNL     1      22.063   2.049  49.801  1.00  0.00     0.142 A 
HETATM    5  N1  UNL     1      22.236   1.076  50.631  1.00  0.00    -0.190 NA
HETATM    6  N2  UNL     1      22.773   2.035  51.530  1.00  0.00    -0.288 N 
BRANCH   6   7
HETATM    7  C10 UNL     1      23.249   1.664  52.844  1.00  0.00     0.184 C 
BRANCH   7   8
HETATM    8  C11 UNL     1      24.616   1.054  52.721  1.00  0.00    -0.036 A 
HETATM    9  C12 UNL     1      24.727  -0.254  53.160  1.00  0.00     0.028 A 
HETATM   10  C13 UNL     1      25.917  -0.914  53.099  1.00  0.00     0.116 A 
HETATM   11  N3  UNL     1      27.010  -0.303  52.608  1.00  0.00    -0.273 NA
HETATM   12  C14 UNL     1      26.927   0.969  52.175  1.00  0.00     0.116 A 
HETATM   13  C15 UNL     1      25.742   1.668  52.221  1.00  0.00     0.028 A 
ENDBRANCH   7   8
ENDBRANCH   6   7
ENDBRANCH   2   3
BRANCH   1  14
HETATM   14  C5  UNL     1      25.788   5.134  49.676  1.00  0.00    -0.003 A 
HETATM   15  C4  UNL     1      26.742   4.236  49.282  1.00  0.00     0.017 A 
HETATM   16  C3  UNL     1      27.832   4.761  48.581  1.00  0.00     0.037 A 
HETATM   17  C2  UNL     1      27.934   6.126  48.302  1.00  0.00     0.068 A 
HETATM   18  C17 UNL     1      26.935   6.972  48.730  1.00  0.00     0.037 A 
HETATM   19  C16 UNL     1      25.837   6.488  49.428  1.00  0.00     0.017 A 
BRANCH  17  20
HETATM   20  O1  UNL     1      29.058   6.533  47.599  1.00  0.00    -0.356 OA
HETATM   21  C1  UNL     1      30.279   5.883  47.917  1.00  0.00     0.210 C 
ENDBRANCH  17  20
ENDBRANCH   1  14
BRANCH   1  22
HETATM   22  O2  UNL     1      24.272   5.105  51.667  1.00  0.00    -0.360 OA
HETATM   23  H6  UNL     1      24.734   5.856  52.134  1.00  0.00     0.217 HD
ENDBRANCH   1  22
TORSDOF 6
ENDMDL
MODEL 4
REMARK VINA RESULT:      -6.6      1.293      2.086
REMARK  6 active torsions:
REMARK  status: ('A' for Active; 'I' for Inactive)
REMARK    1  A    between atoms: O1_2  and  C2_3 
REMARK    2  A    between atoms: C5_6  and  C6_7 
REMARK    3  A    between atoms: C6_7  and  O2_8 
REMARK    4  A    between atoms: C7_9  and  C8_10 
REMARK    5  A    between atoms: N2_13  and  C10_14 
REMARK    6  A    between atoms: C10_14  and  C11_15 
ROOT
HETATM    1  C6  UNL     1      24.886   2.529  52.428  1.00  0.00     0.074 C 
HETATM    2  C7  UNL     1      24.211   2.695  51.305  1.00  0.00     0.042 C 
ENDROOT
BRANCH   2   3
HETATM    3  C8  UNL     1      23.229   3.719  50.909  1.00  0.00     0.172 A 
HETATM    4  C9  UNL     1      22.763   3.427  49.520  1.00  0.00     0.142 A 
HETATM    5  N1  UNL     1      21.520   3.212  49.792  1.00  0.00    -0.190 NA
HETATM    6  N2  UNL     1      21.850   3.470  51.149  1.00  0.00    -0.288 N 
BRANCH   6   7
HETATM    7  C10 UNL     1      20.854   3.416  52.197  1.00  0.00     0.184 C 
BRANCH   7   8
HETATM    8  C11 UNL     1      20.570   1.980  52.536  1.00  0.00    -0.036 A 
HETATM    9  C12 UNL     1      21.515   1.358  53.333  1.00  0.00     0.028 A 
HETATM   10  C13 UNL     1      21.368   0.057  53.707  1.00  0.00     0.116 A 
HETATM   11  N3  UNL     1      20.294  -0.649  53.307  1.00  0.00    -0.273 NA
HETATM   12  C14 UNL     1      19.361  -0.066  52.532  1.00  0.00     0.116 A 
HETATM   13  C15 UNL     1      19.477   1.248  52.134  1.00  0.00     0.028 A 
ENDBRANCH   7   8
ENDBRANCH   6   7
ENDBRANCH   2   3
BRANCH   1  14
HETATM   14  C5  UNL     1      25.833   1.482  52.715  1.00  0.00    -0.003 A 
HETATM   15  C4  UNL     1      27.143   1.825  52.912  1.00  0.00     0.017 A 
HETATM   16  C3  UNL     1      28.022   0.773  53.187  1.00  0.00     0.037 A 
HETATM   17  C2  UNL     1      27.580  -0.550  53.257  1.00  0.00     0.068 A 
HETATM   18  C17 UNL     1      26.246  -0.822  53.048  1.00  0.00     0.037 A 
HETATM   19  C16 UNL     1      25.343   0.196  52.772  1.00  0.00     0.017 A 
BRANCH  17  20
HETATM   20  O1  UNL     1      28.541  -1.511  53.538  1.00  0.00    -0.356 OA
HETATM   21  C1  UNL     1      29.877  -1.054  53.677  1.00  0.00     0.210 C 
ENDBRANCH  17  20
ENDBRANCH   1  14
BRANCH   1  22
HETATM   22  O2  UNL     1      24.549   3.540  53.330  1.00  0.00    -0.360 OA
HETATM   23  H6  UNL     1      23.785   3.472  53.968  1.00  0.00     0.217 HD
ENDBRANCH   1  22
TORSDOF 6
ENDMDL
MODEL 5
REMARK VINA RESULT:      -6.5      3.324      5.958
REMARK  6 active torsions:
REMARK  status: ('A' for Active; 'I' for Inactive)
REMARK    1  A    between atoms: O1_2  and  C2_3 
REMARK    2  A    between atoms: C5_6  and  C6_7 
REMARK    3  A    between atoms: C6_7  and  O2_8 
REMARK    4  A    between atoms: C7_9  and  C8_10 
REMARK    5  A    between atoms: N2_13  and  C10_14 
REMARK    6  A    between atoms: C10_14  and  C11_15 
ROOT
HETATM    1  C6  UNL     1      26.023   3.312  50.604  1.00  0.00     0.074 C 
HETATM    2  C7  UNL     1      25.693   2.280  51.360  1.00  0.00     0.042 C 
ENDROOT
BRANCH   2   3
HETATM    3  C8  UNL     1      26.508   1.426  52.240  1.00  0.00     0.172 A 
HETATM    4  C9  UNL     1      26.786   2.168  53.507  1.00  0.00     0.142 A 
HETATM    5  N1  UNL     1      26.172   1.372  54.316  1.00  0.00    -0.190 NA
HETATM    6  N2  UNL     1      25.847   0.587  53.179  1.00  0.00    -0.288 N 
BRANCH   6   7
HETATM    7  C10 UNL     1      25.072  -0.630  53.291  1.00  0.00     0.184 C 
BRANCH   7   8
HETATM    8  C11 UNL     1      23.632  -0.279  53.534  1.00  0.00    -0.036 A 
HETATM    9  C12 UNL     1      23.027  -0.940  54.588  1.00  0.00     0.028 A 
HETATM   10  C13 UNL     1      21.723  -0.705  54.906  1.00  0.00     0.116 A 
HETATM   11  N3  UNL     1      20.999   0.179  54.197  1.00  0.00    -0.273 NA
HETATM   12  C14 UNL     1      21.564   0.835  53.167  1.00  0.00     0.116 A 
HETATM   13  C15 UNL     1      22.879   0.623  52.817  1.00  0.00     0.028 A 
ENDBRANCH   7   8
ENDBRANCH   6   7
ENDBRANCH   2   3
BRANCH   1  14
HETATM   14  C5  UNL     1      25.138   4.087  49.771  1.00  0.00    -0.003 A 
HETATM   15  C4  UNL     1      23.921   3.553  49.442  1.00  0.00     0.017 A 
HETATM   16  C3  UNL     1      23.100   4.344  48.632  1.00  0.00     0.037 A 
HETATM   17  C2  UNL     1      23.506   5.605  48.188  1.00  0.00     0.068 A 
HETATM   18  C17 UNL     1      24.744   6.078  48.559  1.00  0.00     0.037 A 
HETATM   19  C16 UNL     1      25.588   5.322  49.363  1.00  0.00     0.017 A 
BRANCH  17  20
HETATM   20  O1  UNL     1      22.608   6.299  47.391  1.00  0.00    -0.356 OA
HETATM   21  C1  UNL     1      21.830   5.530  46.488  1.00  0.00     0.210 C 
ENDBRANCH  17  20
ENDBRANCH   1  14
BRANCH   1  22
HETATM   22  O2  UNL     1      27.391   3.561  50.725  1.00  0.00    -0.360 OA
HETATM   23  H6  UNL     1      27.856   3.651  51.603  1.00  0.00     0.217 HD
ENDBRANCH   1  22
TORSDOF 6
ENDMDL
MODEL 6
REMARK VINA RESULT:      -6.4      8.175     10.861
REMARK  6 active torsions:
REMARK  status: ('A' for Active; 'I' for Inactive)
REMARK    1  A    between atoms: O1_2  and  C2_3 
REMARK    2  A    between atoms: C5_6  and  C6_7 
REMARK    3  A    between atoms: C6_7  and  O2_8 
REMARK    4  A    between atoms: C7_9  and  C8_10 
REMARK    5  A    between atoms: N2_13  and  C10_14 
REMARK    6  A    between atoms: C10_14  and  C11_15 
ROOT
HETATM    1  C6  UNL     1      28.192   7.548  47.698  1.00  0.00     0.074 C 
HETATM    2  C7  UNL     1      28.566   8.649  48.323  1.00  0.00     0.042 C 
ENDROOT
BRANCH   2   3
HETATM    3  C8  UNL     1      29.387   9.786  47.872  1.00  0.00     0.172 A 
HETATM    4  C9  UNL     1      29.419  10.815  48.954  1.00  0.00     0.142 A 
HETATM    5  N1  UNL     1      30.687  10.779  49.193  1.00  0.00    -0.190 NA
HETATM    6  N2  UNL     1      30.775   9.789  48.180  1.00  0.00    -0.288 N 
BRANCH   6   7
HETATM    7  C10 UNL     1      32.037   9.180  47.818  1.00  0.00     0.184 C 
BRANCH   7   8
HETATM    8  C11 UNL     1      31.961   7.700  48.065  1.00  0.00    -0.036 A 
HETATM    9  C12 UNL     1      31.872   7.321  49.392  1.00  0.00     0.028 A 
HETATM   10  C13 UNL     1      31.797   6.006  49.741  1.00  0.00     0.116 A 
HETATM   11  N3  UNL     1      31.807   5.050  48.795  1.00  0.00    -0.273 NA
HETATM   12  C14 UNL     1      31.893   5.393  47.497  1.00  0.00     0.116 A 
HETATM   13  C15 UNL     1      31.971   6.712  47.107  1.00  0.00     0.028 A 
ENDBRANCH   7   8
ENDBRANCH   6   7
ENDBRANCH   2   3
BRANCH   1  14
HETATM   14  C5  UNL     1      27.379   6.487  48.237  1.00  0.00    -0.003 A 
HETATM   15  C4  UNL     1      27.978   5.292  48.529  1.00  0.00     0.017 A 
HETATM   16  C3  UNL     1      27.146   4.295  49.049  1.00  0.00     0.037 A 
HETATM   17  C2  UNL     1      25.783   4.515  49.256  1.00  0.00     0.068 A 
HETATM   18  C17 UNL     1      25.247   5.743  48.939  1.00  0.00     0.037 A 
HETATM   19  C16 UNL     1      26.041   6.758  48.421  1.00  0.00     0.017 A 
BRANCH  17  20
HETATM   20  O1  UNL     1      25.056   3.454  49.777  1.00  0.00    -0.356 OA
HETATM   21  C1  UNL     1      23.739   3.279  49.280  1.00  0.00     0.210 C 
ENDBRANCH  17  20
ENDBRANCH   1  14
BRANCH   1  22
HETATM   22  O2  UNL     1      28.706   7.549  46.400  1.00  0.00    -0.360 OA
HETATM   23  H6  UNL     1      28.225   7.943  45.621  1.00  0.00     0.217 HD
ENDBRANCH   1  22
TORSDOF 6
ENDMDL
MODEL 7
REMARK VINA RESULT:      -6.4      2.238      4.078
REMARK  6 active torsions:
REMARK  status: ('A' for Active; 'I' for Inactive)
REMARK    1  A    between atoms: O1_2  and  C2_3 
REMARK    2  A    between atoms: C5_6  and  C6_7 
REMARK    3  A    between atoms: C6_7  and  O2_8 
REMARK    4  A    between atoms: C7_9  and  C8_10 
REMARK    5  A    between atoms: N2_13  and  C10_14 
REMARK    6  A    between atoms: C10_14  and  C11_15 
ROOT
HETATM    1  C6  UNL     1      23.975   1.270  51.686  1.00  0.00     0.074 C 
HETATM    2  C7  UNL     1      22.715   0.912  51.856  1.00  0.00     0.042 C 
ENDROOT
BRANCH   2   3
HETATM    3  C8  UNL     1      21.491   1.313  51.143  1.00  0.00     0.172 A 
HETATM    4  C9  UNL     1      20.404   0.341  51.471  1.00  0.00     0.142 A 
HETATM    5  N1  UNL     1      19.603   1.166  52.057  1.00  0.00    -0.190 NA
HETATM    6  N2  UNL     1      20.569   2.173  51.800  1.00  0.00    -0.288 N 
BRANCH   6   7
HETATM    7  C10 UNL     1      20.365   3.546  52.210  1.00  0.00     0.184 C 
BRANCH   7   8
HETATM    8  C11 UNL     1      21.512   4.384  51.722  1.00  0.00    -0.036 A 
HETATM    9  C12 UNL     1      21.400   4.850  50.424  1.00  0.00     0.028 A 
HETATM   10  C13 UNL     1      22.377   5.621  49.869  1.00  0.00     0.116 A 
HETATM   11  N3  UNL     1      23.473   5.943  50.579  1.00  0.00    -0.273 NA
HETATM   12  C14 UNL     1      23.606   5.502  51.843  1.00  0.00     0.116 A 
HETATM   13  C15 UNL     1      22.639   4.721  52.436  1.00  0.00     0.028 A 
ENDBRANCH   7   8
ENDBRANCH   6   7
ENDBRANCH   2   3
BRANCH   1  14
HETATM   14  C5  UNL     1      25.110   0.813  52.448  1.00  0.00    -0.003 A 
HETATM   15  C4  UNL     1      26.364   1.125  51.998  1.00  0.00     0.017 A 
HETATM   16  C3  UNL     1      27.431   0.658  52.772  1.00  0.00     0.037 A 
HETATM   17  C2  UNL     1      27.220  -0.082  53.937  1.00  0.00     0.068 A 
HETATM   18  C17 UNL     1      25.930  -0.358  54.330  1.00  0.00     0.037 A 
HETATM   19  C16 UNL     1      24.845   0.088  53.588  1.00  0.00     0.017 A 
BRANCH  17  20
HETATM   20  O1  UNL     1      28.354  -0.491  54.624  1.00  0.00    -0.356 OA
HETATM   21  C1  UNL     1      29.489  -0.823  53.841  1.00  0.00     0.210 C 
ENDBRANCH  17  20
ENDBRANCH   1  14
BRANCH   1  22
HETATM   22  O2  UNL     1      24.064   2.181  50.632  1.00  0.00    -0.360 OA
HETATM   23  H6  UNL     1      24.295   3.143  50.757  1.00  0.00     0.217 HD
ENDBRANCH   1  22
TORSDOF 6
ENDMDL
MODEL 8
REMARK VINA RESULT:      -6.4      4.746      6.139
REMARK  6 active torsions:
REMARK  status: ('A' for Active; 'I' for Inactive)
REMARK    1  A    between atoms: O1_2  and  C2_3 
REMARK    2  A    between atoms: C5_6  and  C6_7 
REMARK    3  A    between atoms: C6_7  and  O2_8 
REMARK    4  A    between atoms: C7_9  and  C8_10 
REMARK    5  A    between atoms: N2_13  and  C10_14 
REMARK    6  A    between atoms: C10_14  and  C11_15 
ROOT
HETATM    1  C6  UNL     1      26.149   3.981  49.622  1.00  0.00     0.074 C 
HETATM    2  C7  UNL     1      26.716   3.259  50.571  1.00  0.00     0.042 C 
ENDROOT
BRANCH   2   3
HETATM    3  C8  UNL     1      26.215   2.107  51.339  1.00  0.00     0.172 A 
HETATM    4  C9  UNL     1      27.231   1.739  52.371  1.00  0.00     0.142 A 
HETATM    5  N1  UNL     1      26.513   1.974  53.417  1.00  0.00    -0.190 NA
HETATM    6  N2  UNL     1      25.473   2.350  52.527  1.00  0.00    -0.288 N 
BRANCH   6   7
HETATM    7  C10 UNL     1      24.182   2.793  53.009  1.00  0.00     0.184 C 
BRANCH   7   8
HETATM    8  C11 UNL     1      23.122   1.843  52.529  1.00  0.00    -0.036 A 
HETATM    9  C12 UNL     1      23.116   0.600  53.138  1.00  0.00     0.028 A 
HETATM   10  C13 UNL     1      22.202  -0.347  52.787  1.00  0.00     0.116 A 
HETATM   11  N3  UNL     1      21.284  -0.087  51.838  1.00  0.00    -0.273 NA
HETATM   12  C14 UNL     1      21.269   1.114  51.232  1.00  0.00     0.116 A 
HETATM   13  C15 UNL     1      22.178   2.095  51.560  1.00  0.00     0.028 A 
ENDBRANCH   7   8
ENDBRANCH   6   7
ENDBRANCH   2   3
BRANCH   1  14
HETATM   14  C5  UNL     1      26.733   5.101  48.927  1.00  0.00    -0.003 A 
HETATM   15  C4  UNL     1      28.060   5.042  48.597  1.00  0.00     0.017 A 
HETATM   16  C3  UNL     1      28.579   6.153  47.925  1.00  0.00     0.037 A 
HETATM   17  C2  UNL     1      27.782   7.255  47.611  1.00  0.00     0.068 A 
HETATM   18  C17 UNL     1      26.453   7.246  47.973  1.00  0.00     0.037 A 
HETATM   19  C16 UNL     1      25.902   6.161  48.642  1.00  0.00     0.017 A 
BRANCH  17  20
HETATM   20  O1  UNL     1      28.404   8.299  46.941  1.00  0.00    -0.356 OA
HETATM   21  C1  UNL     1      29.767   8.535  47.256  1.00  0.00     0.210 C 
ENDBRANCH  17  20
ENDBRANCH   1  14
BRANCH   1  22
HETATM   22  O2  UNL     1      24.863   3.498  49.371  1.00  0.00    -0.360 OA
HETATM   23  H6  UNL     1      24.621   2.985  48.551  1.00  0.00     0.217 HD
ENDBRANCH   1  22
TORSDOF 6
ENDMDL
MODEL 9
REMARK VINA RESULT:      -6.4      7.992     11.067
REMARK  6 active torsions:
REMARK  status: ('A' for Active; 'I' for Inactive)
REMARK    1  A    between atoms: O1_2  and  C2_3 
REMARK    2  A    between atoms: C5_6  and  C6_7 
REMARK    3  A    between atoms: C6_7  and  O2_8 
REMARK    4  A    between atoms: C7_9  and  C8_10 
REMARK    5  A    between atoms: N2_13  and  C10_14 
REMARK    6  A    between atoms: C10_14  and  C11_15 
ROOT
HETATM    1  C6  UNL     1      28.295   5.784  48.442  1.00  0.00     0.074 C 
HETATM    2  C7  UNL     1      28.578   6.770  47.610  1.00  0.00     0.042 C 
ENDROOT
BRANCH   2   3
HETATM    3  C8  UNL     1      29.869   7.340  47.189  1.00  0.00     0.172 A 
HETATM    4  C9  UNL     1      29.636   8.715  46.654  1.00  0.00     0.142 A 
HETATM    5  N1  UNL     1      30.328   9.364  47.530  1.00  0.00    -0.190 NA
HETATM    6  N2  UNL     1      30.615   8.107  48.125  1.00  0.00    -0.288 N 
BRANCH   6   7
HETATM    7  C10 UNL     1      31.442   7.996  49.307  1.00  0.00     0.184 C 
BRANCH   7   8
HETATM    8  C11 UNL     1      32.730   7.312  48.947  1.00  0.00    -0.036 A 
HETATM    9  C12 UNL     1      33.764   8.149  48.568  1.00  0.00     0.028 A 
HETATM   10  C13 UNL     1      34.981   7.645  48.218  1.00  0.00     0.116 A 
HETATM   11  N3  UNL     1      35.198   6.318  48.238  1.00  0.00    -0.273 NA
HETATM   12  C14 UNL     1      34.208   5.483  48.603  1.00  0.00     0.116 A 
HETATM   13  C15 UNL     1      32.966   5.956  48.962  1.00  0.00     0.028 A 
ENDBRANCH   7   8
ENDBRANCH   6   7
ENDBRANCH   2   3
BRANCH   1  14
HETATM   14  C5  UNL     1      26.983   5.301  48.789  1.00  0.00    -0.003 A 
HETATM   15  C4  UNL     1      26.866   4.027  49.277  1.00  0.00     0.017 A 
HETATM   16  C3  UNL     1      25.572   3.606  49.597  1.00  0.00     0.037 A 
HETATM   17  C2  UNL     1      24.467   4.442  49.427  1.00  0.00     0.068 A 
HETATM   18  C17 UNL     1      24.659   5.712  48.932  1.00  0.00     0.037 A 
HETATM   19  C16 UNL     1      25.929   6.167  48.602  1.00  0.00     0.017 A 
BRANCH  17  20
HETATM   20  O1  UNL     1      23.232   3.918  49.780  1.00  0.00    -0.356 OA
HETATM   21  C1  UNL     1      23.202   2.545  50.140  1.00  0.00     0.210 C 
ENDBRANCH  17  20
ENDBRANCH   1  14
BRANCH   1  22
HETATM   22  O2  UNL     1      29.479   5.254  48.958  1.00  0.00    -0.360 OA
HETATM   23  H6  UNL     1      29.679   5.207  49.934  1.00  0.00     0.217 HD
ENDBRANCH   1  22
TORSDOF 6
ENDMDL
