MODEL 1
REMARK VINA RESULT:      -8.1      0.000      0.000
REMARK  7 active torsions:
REMARK  status: ('A' for Active; 'I' for Inactive)
REMARK    1  A    between atoms: C2_2  and  N1_3 
REMARK    2  A    between atoms: N1_3  and  C3_4 
REMARK    3  A    between atoms: N1_3  and  C5_6 
REMARK    4  A    between atoms: C5_6  and  C6_7 
REMARK    5  A    between atoms: C7_8  and  C8_9 
REMARK    6  A    between atoms: C8_9  and  N2_10 
REMARK    7  A    between atoms: C21_27  and  N5_28 
ROOT
HETATM    1  N2  UNL     1      25.892   0.732  52.574  1.00  0.00    -0.369 N 
HETATM    2  C9  UNL     1      24.654   1.010  51.949  1.00  0.00     0.148 C 
HETATM    3  C10 UNL     1      23.512   0.319  52.614  1.00  0.00     0.004 C 
HETATM    4  C11 UNL     1      23.406  -0.224  53.832  1.00  0.00    -0.002 C 
HETATM    5  C12 UNL     1      22.128  -0.811  54.136  1.00  0.00     0.076 C 
HETATM    6  C13 UNL     1      20.838  -0.618  53.552  1.00  0.00    -0.005 A 
HETATM    7  C14 UNL     1      20.263   0.235  52.656  1.00  0.00     0.017 A 
HETATM    8  C15 UNL     1      19.014   0.237  52.102  1.00  0.00     0.045 A 
HETATM    9  C16 UNL     1      18.204  -0.794  52.520  1.00  0.00     0.138 A 
HETATM   10  F1  UNL     1      16.950  -0.849  52.007  1.00  0.00    -0.204 F 
HETATM   11  C17 UNL     1      18.623  -1.742  53.421  1.00  0.00     0.073 A 
HETATM   12 CL1  UNL     1      17.535  -3.008  53.890  1.00  0.00    -0.081 Cl
HETATM   13  C18 UNL     1      19.906  -1.621  53.897  1.00  0.00     0.041 A 
HETATM   14  N3  UNL     1      22.300  -1.661  55.126  1.00  0.00    -0.241 NA
HETATM   15  C19 UNL     1      23.548  -1.845  55.745  1.00  0.00     0.228 C 
HETATM   16  N4  UNL     1      24.682  -1.236  55.510  1.00  0.00    -0.269 NA
HETATM   17  C20 UNL     1      24.714  -0.193  54.493  1.00  0.00     0.196 C 
HETATM   18  C21 UNL     1      25.874  -0.263  53.582  1.00  0.00     0.345 C 
ENDROOT
BRANCH   1  19
HETATM   19  C8  UNL     1      26.987   1.564  52.403  1.00  0.00     0.214 C 
BRANCH  19  20
HETATM   20  C7  UNL     1      26.795   2.495  51.284  1.00  0.00    -0.085 C 
HETATM   21  C6  UNL     1      26.653   3.274  50.368  1.00  0.00    -0.086 C 
BRANCH  21  22
HETATM   22  C5  UNL     1      26.502   4.239  49.254  1.00  0.00     0.211 C 
BRANCH  22  23
HETATM   23  N1  UNL     1      25.856   5.391  49.778  1.00  0.00    -0.403 N 
BRANCH  23  24
HETATM   24  C2  UNL     1      24.461   5.231  50.028  1.00  0.00     0.113 C 
HETATM   25  C1  UNL     1      23.753   4.848  48.754  1.00  0.00     0.026 C 
ENDBRANCH  23  24
BRANCH  23  26
HETATM   26  C3  UNL     1      26.273   6.662  49.306  1.00  0.00     0.113 C 
HETATM   27  C4  UNL     1      27.423   6.601  48.309  1.00  0.00     0.026 C 
ENDBRANCH  23  26
ENDBRANCH  22  23
ENDBRANCH  21  22
ENDBRANCH  19  20
ENDBRANCH   1  19
BRANCH  18  28
HETATM   28  N5  UNL     1      27.101  -0.236  54.325  1.00  0.00     0.103 N 
HETATM   29  H24 UNL     1      27.938  -0.552  53.804  1.00  0.00     0.315 HD
HETATM   30  H25 UNL     1      27.046  -0.801  55.200  1.00  0.00     0.315 HD
ENDBRANCH  18  28
TORSDOF 7
ENDMDL
MODEL 2
REMARK VINA RESULT:      -7.9      6.177     10.294
REMARK  7 active torsions:
REMARK  status: ('A' for Active; 'I' for Inactive)
REMARK    1  A    between atoms: C2_2  and  N1_3 
REMARK    2  A    between atoms: N1_3  and  C3_4 
REMARK    3  A    between atoms: N1_3  and  C5_6 
REMARK    4  A    between atoms: C5_6  and  C6_7 
REMARK    5  A    between atoms: C7_8  and  C8_9 
REMARK    6  A    between atoms: C8_9  and  N2_10 
REMARK    7  A    between atoms: C21_27  and  N5_28 
ROOT
HETATM    1  N2  UNL     1      25.008   2.878  50.408  1.00  0.00    -0.369 N 
HETATM    2  C9  UNL     1      26.396   2.914  50.144  1.00  0.00     0.148 C 
HETATM    3  C10 UNL     1      26.804   4.145  49.407  1.00  0.00     0.004 C 
HETATM    4  C11 UNL     1      26.181   5.318  49.250  1.00  0.00    -0.002 C 
HETATM    5  C12 UNL     1      26.890   6.292  48.464  1.00  0.00     0.076 C 
HETATM    6  C13 UNL     1      28.273   6.402  48.120  1.00  0.00    -0.005 A 
HETATM    7  C14 UNL     1      29.443   5.799  48.477  1.00  0.00     0.017 A 
HETATM    8  C15 UNL     1      30.708   5.940  47.979  1.00  0.00     0.045 A 
HETATM    9  C16 UNL     1      30.815   6.842  46.946  1.00  0.00     0.138 A 
HETATM   10  F1  UNL     1      32.045   7.030  46.406  1.00  0.00    -0.204 F 
HETATM   11  C17 UNL     1      29.736   7.540  46.462  1.00  0.00     0.073 A 
HETATM   12 CL1  UNL     1      29.963   8.656  45.154  1.00  0.00    -0.081 Cl
HETATM   13  C18 UNL     1      28.522   7.297  47.057  1.00  0.00     0.041 A 
HETATM   14  N3  UNL     1      26.016   7.175  48.030  1.00  0.00    -0.241 NA
HETATM   15  C19 UNL     1      24.656   7.115  48.380  1.00  0.00     0.228 C 
HETATM   16  N4  UNL     1      24.045   6.268  49.170  1.00  0.00    -0.269 NA
HETATM   17  C20 UNL     1      24.836   5.235  49.826  1.00  0.00     0.196 C 
HETATM   18  C21 UNL     1      24.228   3.890  49.797  1.00  0.00     0.345 C 
ENDROOT
BRANCH   1  19
HETATM   19  C8  UNL     1      24.487   2.073  51.410  1.00  0.00     0.214 C 
BRANCH  19  20
HETATM   20  C7  UNL     1      25.458   1.072  51.866  1.00  0.00    -0.085 C 
HETATM   21  C6  UNL     1      26.272   0.262  52.251  1.00  0.00    -0.086 C 
BRANCH  21  22
HETATM   22  C5  UNL     1      27.279  -0.711  52.736  1.00  0.00     0.211 C 
BRANCH  22  23
HETATM   23  N1  UNL     1      28.381   0.036  53.234  1.00  0.00    -0.403 N 
BRANCH  23  24
HETATM   24  C2  UNL     1      29.548  -0.736  53.510  1.00  0.00     0.113 C 
HETATM   25  C1  UNL     1      29.267  -2.195  53.260  1.00  0.00     0.026 C 
ENDBRANCH  23  24
BRANCH  23  26
HETATM   26  C3  UNL     1      28.112   1.114  54.115  1.00  0.00     0.113 C 
HETATM   27  C4  UNL     1      28.718   2.439  53.669  1.00  0.00     0.026 C 
ENDBRANCH  23  26
ENDBRANCH  22  23
ENDBRANCH  21  22
ENDBRANCH  19  20
ENDBRANCH   1  19
BRANCH  18  28
HETATM   28  N5  UNL     1      22.914   3.917  50.372  1.00  0.00     0.103 N 
HETATM   29  H24 UNL     1      22.675   3.101  50.962  1.00  0.00     0.315 HD
HETATM   30  H25 UNL     1      22.168   4.009  49.650  1.00  0.00     0.315 HD
ENDBRANCH  18  28
TORSDOF 7
ENDMDL
MODEL 3
REMARK VINA RESULT:      -7.8      3.745      7.820
REMARK  7 active torsions:
REMARK  status: ('A' for Active; 'I' for Inactive)
REMARK    1  A    between atoms: C2_2  and  N1_3 
REMARK    2  A    between atoms: N1_3  and  C3_4 
REMARK    3  A    between atoms: N1_3  and  C5_6 
REMARK    4  A    between atoms: C5_6  and  C6_7 
REMARK    5  A    between atoms: C7_8  and  C8_9 
REMARK    6  A    between atoms: C8_9  and  N2_10 
REMARK    7  A    between atoms: C21_27  and  N5_28 
ROOT
HETATM    1  N2  UNL     1      23.370  -0.179  54.013  1.00  0.00    -0.369 N 
HETATM    2  C9  UNL     1      22.771   0.702  53.083  1.00  0.00     0.148 C 
HETATM    3  C10 UNL     1      23.777   1.481  52.306  1.00  0.00     0.004 C 
HETATM    4  C11 UNL     1      25.083   1.271  52.106  1.00  0.00    -0.002 C 
HETATM    5  C12 UNL     1      25.745   2.249  51.283  1.00  0.00     0.076 C 
HETATM    6  C13 UNL     1      25.232   3.194  50.342  1.00  0.00    -0.005 A 
HETATM    7  C14 UNL     1      24.038   3.455  49.737  1.00  0.00     0.017 A 
HETATM    8  C15 UNL     1      23.660   4.478  48.914  1.00  0.00     0.045 A 
HETATM    9  C16 UNL     1      24.651   5.396  48.655  1.00  0.00     0.138 A 
HETATM   10  F1  UNL     1      24.341   6.438  47.845  1.00  0.00    -0.204 F 
HETATM   11  C17 UNL     1      25.915   5.285  49.182  1.00  0.00     0.073 A 
HETATM   12 CL1  UNL     1      27.102   6.490  48.803  1.00  0.00    -0.081 Cl
HETATM   13  C18 UNL     1      26.155   4.204  49.994  1.00  0.00     0.041 A 
HETATM   14  N3  UNL     1      27.035   2.180  51.534  1.00  0.00    -0.241 NA
HETATM   15  C19 UNL     1      27.574   1.238  52.428  1.00  0.00     0.228 C 
HETATM   16  N4  UNL     1      26.961   0.298  53.101  1.00  0.00    -0.269 NA
HETATM   17  C20 UNL     1      25.524   0.139  52.924  1.00  0.00     0.196 C 
HETATM   18  C21 UNL     1      24.771  -0.054  54.180  1.00  0.00     0.345 C 
ENDROOT
BRANCH   1  19
HETATM   19  C8  UNL     1      22.679  -1.267  54.522  1.00  0.00     0.214 C 
BRANCH  19  20
HETATM   20  C7  UNL     1      21.262  -1.242  54.139  1.00  0.00    -0.085 C 
HETATM   21  C6  UNL     1      20.092  -1.200  53.830  1.00  0.00    -0.086 C 
BRANCH  21  22
HETATM   22  C5  UNL     1      18.660  -1.124  53.456  1.00  0.00     0.211 C 
BRANCH  22  23
HETATM   23  N1  UNL     1      18.590  -0.509  52.177  1.00  0.00    -0.403 N 
BRANCH  23  24
HETATM   24  C2  UNL     1      19.267   0.742  52.079  1.00  0.00     0.113 C 
HETATM   25  C1  UNL     1      19.926   0.863  50.728  1.00  0.00     0.026 C 
ENDBRANCH  23  24
BRANCH  23  26
HETATM   26  C3  UNL     1      17.385  -0.636  51.441  1.00  0.00     0.113 C 
HETATM   27  C4  UNL     1      16.254  -1.295  52.221  1.00  0.00     0.026 C 
ENDBRANCH  23  26
ENDBRANCH  22  23
ENDBRANCH  21  22
ENDBRANCH  19  20
ENDBRANCH   1  19
BRANCH  18  28
HETATM   28  N5  UNL     1      25.285  -1.177  54.910  1.00  0.00     0.103 N 
HETATM   29  H24 UNL     1      26.316  -1.250  54.936  1.00  0.00     0.315 HD
HETATM   30  H25 UNL     1      24.916  -2.084  54.551  1.00  0.00     0.315 HD
ENDBRANCH  18  28
TORSDOF 7
ENDMDL
MODEL 4
REMARK VINA RESULT:      -7.8      4.767      8.782
REMARK  7 active torsions:
REMARK  status: ('A' for Active; 'I' for Inactive)
REMARK    1  A    between atoms: C2_2  and  N1_3 
REMARK    2  A    between atoms: N1_3  and  C3_4 
REMARK    3  A    between atoms: N1_3  and  C5_6 
REMARK    4  A    between atoms: C5_6  and  C6_7 
REMARK    5  A    between atoms: C7_8  and  C8_9 
REMARK    6  A    between atoms: C8_9  and  N2_10 
REMARK    7  A    between atoms: C21_27  and  N5_28 
ROOT
HETATM    1  N2  UNL     1      22.532   1.827  51.386  1.00  0.00    -0.369 N 
HETATM    2  C9  UNL     1      23.810   1.857  50.781  1.00  0.00     0.148 C 
HETATM    3  C10 UNL     1      24.219   3.235  50.382  1.00  0.00     0.004 C 
HETATM    4  C11 UNL     1      23.763   4.431  50.770  1.00  0.00    -0.002 C 
HETATM    5  C12 UNL     1      24.411   5.564  50.165  1.00  0.00     0.076 C 
HETATM    6  C13 UNL     1      25.676   5.690  49.511  1.00  0.00    -0.005 A 
HETATM    7  C14 UNL     1      26.790   4.924  49.334  1.00  0.00     0.017 A 
HETATM    8  C15 UNL     1      27.911   5.140  48.583  1.00  0.00     0.045 A 
HETATM    9  C16 UNL     1      27.912   6.330  47.891  1.00  0.00     0.138 A 
HETATM   10  F1  UNL     1      28.996   6.606  47.126  1.00  0.00    -0.204 F 
HETATM   11  C17 UNL     1      26.869   7.222  47.958  1.00  0.00     0.073 A 
HETATM   12 CL1  UNL     1      26.955   8.697  47.052  1.00  0.00    -0.081 Cl
HETATM   13  C18 UNL     1      25.805   6.874  48.754  1.00  0.00     0.041 A 
HETATM   14  N3  UNL     1      23.605   6.598  50.279  1.00  0.00    -0.241 NA
HETATM   15  C19 UNL     1      22.371   6.514  50.947  1.00  0.00     0.228 C 
HETATM   16  N4  UNL     1      21.839   5.493  51.569  1.00  0.00    -0.269 NA
HETATM   17  C20 UNL     1      22.592   4.248  51.633  1.00  0.00     0.196 C 
HETATM   18  C21 UNL     1      21.795   3.037  51.353  1.00  0.00     0.345 C 
ENDROOT
BRANCH   1  19
HETATM   19  C8  UNL     1      22.141   0.767  52.190  1.00  0.00     0.214 C 
BRANCH  19  20
HETATM   20  C7  UNL     1      23.263   0.233  52.971  1.00  0.00    -0.085 C 
HETATM   21  C6  UNL     1      24.185  -0.193  53.630  1.00  0.00    -0.086 C 
BRANCH  21  22
HETATM   22  C5  UNL     1      25.305  -0.701  54.457  1.00  0.00     0.211 C 
BRANCH  22  23
HETATM   23  N1  UNL     1      26.493  -0.078  53.987  1.00  0.00    -0.403 N 
BRANCH  23  24
HETATM   24  C2  UNL     1      26.555   1.330  54.207  1.00  0.00     0.113 C 
HETATM   25  C1  UNL     1      27.488   1.963  53.206  1.00  0.00     0.026 C 
ENDBRANCH  23  24
BRANCH  23  26
HETATM   26  C3  UNL     1      27.063  -0.557  52.780  1.00  0.00     0.113 C 
HETATM   27  C4  UNL     1      27.167  -2.075  52.707  1.00  0.00     0.026 C 
ENDBRANCH  23  26
ENDBRANCH  22  23
ENDBRANCH  21  22
ENDBRANCH  19  20
ENDBRANCH   1  19
BRANCH  18  28
HETATM   28  N5  UNL     1      20.671   2.955  52.240  1.00  0.00     0.103 N 
HETATM   29  H24 UNL     1      19.866   2.412  51.883  1.00  0.00     0.315 HD
HETATM   30  H25 UNL     1      20.316   3.896  52.516  1.00  0.00     0.315 HD
ENDBRANCH  18  28
TORSDOF 7
ENDMDL
MODEL 5
REMARK VINA RESULT:      -7.8      4.646      8.968
REMARK  7 active torsions:
REMARK  status: ('A' for Active; 'I' for Inactive)
REMARK    1  A    between atoms: C2_2  and  N1_3 
REMARK    2  A    between atoms: N1_3  and  C3_4 
REMARK    3  A    between atoms: N1_3  and  C5_6 
REMARK    4  A    between atoms: C5_6  and  C6_7 
REMARK    5  A    between atoms: C7_8  and  C8_9 
REMARK    6  A    between atoms: C8_9  and  N2_10 
REMARK    7  A    between atoms: C21_27  and  N5_28 
ROOT
HETATM    1  N2  UNL     1      20.261   1.415  50.396  1.00  0.00    -0.369 N 
HETATM    2  C9  UNL     1      21.231   0.444  50.737  1.00  0.00     0.148 C 
HETATM    3  C10 UNL     1      22.394   1.031  51.462  1.00  0.00     0.004 C 
HETATM    4  C11 UNL     1      22.528   2.195  52.107  1.00  0.00    -0.002 C 
HETATM    5  C12 UNL     1      23.818   2.427  52.700  1.00  0.00     0.076 C 
HETATM    6  C13 UNL     1      24.869   1.526  53.055  1.00  0.00    -0.005 A 
HETATM    7  C14 UNL     1      25.042   0.176  53.142  1.00  0.00     0.017 A 
HETATM    8  C15 UNL     1      26.160  -0.565  53.404  1.00  0.00     0.045 A 
HETATM    9  C16 UNL     1      27.299   0.178  53.617  1.00  0.00     0.138 A 
HETATM   10  F1  UNL     1      28.444  -0.497  53.883  1.00  0.00    -0.204 F 
HETATM   11  C17 UNL     1      27.302   1.551  53.569  1.00  0.00     0.073 A 
HETATM   12 CL1  UNL     1      28.784   2.406  53.849  1.00  0.00    -0.081 Cl
HETATM   13  C18 UNL     1      26.105   2.165  53.294  1.00  0.00     0.041 A 
HETATM   14  N3  UNL     1      23.947   3.723  52.891  1.00  0.00    -0.241 NA
HETATM   15  C19 UNL     1      22.918   4.630  52.585  1.00  0.00     0.228 C 
HETATM   16  N4  UNL     1      21.716   4.388  52.127  1.00  0.00    -0.269 NA
HETATM   17  C20 UNL     1      21.322   3.003  51.905  1.00  0.00     0.196 C 
HETATM   18  C21 UNL     1      20.619   2.765  50.628  1.00  0.00     0.345 C 
ENDROOT
BRANCH   1  19
HETATM   19  C8  UNL     1      18.952   1.056  50.111  1.00  0.00     0.214 C 
BRANCH  19  20
HETATM   20  C7  UNL     1      18.401   0.152  51.127  1.00  0.00    -0.085 C 
HETATM   21  C6  UNL     1      17.946  -0.577  51.980  1.00  0.00    -0.086 C 
BRANCH  21  22
HETATM   22  C5  UNL     1      17.383  -1.449  53.038  1.00  0.00     0.211 C 
BRANCH  22  23
HETATM   23  N1  UNL     1      16.229  -2.078  52.497  1.00  0.00    -0.403 N 
BRANCH  23  24
HETATM   24  C2  UNL     1      15.114  -1.210  52.300  1.00  0.00     0.113 C 
HETATM   25  C1  UNL     1      14.559  -1.399  50.911  1.00  0.00     0.026 C 
ENDBRANCH  23  24
BRANCH  23  26
HETATM   26  C3  UNL     1      15.935  -3.402  52.911  1.00  0.00     0.113 C 
HETATM   27  C4  UNL     1      17.089  -4.093  53.628  1.00  0.00     0.026 C 
ENDBRANCH  23  26
ENDBRANCH  22  23
ENDBRANCH  21  22
ENDBRANCH  19  20
ENDBRANCH   1  19
BRANCH  18  28
HETATM   28  N5  UNL     1      19.464   3.609  50.523  1.00  0.00     0.103 N 
HETATM   29  H24 UNL     1      19.643   4.558  50.151  1.00  0.00     0.315 HD
HETATM   30  H25 UNL     1      18.969   3.718  51.434  1.00  0.00     0.315 HD
ENDBRANCH  18  28
TORSDOF 7
ENDMDL
MODEL 6
REMARK VINA RESULT:      -7.7      4.685      7.980
REMARK  7 active torsions:
REMARK  status: ('A' for Active; 'I' for Inactive)
REMARK    1  A    between atoms: C2_2  and  N1_3 
REMARK    2  A    between atoms: N1_3  and  C3_4 
REMARK    3  A    between atoms: N1_3  and  C5_6 
REMARK    4  A    between atoms: C5_6  and  C6_7 
REMARK    5  A    between atoms: C7_8  and  C8_9 
REMARK    6  A    between atoms: C8_9  and  N2_10 
REMARK    7  A    between atoms: C21_27  and  N5_28 
ROOT
HETATM    1  N2  UNL     1      19.881   0.655  52.337  1.00  0.00    -0.369 N 
HETATM    2  C9  UNL     1      21.059   1.204  51.779  1.00  0.00     0.148 C 
HETATM    3  C10 UNL     1      22.291   0.737  52.477  1.00  0.00     0.004 C 
HETATM    4  C11 UNL     1      22.498  -0.311  53.282  1.00  0.00    -0.002 C 
HETATM    5  C12 UNL     1      23.842  -0.452  53.777  1.00  0.00     0.076 C 
HETATM    6  C13 UNL     1      25.082   0.079  53.305  1.00  0.00    -0.005 A 
HETATM    7  C14 UNL     1      25.530   0.745  52.201  1.00  0.00     0.017 A 
HETATM    8  C15 UNL     1      26.751   1.292  51.925  1.00  0.00     0.045 A 
HETATM    9  C16 UNL     1      27.682   1.145  52.927  1.00  0.00     0.138 A 
HETATM   10  F1  UNL     1      28.915   1.667  52.716  1.00  0.00    -0.204 F 
HETATM   11  C17 UNL     1      27.399   0.499  54.106  1.00  0.00     0.073 A 
HETATM   12 CL1  UNL     1      28.632   0.362  55.317  1.00  0.00    -0.081 Cl
HETATM   13  C18 UNL     1      26.128  -0.003  54.250  1.00  0.00     0.041 A 
HETATM   14  N3  UNL     1      23.798  -1.206  54.855  1.00  0.00    -0.241 NA
HETATM   15  C19 UNL     1      22.600  -1.771  55.323  1.00  0.00     0.228 C 
HETATM   16  N4  UNL     1      21.399  -1.701  54.807  1.00  0.00    -0.269 NA
HETATM   17  C20 UNL     1      21.219  -0.970  53.560  1.00  0.00     0.196 C 
HETATM   18  C21 UNL     1      20.041  -0.080  53.538  1.00  0.00     0.345 C 
ENDROOT
BRANCH   1  19
HETATM   19  C8  UNL     1      18.697   0.609  51.617  1.00  0.00     0.214 C 
BRANCH  19  20
HETATM   20  C7  UNL     1      18.037   1.919  51.569  1.00  0.00    -0.085 C 
HETATM   21  C6  UNL     1      17.475   2.990  51.522  1.00  0.00    -0.086 C 
BRANCH  21  22
HETATM   22  C5  UNL     1      16.765   4.290  51.460  1.00  0.00     0.211 C 
BRANCH  22  23
HETATM   23  N1  UNL     1      15.380   4.021  51.634  1.00  0.00    -0.403 N 
BRANCH  23  24
HETATM   24  C2  UNL     1      15.028   3.512  52.919  1.00  0.00     0.113 C 
HETATM   25  C1  UNL     1      13.908   4.333  53.505  1.00  0.00     0.026 C 
ENDBRANCH  23  24
BRANCH  23  26
HETATM   26  C3  UNL     1      14.657   3.505  50.529  1.00  0.00     0.113 C 
HETATM   27  C4  UNL     1      14.607   4.446  49.332  1.00  0.00     0.026 C 
ENDBRANCH  23  26
ENDBRANCH  22  23
ENDBRANCH  21  22
ENDBRANCH  19  20
ENDBRANCH   1  19
BRANCH  18  28
HETATM   28  N5  UNL     1      18.846  -0.817  53.830  1.00  0.00     0.103 N 
HETATM   29  H24 UNL     1      18.304  -1.123  53.003  1.00  0.00     0.315 HD
HETATM   30  H25 UNL     1      18.196  -0.287  54.450  1.00  0.00     0.315 HD
ENDBRANCH  18  28
TORSDOF 7
ENDMDL
MODEL 7
REMARK VINA RESULT:      -7.5      3.567      6.185
REMARK  7 active torsions:
REMARK  status: ('A' for Active; 'I' for Inactive)
REMARK    1  A    between atoms: C2_2  and  N1_3 
REMARK    2  A    between atoms: N1_3  and  C3_4 
REMARK    3  A    between atoms: N1_3  and  C5_6 
REMARK    4  A    between atoms: C5_6  and  C6_7 
REMARK    5  A    between atoms: C7_8  and  C8_9 
REMARK    6  A    between atoms: C8_9  and  N2_10 
REMARK    7  A    between atoms: C21_27  and  N5_28 
ROOT
HETATM    1  N2  UNL     1      25.267   5.704  49.137  1.00  0.00    -0.369 N 
HETATM    2  C9  UNL     1      25.929   4.853  50.053  1.00  0.00     0.148 C 
HETATM    3  C10 UNL     1      25.052   3.752  50.544  1.00  0.00     0.004 C 
HETATM    4  C11 UNL     1      23.913   3.252  50.050  1.00  0.00    -0.002 C 
HETATM    5  C12 UNL     1      23.337   2.170  50.803  1.00  0.00     0.076 C 
HETATM    6  C13 UNL     1      23.909   1.278  51.762  1.00  0.00    -0.005 A 
HETATM    7  C14 UNL     1      25.156   0.971  52.223  1.00  0.00     0.017 A 
HETATM    8  C15 UNL     1      25.553   0.149  53.240  1.00  0.00     0.045 A 
HETATM    9  C16 UNL     1      24.521  -0.471  53.907  1.00  0.00     0.138 A 
HETATM   10  F1  UNL     1      24.848  -1.301  54.928  1.00  0.00    -0.204 F 
HETATM   11  C17 UNL     1      23.204  -0.275  53.572  1.00  0.00     0.073 A 
HETATM   12 CL1  UNL     1      21.968  -1.096  54.469  1.00  0.00    -0.081 Cl
HETATM   13  C18 UNL     1      22.950   0.580  52.527  1.00  0.00     0.041 A 
HETATM   14  N3  UNL     1      22.063   2.089  50.482  1.00  0.00    -0.241 NA
HETATM   15  C19 UNL     1      21.481   2.928  49.517  1.00  0.00     0.228 C 
HETATM   16  N4  UNL     1      22.044   3.850  48.779  1.00  0.00    -0.269 NA
HETATM   17  C20 UNL     1      23.478   4.068  48.913  1.00  0.00     0.196 C 
HETATM   18  C21 UNL     1      23.876   5.489  48.977  1.00  0.00     0.345 C 
ENDROOT
BRANCH   1  19
HETATM   19  C8  UNL     1      25.978   6.508  48.259  1.00  0.00     0.214 C 
BRANCH  19  20
HETATM   20  C7  UNL     1      27.402   6.155  48.227  1.00  0.00    -0.085 C 
HETATM   21  C6  UNL     1      28.577   5.869  48.181  1.00  0.00    -0.086 C 
BRANCH  21  22
HETATM   22  C5  UNL     1      30.018   5.532  48.100  1.00  0.00     0.211 C 
BRANCH  22  23
HETATM   23  N1  UNL     1      30.724   6.513  48.849  1.00  0.00    -0.403 N 
BRANCH  23  24
HETATM   24  C2  UNL     1      30.846   7.779  48.205  1.00  0.00     0.113 C 
HETATM   25  C1  UNL     1      30.600   8.884  49.200  1.00  0.00     0.026 C 
ENDBRANCH  23  24
BRANCH  23  26
HETATM   26  C3  UNL     1      31.830   6.088  49.628  1.00  0.00     0.113 C 
HETATM   27  C4  UNL     1      33.157   6.115  48.879  1.00  0.00     0.026 C 
ENDBRANCH  23  26
ENDBRANCH  22  23
ENDBRANCH  21  22
ENDBRANCH  19  20
ENDBRANCH   1  19
BRANCH  18  28
HETATM   28  N5  UNL     1      23.395   6.200  47.828  1.00  0.00     0.103 N 
HETATM   29  H24 UNL     1      23.543   7.224  47.850  1.00  0.00     0.315 HD
HETATM   30  H25 UNL     1      22.380   6.035  47.656  1.00  0.00     0.315 HD
ENDBRANCH  18  28
TORSDOF 7
ENDMDL
MODEL 8
REMARK VINA RESULT:      -7.4      5.348      9.162
REMARK  7 active torsions:
REMARK  status: ('A' for Active; 'I' for Inactive)
REMARK    1  A    between atoms: C2_2  and  N1_3 
REMARK    2  A    between atoms: N1_3  and  C3_4 
REMARK    3  A    between atoms: N1_3  and  C5_6 
REMARK    4  A    between atoms: C5_6  and  C6_7 
REMARK    5  A    between atoms: C7_8  and  C8_9 
REMARK    6  A    between atoms: C8_9  and  N2_10 
REMARK    7  A    between atoms: C21_27  and  N5_28 
ROOT
HETATM    1  N2  UNL     1      16.883  -0.410  51.341  1.00  0.00    -0.369 N 
HETATM    2  C9  UNL     1      17.558  -0.798  52.522  1.00  0.00     0.148 C 
HETATM    3  C10 UNL     1      19.022  -0.517  52.459  1.00  0.00     0.004 C 
HETATM    4  C11 UNL     1      19.724   0.296  51.663  1.00  0.00    -0.002 C 
HETATM    5  C12 UNL     1      21.144   0.313  51.897  1.00  0.00     0.076 C 
HETATM    6  C13 UNL     1      21.918  -0.079  53.033  1.00  0.00    -0.005 A 
HETATM    7  C14 UNL     1      21.682  -0.446  54.326  1.00  0.00     0.017 A 
HETATM    8  C15 UNL     1      22.533  -0.903  55.292  1.00  0.00     0.045 A 
HETATM    9  C16 UNL     1      23.845  -1.009  54.892  1.00  0.00     0.138 A 
HETATM   10  F1  UNL     1      24.741  -1.457  55.805  1.00  0.00    -0.204 F 
HETATM   11  C17 UNL     1      24.257  -0.680  53.624  1.00  0.00     0.073 A 
HETATM   12 CL1  UNL     1      25.932  -0.847  53.206  1.00  0.00    -0.081 Cl
HETATM   13  C18 UNL     1      23.293  -0.234  52.754  1.00  0.00     0.041 A 
HETATM   14  N3  UNL     1      21.727   0.772  50.810  1.00  0.00    -0.241 NA
HETATM   15  C19 UNL     1      20.991   1.199  49.691  1.00  0.00     0.228 C 
HETATM   16  N4  UNL     1      19.694   1.257  49.531  1.00  0.00    -0.269 NA
HETATM   17  C20 UNL     1      18.838   0.861  50.642  1.00  0.00     0.196 C 
HETATM   18  C21 UNL     1      17.700   0.001  50.260  1.00  0.00     0.345 C 
ENDROOT
BRANCH   1  19
HETATM   19  C8  UNL     1      15.514  -0.188  51.335  1.00  0.00     0.214 C 
BRANCH  19  20
HETATM   20  C7  UNL     1      15.165   1.085  51.977  1.00  0.00    -0.085 C 
HETATM   21  C6  UNL     1      14.868   2.141  52.488  1.00  0.00    -0.086 C 
BRANCH  21  22
HETATM   22  C5  UNL     1      14.489   3.441  53.093  1.00  0.00     0.211 C 
BRANCH  22  23
HETATM   23  N1  UNL     1      13.299   3.874  52.449  1.00  0.00    -0.403 N 
BRANCH  23  24
HETATM   24  C2  UNL     1      13.449   4.188  51.066  1.00  0.00     0.113 C 
HETATM   25  C1  UNL     1      12.374   5.156  50.642  1.00  0.00     0.026 C 
ENDBRANCH  23  24
BRANCH  23  26
HETATM   26  C3  UNL     1      12.398   4.683  53.189  1.00  0.00     0.113 C 
HETATM   27  C4  UNL     1      12.019   4.101  54.545  1.00  0.00     0.026 C 
ENDBRANCH  23  26
ENDBRANCH  22  23
ENDBRANCH  21  22
ENDBRANCH  19  20
ENDBRANCH   1  19
BRANCH  18  28
HETATM   28  N5  UNL     1      16.902   0.638  49.252  1.00  0.00     0.103 N 
HETATM   29  H24 UNL     1      15.895   0.719  49.474  1.00  0.00     0.315 HD
HETATM   30  H25 UNL     1      16.981   0.163  48.327  1.00  0.00     0.315 HD
ENDBRANCH  18  28
TORSDOF 7
ENDMDL
MODEL 9
REMARK VINA RESULT:      -7.2      1.430      1.994
REMARK  7 active torsions:
REMARK  status: ('A' for Active; 'I' for Inactive)
REMARK    1  A    between atoms: C2_2  and  N1_3 
REMARK    2  A    between atoms: N1_3  and  C3_4 
REMARK    3  A    between atoms: N1_3  and  C5_6 
REMARK    4  A    between atoms: C5_6  and  C6_7 
REMARK    5  A    between atoms: C7_8  and  C8_9 
REMARK    6  A    between atoms: C8_9  and  N2_10 
REMARK    7  A    between atoms: C21_27  and  N5_28 
ROOT
HETATM    1  N2  UNL     1      25.604   1.994  51.193  1.00  0.00    -0.369 N 
HETATM    2  C9  UNL     1      24.252   2.160  50.814  1.00  0.00     0.148 C 
HETATM    3  C10 UNL     1      23.322   1.343  51.645  1.00  0.00     0.004 C 
HETATM    4  C11 UNL     1      23.494   0.764  52.839  1.00  0.00    -0.002 C 
HETATM    5  C12 UNL     1      22.355   0.045  53.344  1.00  0.00     0.076 C 
HETATM    6  C13 UNL     1      20.967   0.121  53.011  1.00  0.00    -0.005 A 
HETATM    7  C14 UNL     1      20.159   0.933  52.270  1.00  0.00     0.017 A 
HETATM    8  C15 UNL     1      18.835   0.822  51.952  1.00  0.00     0.045 A 
HETATM    9  C16 UNL     1      18.216  -0.294  52.466  1.00  0.00     0.138 A 
HETATM   10  F1  UNL     1      16.901  -0.463  52.187  1.00  0.00    -0.204 F 
HETATM   11  C17 UNL     1      18.882  -1.216  53.236  1.00  0.00     0.073 A 
HETATM   12 CL1  UNL     1      18.023  -2.595  53.841  1.00  0.00    -0.081 Cl
HETATM   13  C18 UNL     1      20.214  -0.979  53.477  1.00  0.00     0.041 A 
HETATM   14  N3  UNL     1      22.785  -0.807  54.251  1.00  0.00    -0.241 NA
HETATM   15  C19 UNL     1      24.138  -0.880  54.625  1.00  0.00     0.228 C 
HETATM   16  N4  UNL     1      25.147  -0.154  54.214  1.00  0.00    -0.269 NA
HETATM   17  C20 UNL     1      24.892   0.910  53.253  1.00  0.00     0.196 C 
HETATM   18  C21 UNL     1      25.866   0.979  52.145  1.00  0.00     0.345 C 
ENDROOT
BRANCH   1  19
HETATM   19  C8  UNL     1      26.566   2.936  50.861  1.00  0.00     0.214 C 
BRANCH  19  20
HETATM   20  C7  UNL     1      25.995   4.052  50.098  1.00  0.00    -0.085 C 
HETATM   21  C6  UNL     1      25.507   4.962  49.467  1.00  0.00    -0.086 C 
BRANCH  21  22
HETATM   22  C5  UNL     1      24.885   6.064  48.694  1.00  0.00     0.211 C 
BRANCH  22  23
HETATM   23  N1  UNL     1      25.766   7.177  48.765  1.00  0.00    -0.403 N 
BRANCH  23  24
HETATM   24  C2  UNL     1      25.888   7.760  50.060  1.00  0.00     0.113 C 
HETATM   25  C1  UNL     1      27.032   8.741  50.074  1.00  0.00     0.026 C 
ENDBRANCH  23  24
BRANCH  23  26
HETATM   26  C3  UNL     1      25.802   8.070  47.663  1.00  0.00     0.113 C 
HETATM   27  C4  UNL     1      24.632   7.907  46.701  1.00  0.00     0.026 C 
ENDBRANCH  23  26
ENDBRANCH  22  23
ENDBRANCH  21  22
ENDBRANCH  19  20
ENDBRANCH   1  19
BRANCH  18  28
HETATM   28  N5  UNL     1      27.201   1.111  52.654  1.00  0.00     0.103 N 
HETATM   29  H24 UNL     1      27.292   1.688  53.508  1.00  0.00     0.315 HD
HETATM   30  H25 UNL     1      27.859   1.498  51.944  1.00  0.00     0.315 HD
ENDBRANCH  18  28
TORSDOF 7
ENDMDL
