MODEL 1
REMARK VINA RESULT:      -8.0      0.000      0.000
REMARK  5 active torsions:
REMARK  status: ('A' for Active; 'I' for Inactive)
REMARK    1  A    between atoms: C6_6  and  C7_7 
REMARK    2  A    between atoms: C7_7  and  C8_8 
REMARK    3  A    between atoms: C8_8  and  N1_9 
REMARK       I    between atoms: N1_9  and  C9_10 
REMARK       I    between atoms: C9_10  and  N2_11 
REMARK    4  A    between atoms: C11_14  and  C12_15 
REMARK    5  A    between atoms: C16_19  and  O2_20 
ROOT
HETATM    1  C1  UNL     1      26.812  -1.457  52.385  1.00  0.00     0.019 C 
HETATM    2  C2  UNL     1      27.313  -0.233  53.084  1.00  0.00    -0.024 C 
HETATM    3  C3  UNL     1      28.790  -0.494  53.402  1.00  0.00     0.019 C 
HETATM    4  C4  UNL     1      27.250   1.001  52.295  1.00  0.00    -0.017 C 
HETATM    5  C5  UNL     1      26.203   1.656  51.817  1.00  0.00     0.009 C 
HETATM    6  C6  UNL     1      24.731   1.519  51.819  1.00  0.00    -0.027 C 
HETATM    7  C10 UNL     1      23.960   0.772  52.637  1.00  0.00     0.022 C 
HETATM    8  C11 UNL     1      24.071  -0.164  53.782  1.00  0.00    -0.021 C 
HETATM    9  C16 UNL     1      25.202  -0.408  54.403  1.00  0.00     0.051 C 
HETATM   10  C17 UNL     1      26.623  -0.084  54.434  1.00  0.00     0.077 C 
ENDROOT
BRANCH   6  11
HETATM   11  C7  UNL     1      24.056   2.291  50.808  1.00  0.00     0.088 C 
BRANCH  11  12
HETATM   12  C8  UNL     1      24.490   3.539  50.741  1.00  0.00    -0.010 C 
BRANCH  12  13
HETATM   13  N1  UNL     1      24.665   4.817  50.699  1.00  0.00    -0.150 NA
HETATM   14  C9  UNL     1      23.858   5.608  51.593  1.00  0.00     0.347 C 
HETATM   15  N2  UNL     1      24.318   6.901  51.955  1.00  0.00    -0.350 N 
HETATM   16  O1  UNL     1      22.745   5.236  52.093  1.00  0.00    -0.245 OA
HETATM   17  H10 UNL     1      24.981   7.457  51.362  1.00  0.00     0.160 HD
HETATM   18  H11 UNL     1      24.030   7.381  52.828  1.00  0.00     0.160 HD
ENDBRANCH  12  13
ENDBRANCH  11  12
ENDBRANCH   6  11
BRANCH   8  19
HETATM   19  C12 UNL     1      22.745  -0.674  54.002  1.00  0.00    -0.022 C 
HETATM   20  C13 UNL     1      22.405  -1.264  55.329  1.00  0.00     0.019 C 
HETATM   21  C14 UNL     1      22.414  -1.624  52.855  1.00  0.00     0.019 C 
HETATM   22  C15 UNL     1      21.780   0.522  53.853  1.00  0.00     0.019 C 
ENDBRANCH   8  19
BRANCH   9  23
HETATM   23  O2  UNL     1      24.810  -1.317  55.371  1.00  0.00    -0.364 OA
HETATM   24  H22 UNL     1      24.390  -0.899  56.214  1.00  0.00     0.217 HD
ENDBRANCH   9  23
TORSDOF 5
ENDMDL
MODEL 2
REMARK VINA RESULT:      -8.0      2.899      5.171
REMARK  5 active torsions:
REMARK  status: ('A' for Active; 'I' for Inactive)
REMARK    1  A    between atoms: C6_6  and  C7_7 
REMARK    2  A    between atoms: C7_7  and  C8_8 
REMARK    3  A    between atoms: C8_8  and  N1_9 
REMARK       I    between atoms: N1_9  and  C9_10 
REMARK       I    between atoms: C9_10  and  N2_11 
REMARK    4  A    between atoms: C11_14  and  C12_15 
REMARK    5  A    between atoms: C16_19  and  O2_20 
ROOT
HETATM    1  C1  UNL     1      23.069   3.157  52.302  1.00  0.00     0.019 C 
HETATM    2  C2  UNL     1      23.653   2.339  51.193  1.00  0.00    -0.024 C 
HETATM    3  C3  UNL     1      23.909   3.309  50.034  1.00  0.00     0.019 C 
HETATM    4  C4  UNL     1      24.928   1.689  51.507  1.00  0.00    -0.017 C 
HETATM    5  C5  UNL     1      25.212   0.751  52.399  1.00  0.00     0.009 C 
HETATM    6  C6  UNL     1      24.496  -0.040  53.421  1.00  0.00    -0.027 C 
HETATM    7  C10 UNL     1      23.169  -0.254  53.538  1.00  0.00     0.022 C 
HETATM    8  C11 UNL     1      21.887   0.088  52.873  1.00  0.00    -0.021 C 
HETATM    9  C16 UNL     1      21.821   0.732  51.730  1.00  0.00     0.051 C 
HETATM   10  C17 UNL     1      22.618   1.347  50.677  1.00  0.00     0.077 C 
ENDROOT
BRANCH   6  11
HETATM   11  C7  UNL     1      25.346  -0.651  54.409  1.00  0.00     0.088 C 
BRANCH  11  12
HETATM   12  C8  UNL     1      26.386   0.102  54.728  1.00  0.00    -0.010 C 
BRANCH  12  13
HETATM   13  N1  UNL     1      27.516   0.713  54.845  1.00  0.00    -0.150 NA
HETATM   14  C9  UNL     1      28.653   0.094  54.212  1.00  0.00     0.347 C 
HETATM   15  N2  UNL     1      29.767   0.908  53.877  1.00  0.00    -0.350 N 
HETATM   16  O1  UNL     1      28.742  -1.145  53.923  1.00  0.00    -0.245 OA
HETATM   17  H10 UNL     1      29.981   1.811  54.365  1.00  0.00     0.160 HD
HETATM   18  H11 UNL     1      30.443   0.663  53.129  1.00  0.00     0.160 HD
ENDBRANCH  12  13
ENDBRANCH  11  12
ENDBRANCH   6  11
BRANCH   8  19
HETATM   19  C12 UNL     1      20.852  -0.423  53.730  1.00  0.00    -0.022 C 
HETATM   20  C13 UNL     1      19.525  -0.767  53.140  1.00  0.00     0.019 C 
HETATM   21  C14 UNL     1      20.718   0.525  54.918  1.00  0.00     0.019 C 
HETATM   22  C15 UNL     1      21.374  -1.756  54.308  1.00  0.00     0.019 C 
ENDBRANCH   8  19
BRANCH   9  23
HETATM   23  O2  UNL     1      20.454   0.812  51.523  1.00  0.00    -0.364 OA
HETATM   24  H22 UNL     1      19.985   1.586  52.018  1.00  0.00     0.217 HD
ENDBRANCH   9  23
TORSDOF 5
ENDMDL
MODEL 3
REMARK VINA RESULT:      -7.7      2.640      5.876
REMARK  5 active torsions:
REMARK  status: ('A' for Active; 'I' for Inactive)
REMARK    1  A    between atoms: C6_6  and  C7_7 
REMARK    2  A    between atoms: C7_7  and  C8_8 
REMARK    3  A    between atoms: C8_8  and  N1_9 
REMARK       I    between atoms: N1_9  and  C9_10 
REMARK       I    between atoms: C9_10  and  N2_11 
REMARK    4  A    between atoms: C11_14  and  C12_15 
REMARK    5  A    between atoms: C16_19  and  O2_20 
ROOT
HETATM    1  C1  UNL     1      21.215  -0.098  51.324  1.00  0.00     0.019 C 
HETATM    2  C2  UNL     1      21.099   0.127  52.799  1.00  0.00    -0.024 C 
HETATM    3  C3  UNL     1      19.684  -0.314  53.192  1.00  0.00     0.019 C 
HETATM    4  C4  UNL     1      22.038  -0.644  53.619  1.00  0.00    -0.017 C 
HETATM    5  C5  UNL     1      23.361  -0.596  53.677  1.00  0.00     0.009 C 
HETATM    6  C6  UNL     1      24.458   0.159  53.034  1.00  0.00    -0.027 C 
HETATM    7  C10 UNL     1      24.390   1.323  52.357  1.00  0.00     0.022 C 
HETATM    8  C11 UNL     1      23.405   2.347  51.928  1.00  0.00    -0.021 C 
HETATM    9  C16 UNL     1      22.148   2.337  52.307  1.00  0.00     0.051 C 
HETATM   10  C17 UNL     1      21.164   1.618  53.106  1.00  0.00     0.077 C 
ENDROOT
BRANCH   6  11
HETATM   11  C7  UNL     1      25.756  -0.449  53.161  1.00  0.00     0.088 C 
BRANCH  11  12
HETATM   12  C8  UNL     1      26.564   0.228  53.960  1.00  0.00    -0.010 C 
BRANCH  12  13
HETATM   13  N1  UNL     1      27.304   1.084  54.580  1.00  0.00    -0.150 NA
HETATM   14  C9  UNL     1      28.728   0.959  54.396  1.00  0.00     0.347 C 
HETATM   15  N2  UNL     1      29.542   2.102  54.617  1.00  0.00    -0.350 N 
HETATM   16  O1  UNL     1      29.327  -0.110  54.043  1.00  0.00    -0.245 OA
HETATM   17  H10 UNL     1      29.252   2.895  55.239  1.00  0.00     0.160 HD
HETATM   18  H11 UNL     1      30.474   2.226  54.181  1.00  0.00     0.160 HD
ENDBRANCH  12  13
ENDBRANCH  11  12
ENDBRANCH   6  11
BRANCH   8  19
HETATM   19  C12 UNL     1      24.127   3.253  51.076  1.00  0.00    -0.022 C 
HETATM   20  C13 UNL     1      24.062   4.717  51.354  1.00  0.00     0.019 C 
HETATM   21  C14 UNL     1      23.757   2.931  49.631  1.00  0.00     0.019 C 
HETATM   22  C15 UNL     1      25.623   2.899  51.220  1.00  0.00     0.019 C 
ENDBRANCH   8  19
BRANCH   9  23
HETATM   23  O2  UNL     1      21.645   3.458  51.668  1.00  0.00    -0.364 OA
HETATM   24  H22 UNL     1      20.692   3.729  51.954  1.00  0.00     0.217 HD
ENDBRANCH   9  23
TORSDOF 5
ENDMDL
MODEL 4
REMARK VINA RESULT:      -7.7      1.405      4.048
REMARK  5 active torsions:
REMARK  status: ('A' for Active; 'I' for Inactive)
REMARK    1  A    between atoms: C6_6  and  C7_7 
REMARK    2  A    between atoms: C7_7  and  C8_8 
REMARK    3  A    between atoms: C8_8  and  N1_9 
REMARK       I    between atoms: N1_9  and  C9_10 
REMARK       I    between atoms: C9_10  and  N2_11 
REMARK    4  A    between atoms: C11_14  and  C12_15 
REMARK    5  A    between atoms: C16_19  and  O2_20 
ROOT
HETATM    1  C1  UNL     1      21.175   0.812  54.134  1.00  0.00     0.019 C 
HETATM    2  C2  UNL     1      21.066  -0.313  53.153  1.00  0.00    -0.024 C 
HETATM    3  C3  UNL     1      19.887  -1.176  53.618  1.00  0.00     0.019 C 
HETATM    4  C4  UNL     1      20.790   0.093  51.772  1.00  0.00    -0.017 C 
HETATM    5  C5  UNL     1      21.521   0.808  50.930  1.00  0.00     0.009 C 
HETATM    6  C6  UNL     1      22.833   1.490  50.925  1.00  0.00    -0.027 C 
HETATM    7  C10 UNL     1      23.875   1.308  51.761  1.00  0.00     0.022 C 
HETATM    8  C11 UNL     1      24.276   0.499  52.939  1.00  0.00    -0.021 C 
HETATM    9  C16 UNL     1      23.542  -0.476  53.423  1.00  0.00     0.051 C 
HETATM   10  C17 UNL     1      22.294  -1.210  53.250  1.00  0.00     0.077 C 
ENDROOT
BRANCH   6  11
HETATM   11  C7  UNL     1      22.993   2.471  49.884  1.00  0.00     0.088 C 
BRANCH  11  12
HETATM   12  C8  UNL     1      23.558   3.588  50.314  1.00  0.00    -0.010 C 
BRANCH  12  13
HETATM   13  N1  UNL     1      23.928   4.792  50.591  1.00  0.00    -0.150 NA
HETATM   14  C9  UNL     1      23.510   5.318  51.866  1.00  0.00     0.347 C 
HETATM   15  N2  UNL     1      24.256   6.383  52.436  1.00  0.00    -0.350 N 
HETATM   16  O1  UNL     1      22.509   4.898  52.535  1.00  0.00    -0.245 OA
HETATM   17  H10 UNL     1      24.836   7.043  51.864  1.00  0.00     0.160 HD
HETATM   18  H11 UNL     1      24.275   6.580  53.454  1.00  0.00     0.160 HD
ENDBRANCH  12  13
ENDBRANCH  11  12
ENDBRANCH   6  11
BRANCH   8  19
HETATM   19  C12 UNL     1      25.548   1.020  53.358  1.00  0.00    -0.022 C 
HETATM   20  C13 UNL     1      26.268   0.358  54.485  1.00  0.00     0.019 C 
HETATM   21  C14 UNL     1      25.386   2.519  53.590  1.00  0.00     0.019 C 
HETATM   22  C15 UNL     1      26.504   0.879  52.154  1.00  0.00     0.019 C 
ENDBRANCH   8  19
BRANCH   9  23
HETATM   23  O2  UNL     1      24.311  -0.916  54.487  1.00  0.00    -0.364 OA
HETATM   24  H22 UNL     1      23.878  -1.657  55.058  1.00  0.00     0.217 HD
ENDBRANCH   9  23
TORSDOF 5
ENDMDL
MODEL 5
REMARK VINA RESULT:      -7.5      1.914      4.334
REMARK  5 active torsions:
REMARK  status: ('A' for Active; 'I' for Inactive)
REMARK    1  A    between atoms: C6_6  and  C7_7 
REMARK    2  A    between atoms: C7_7  and  C8_8 
REMARK    3  A    between atoms: C8_8  and  N1_9 
REMARK       I    between atoms: N1_9  and  C9_10 
REMARK       I    between atoms: C9_10  and  N2_11 
REMARK    4  A    between atoms: C11_14  and  C12_15 
REMARK    5  A    between atoms: C16_19  and  O2_20 
ROOT
HETATM    1  C1  UNL     1      21.249   0.867  54.114  1.00  0.00     0.019 C 
HETATM    2  C2  UNL     1      21.115  -0.220  53.095  1.00  0.00    -0.024 C 
HETATM    3  C3  UNL     1      19.884  -1.040  53.500  1.00  0.00     0.019 C 
HETATM    4  C4  UNL     1      20.897   0.241  51.721  1.00  0.00    -0.017 C 
HETATM    5  C5  UNL     1      21.685   0.946  50.922  1.00  0.00     0.009 C 
HETATM    6  C6  UNL     1      23.027   1.564  50.974  1.00  0.00    -0.027 C 
HETATM    7  C10 UNL     1      24.035   1.306  51.831  1.00  0.00     0.022 C 
HETATM    8  C11 UNL     1      24.364   0.443  52.993  1.00  0.00    -0.021 C 
HETATM    9  C16 UNL     1      23.572  -0.510  53.425  1.00  0.00     0.051 C 
HETATM   10  C17 UNL     1      22.296  -1.178  53.195  1.00  0.00     0.077 C 
ENDROOT
BRANCH   6  11
HETATM   11  C7  UNL     1      23.262   2.568  49.970  1.00  0.00     0.088 C 
BRANCH  11  12
HETATM   12  C8  UNL     1      24.199   3.434  50.319  1.00  0.00    -0.010 C 
BRANCH  12  13
HETATM   13  N1  UNL     1      25.108   4.346  50.412  1.00  0.00    -0.150 NA
HETATM   14  C9  UNL     1      26.388   4.043  49.824  1.00  0.00     0.347 C 
HETATM   15  N2  UNL     1      27.234   5.121  49.454  1.00  0.00    -0.350 N 
HETATM   16  O1  UNL     1      26.830   2.867  49.606  1.00  0.00    -0.245 OA
HETATM   17  H10 UNL     1      27.173   6.071  49.893  1.00  0.00     0.160 HD
HETATM   18  H11 UNL     1      27.969   5.040  48.727  1.00  0.00     0.160 HD
ENDBRANCH  12  13
ENDBRANCH  11  12
ENDBRANCH   6  11
BRANCH   8  19
HETATM   19  C12 UNL     1      25.647   0.890  53.462  1.00  0.00    -0.022 C 
HETATM   20  C13 UNL     1      26.261   0.219  54.646  1.00  0.00     0.019 C 
HETATM   21  C14 UNL     1      25.579   2.404  53.639  1.00  0.00     0.019 C 
HETATM   22  C15 UNL     1      26.650   0.641  52.315  1.00  0.00     0.019 C 
ENDBRANCH   8  19
BRANCH   9  23
HETATM   23  O2  UNL     1      24.289  -1.019  54.495  1.00  0.00    -0.364 OA
HETATM   24  H22 UNL     1      24.726  -1.938  54.326  1.00  0.00     0.217 HD
ENDBRANCH   9  23
TORSDOF 5
ENDMDL
MODEL 6
REMARK VINA RESULT:      -7.4      3.227      5.823
REMARK  5 active torsions:
REMARK  status: ('A' for Active; 'I' for Inactive)
REMARK    1  A    between atoms: C6_6  and  C7_7 
REMARK    2  A    between atoms: C7_7  and  C8_8 
REMARK    3  A    between atoms: C8_8  and  N1_9 
REMARK       I    between atoms: N1_9  and  C9_10 
REMARK       I    between atoms: C9_10  and  N2_11 
REMARK    4  A    between atoms: C11_14  and  C12_15 
REMARK    5  A    between atoms: C16_19  and  O2_20 
ROOT
HETATM    1  C1  UNL     1      23.773   4.508  51.198  1.00  0.00     0.019 C 
HETATM    2  C2  UNL     1      24.554   3.746  50.174  1.00  0.00    -0.024 C 
HETATM    3  C3  UNL     1      25.088   4.785  49.180  1.00  0.00     0.019 C 
HETATM    4  C4  UNL     1      25.709   3.010  50.696  1.00  0.00    -0.017 C 
HETATM    5  C5  UNL     1      25.761   1.996  51.546  1.00  0.00     0.009 C 
HETATM    6  C6  UNL     1      24.815   1.168  52.324  1.00  0.00    -0.027 C 
HETATM    7  C10 UNL     1      23.487   1.015  52.139  1.00  0.00     0.022 C 
HETATM    8  C11 UNL     1      22.392   1.471  51.248  1.00  0.00    -0.021 C 
HETATM    9  C16 UNL     1      22.595   2.199  50.175  1.00  0.00     0.051 C 
HETATM   10  C17 UNL     1      23.622   2.850  49.369  1.00  0.00     0.077 C 
ENDROOT
BRANCH   6  11
HETATM   11  C7  UNL     1      25.411   0.443  53.415  1.00  0.00     0.088 C 
BRANCH  11  12
HETATM   12  C8  UNL     1      26.176  -0.557  53.010  1.00  0.00    -0.010 C 
BRANCH  12  13
HETATM   13  N1  UNL     1      26.705  -1.670  52.627  1.00  0.00    -0.150 NA
HETATM   14  C9  UNL     1      28.060  -1.919  53.049  1.00  0.00     0.347 C 
HETATM   15  N2  UNL     1      28.518  -3.261  53.100  1.00  0.00    -0.350 N 
HETATM   16  O1  UNL     1      28.896  -1.016  53.384  1.00  0.00    -0.245 OA
HETATM   17  H10 UNL     1      28.094  -4.030  52.526  1.00  0.00     0.160 HD
HETATM   18  H11 UNL     1      29.301  -3.570  53.706  1.00  0.00     0.160 HD
ENDBRANCH  12  13
ENDBRANCH  11  12
ENDBRANCH   6  11
BRANCH   8  19
HETATM   19  C12 UNL     1      21.180   0.951  51.820  1.00  0.00    -0.022 C 
HETATM   20  C13 UNL     1      20.136   0.383  50.917  1.00  0.00     0.019 C 
HETATM   21  C14 UNL     1      20.607   2.016  52.750  1.00  0.00     0.019 C 
HETATM   22  C15 UNL     1      21.588  -0.229  52.727  1.00  0.00     0.019 C 
ENDBRANCH   8  19
BRANCH   9  23
HETATM   23  O2  UNL     1      21.309   2.365  49.689  1.00  0.00    -0.364 OA
HETATM   24  H22 UNL     1      20.879   3.277  49.904  1.00  0.00     0.217 HD
ENDBRANCH   9  23
TORSDOF 5
ENDMDL
MODEL 7
REMARK VINA RESULT:      -7.4      3.463      5.549
REMARK  5 active torsions:
REMARK  status: ('A' for Active; 'I' for Inactive)
REMARK    1  A    between atoms: C6_6  and  C7_7 
REMARK    2  A    between atoms: C7_7  and  C8_8 
REMARK    3  A    between atoms: C8_8  and  N1_9 
REMARK       I    between atoms: N1_9  and  C9_10 
REMARK       I    between atoms: C9_10  and  N2_11 
REMARK    4  A    between atoms: C11_14  and  C12_15 
REMARK    5  A    between atoms: C16_19  and  O2_20 
ROOT
HETATM    1  C1  UNL     1      25.770   2.262  54.162  1.00  0.00     0.019 C 
HETATM    2  C2  UNL     1      26.115   0.951  53.529  1.00  0.00    -0.024 C 
HETATM    3  C3  UNL     1      27.170   0.301  54.432  1.00  0.00     0.019 C 
HETATM    4  C4  UNL     1      25.000   0.006  53.414  1.00  0.00    -0.017 C 
HETATM    5  C5  UNL     1      23.877   0.091  52.716  1.00  0.00     0.009 C 
HETATM    6  C6  UNL     1      23.227   1.053  51.800  1.00  0.00    -0.027 C 
HETATM    7  C10 UNL     1      23.787   2.080  51.129  1.00  0.00     0.022 C 
HETATM    8  C11 UNL     1      25.099   2.743  50.928  1.00  0.00    -0.021 C 
HETATM    9  C16 UNL     1      26.224   2.268  51.412  1.00  0.00     0.051 C 
HETATM   10  C17 UNL     1      26.807   1.183  52.192  1.00  0.00     0.077 C 
ENDROOT
BRANCH   6  11
HETATM   11  C7  UNL     1      21.814   0.845  51.619  1.00  0.00     0.088 C 
BRANCH  11  12
HETATM   12  C8  UNL     1      21.231   0.326  52.688  1.00  0.00    -0.010 C 
BRANCH  12  13
HETATM   13  N1  UNL     1      20.450  -0.177  53.583  1.00  0.00    -0.150 NA
HETATM   14  C9  UNL     1      19.165  -0.645  53.130  1.00  0.00     0.347 C 
HETATM   15  N2  UNL     1      18.486  -1.619  53.908  1.00  0.00    -0.350 N 
HETATM   16  O1  UNL     1      18.577  -0.250  52.069  1.00  0.00    -0.245 OA
HETATM   17  H10 UNL     1      18.657  -1.749  54.935  1.00  0.00     0.160 HD
HETATM   18  H11 UNL     1      17.776  -2.265  53.515  1.00  0.00     0.160 HD
ENDBRANCH  12  13
ENDBRANCH  11  12
ENDBRANCH   6  11
BRANCH   8  19
HETATM   19  C12 UNL     1      24.829   3.917  50.144  1.00  0.00    -0.022 C 
HETATM   20  C13 UNL     1      25.925   4.507  49.320  1.00  0.00     0.019 C 
HETATM   21  C14 UNL     1      24.185   4.953  51.060  1.00  0.00     0.019 C 
HETATM   22  C15 UNL     1      23.745   3.525  49.117  1.00  0.00     0.019 C 
ENDBRANCH   8  19
BRANCH   9  23
HETATM   23  O2  UNL     1      27.145   3.205  50.973  1.00  0.00    -0.364 OA
HETATM   24  H22 UNL     1      26.738   4.015  50.481  1.00  0.00     0.217 HD
ENDBRANCH   9  23
TORSDOF 5
ENDMDL
MODEL 8
REMARK VINA RESULT:      -7.1      2.777      4.471
REMARK  5 active torsions:
REMARK  status: ('A' for Active; 'I' for Inactive)
REMARK    1  A    between atoms: C6_6  and  C7_7 
REMARK    2  A    between atoms: C7_7  and  C8_8 
REMARK    3  A    between atoms: C8_8  and  N1_9 
REMARK       I    between atoms: N1_9  and  C9_10 
REMARK       I    between atoms: C9_10  and  N2_11 
REMARK    4  A    between atoms: C11_14  and  C12_15 
REMARK    5  A    between atoms: C16_19  and  O2_20 
ROOT
HETATM    1  C1  UNL     1      26.719   1.500  54.127  1.00  0.00     0.019 C 
HETATM    2  C2  UNL     1      26.682   0.185  53.413  1.00  0.00    -0.024 C 
HETATM    3  C3  UNL     1      28.017  -0.505  53.714  1.00  0.00     0.019 C 
HETATM    4  C4  UNL     1      25.615  -0.724  53.844  1.00  0.00    -0.017 C 
HETATM    5  C5  UNL     1      24.300  -0.597  53.760  1.00  0.00     0.009 C 
HETATM    6  C6  UNL     1      23.324   0.393  53.255  1.00  0.00    -0.027 C 
HETATM    7  C10 UNL     1      23.532   1.409  52.393  1.00  0.00     0.022 C 
HETATM    8  C11 UNL     1      24.614   2.033  51.592  1.00  0.00    -0.021 C 
HETATM    9  C16 UNL     1      25.818   1.520  51.489  1.00  0.00     0.051 C 
HETATM   10  C17 UNL     1      26.666   0.410  51.906  1.00  0.00     0.077 C 
ENDROOT
BRANCH   6  11
HETATM   11  C7  UNL     1      21.988   0.230  53.765  1.00  0.00     0.088 C 
BRANCH  11  12
HETATM   12  C8  UNL     1      21.060   0.617  52.905  1.00  0.00    -0.010 C 
BRANCH  12  13
HETATM   13  N1  UNL     1      19.992   0.888  52.235  1.00  0.00    -0.150 NA
HETATM   14  C9  UNL     1      19.682   2.284  52.052  1.00  0.00     0.347 C 
HETATM   15  N2  UNL     1      18.854   2.656  50.960  1.00  0.00    -0.350 N 
HETATM   16  O1  UNL     1      20.096   3.227  52.803  1.00  0.00    -0.245 OA
HETATM   17  H10 UNL     1      18.172   1.997  50.511  1.00  0.00     0.160 HD
HETATM   18  H11 UNL     1      18.869   3.601  50.535  1.00  0.00     0.160 HD
ENDBRANCH  12  13
ENDBRANCH  11  12
ENDBRANCH   6  11
BRANCH   8  19
HETATM   19  C12 UNL     1      24.043   3.223  51.021  1.00  0.00    -0.022 C 
HETATM   20  C13 UNL     1      24.851   4.025  50.057  1.00  0.00     0.019 C 
HETATM   21  C14 UNL     1      23.508   4.079  52.165  1.00  0.00     0.019 C 
HETATM   22  C15 UNL     1      22.807   2.777  50.211  1.00  0.00     0.019 C 
ENDBRANCH   8  19
BRANCH   9  23
HETATM   23  O2  UNL     1      26.452   2.432  50.662  1.00  0.00    -0.364 OA
HETATM   24  H22 UNL     1      26.293   3.422  50.906  1.00  0.00     0.217 HD
ENDBRANCH   9  23
TORSDOF 5
ENDMDL
MODEL 9
REMARK VINA RESULT:      -7.0      3.085      6.413
REMARK  5 active torsions:
REMARK  status: ('A' for Active; 'I' for Inactive)
REMARK    1  A    between atoms: C6_6  and  C7_7 
REMARK    2  A    between atoms: C7_7  and  C8_8 
REMARK    3  A    between atoms: C8_8  and  N1_9 
REMARK       I    between atoms: N1_9  and  C9_10 
REMARK       I    between atoms: C9_10  and  N2_11 
REMARK    4  A    between atoms: C11_14  and  C12_15 
REMARK    5  A    between atoms: C16_19  and  O2_20 
ROOT
HETATM    1  C1  UNL     1      21.373   0.174  51.057  1.00  0.00     0.019 C 
HETATM    2  C2  UNL     1      21.164   0.451  52.512  1.00  0.00    -0.024 C 
HETATM    3  C3  UNL     1      19.855  -0.247  52.899  1.00  0.00     0.019 C 
HETATM    4  C4  UNL     1      22.211  -0.065  53.399  1.00  0.00    -0.017 C 
HETATM    5  C5  UNL     1      23.493   0.256  53.483  1.00  0.00     0.009 C 
HETATM    6  C6  UNL     1      24.437   1.181  52.821  1.00  0.00    -0.027 C 
HETATM    7  C10 UNL     1      24.157   2.268  52.073  1.00  0.00     0.022 C 
HETATM    8  C11 UNL     1      23.001   3.044  51.559  1.00  0.00    -0.021 C 
HETATM    9  C16 UNL     1      21.760   2.799  51.910  1.00  0.00     0.051 C 
HETATM   10  C17 UNL     1      20.915   1.939  52.729  1.00  0.00     0.077 C 
ENDROOT
BRANCH   6  11
HETATM   11  C7  UNL     1      25.826   0.859  53.014  1.00  0.00     0.088 C 
BRANCH  11  12
HETATM   12  C8  UNL     1      26.092  -0.418  52.792  1.00  0.00    -0.010 C 
BRANCH  12  13
HETATM   13  N1  UNL     1      26.566  -1.573  52.467  1.00  0.00    -0.150 NA
HETATM   14  C9  UNL     1      27.882  -1.892  52.960  1.00  0.00     0.347 C 
HETATM   15  N2  UNL     1      28.251  -3.259  53.071  1.00  0.00    -0.350 N 
HETATM   16  O1  UNL     1      28.758  -1.034  53.309  1.00  0.00    -0.245 OA
HETATM   17  H10 UNL     1      27.806  -4.017  52.499  1.00  0.00     0.160 HD
HETATM   18  H11 UNL     1      28.983  -3.597  53.722  1.00  0.00     0.160 HD
ENDBRANCH  12  13
ENDBRANCH  11  12
ENDBRANCH   6  11
BRANCH   8  19
HETATM   19  C12 UNL     1      23.554   4.030  50.670  1.00  0.00    -0.022 C 
HETATM   20  C13 UNL     1      23.004   4.151  49.289  1.00  0.00     0.019 C 
HETATM   21  C14 UNL     1      25.070   3.857  50.666  1.00  0.00     0.019 C 
HETATM   22  C15 UNL     1      23.286   5.407  51.314  1.00  0.00     0.019 C 
ENDBRANCH   8  19
BRANCH   9  23
HETATM   23  O2  UNL     1      21.062   3.756  51.192  1.00  0.00    -0.364 OA
HETATM   24  H22 UNL     1      20.247   4.155  51.681  1.00  0.00     0.217 HD
ENDBRANCH   9  23
TORSDOF 5
ENDMDL
