MODEL 1
REMARK VINA RESULT:      -7.5      0.000      0.000
REMARK  6 active torsions:
REMARK  status: ('A' for Active; 'I' for Inactive)
REMARK    1  A    between atoms: C1_2  and  C2_3 
REMARK    2  A    between atoms: C2_3  and  N1_4 
REMARK    3  A    between atoms: C7_9  and  C8_10 
REMARK    4  A    between atoms: C8_10  and  N2_11 
REMARK    5  A    between atoms: N2_11  and  C9_12 
REMARK    6  A    between atoms: C12_16  and  C13_17 
ROOT
HETATM    1  C9  UNL     1      24.750   2.710  52.272  1.00  0.00     0.722 A 
HETATM    2  N3  UNL     1      23.546   2.199  52.576  1.00  0.00    -0.075 NA
HETATM    3  C10 UNL     1      23.387   0.924  53.037  1.00  0.00     0.139 A 
HETATM    4  C11 UNL     1      24.507   0.109  53.207  1.00  0.00     0.053 A 
HETATM    5  C12 UNL     1      25.732   0.654  52.887  1.00  0.00     0.089 A 
HETATM    6  N5  UNL     1      25.818   1.914  52.438  1.00  0.00    -0.062 NA
ENDROOT
BRANCH   1   7
HETATM    7  N2  UNL     1      24.703   4.054  51.820  1.00  0.00    -0.220 N 
HETATM    8  H13 UNL     1      24.685   4.459  52.771  1.00  0.00     0.177 HD
BRANCH   7   9
HETATM    9  C8  UNL     1      24.709   3.919  50.343  1.00  0.00     0.174 C 
BRANCH   9  10
HETATM   10  C7  UNL     1      25.803   4.842  49.851  1.00  0.00     0.245 C 
HETATM   11  N1  UNL     1      25.356   5.887  48.995  1.00  0.00     0.104 N 
HETATM   12  C3  UNL     1      26.461   6.798  48.779  1.00  0.00     0.300 C 
HETATM   13  C4  UNL     1      27.734   6.120  48.434  1.00  0.00    -0.001 C 
HETATM   14  C5  UNL     1      27.954   4.841  48.594  1.00  0.00    -0.027 C 
HETATM   15  C6  UNL     1      26.871   4.027  49.150  1.00  0.00     0.064 C 
BRANCH  11  16
HETATM   16  C2  UNL     1      24.149   6.548  49.371  1.00  0.00     0.342 C 
BRANCH  16  17
HETATM   17  C1  UNL     1      24.312   7.720  50.272  1.00  0.00     0.261 C 
HETATM   18  O1  UNL     1      23.941   7.209  51.326  1.00  0.00    -0.305 OA
ENDBRANCH  16  17
ENDBRANCH  11  16
ENDBRANCH   9  10
ENDBRANCH   7   9
ENDBRANCH   1   7
BRANCH   5  19
HETATM   19  C13 UNL     1      26.932  -0.148  53.042  1.00  0.00     0.011 A 
HETATM   20  C14 UNL     1      28.139   0.399  53.361  1.00  0.00     0.017 A 
HETATM   21  C15 UNL     1      29.182  -0.493  53.465  1.00  0.00     0.020 A 
HETATM   22  C16 UNL     1      29.132  -1.836  53.287  1.00  0.00     0.116 A 
HETATM   23  N4  UNL     1      27.904  -2.350  52.971  1.00  0.00    -0.272 NA
HETATM   24  C17 UNL     1      26.831  -1.528  52.851  1.00  0.00     0.130 A 
ENDBRANCH   5  19
TORSDOF 6
ENDMDL
MODEL 2
REMARK VINA RESULT:      -7.4      4.052      6.230
REMARK  6 active torsions:
REMARK  status: ('A' for Active; 'I' for Inactive)
REMARK    1  A    between atoms: C1_2  and  C2_3 
REMARK    2  A    between atoms: C2_3  and  N1_4 
REMARK    3  A    between atoms: C7_9  and  C8_10 
REMARK    4  A    between atoms: C8_10  and  N2_11 
REMARK    5  A    between atoms: N2_11  and  C9_12 
REMARK    6  A    between atoms: C12_16  and  C13_17 
ROOT
HETATM    1  C9  UNL     1      23.991   1.167  52.378  1.00  0.00     0.722 A 
HETATM    2  N3  UNL     1      24.158   2.370  52.952  1.00  0.00    -0.075 NA
HETATM    3  C10 UNL     1      25.306   2.716  53.604  1.00  0.00     0.139 A 
HETATM    4  C11 UNL     1      26.355   1.800  53.686  1.00  0.00     0.053 A 
HETATM    5  C12 UNL     1      26.160   0.571  53.091  1.00  0.00     0.089 A 
HETATM    6  N5  UNL     1      25.007   0.295  52.466  1.00  0.00    -0.062 NA
ENDROOT
BRANCH   1   7
HETATM    7  N2  UNL     1      22.733   1.008  51.742  1.00  0.00    -0.220 N 
HETATM    8  H13 UNL     1      23.095   0.383  51.002  1.00  0.00     0.177 HD
BRANCH   7   9
HETATM    9  C8  UNL     1      21.823   1.834  52.571  1.00  0.00     0.174 C 
BRANCH   9  10
HETATM   10  C7  UNL     1      20.467   1.165  52.483  1.00  0.00     0.245 C 
HETATM   11  N1  UNL     1      20.377  -0.084  53.159  1.00  0.00     0.104 N 
HETATM   12  C3  UNL     1      18.989  -0.495  53.168  1.00  0.00     0.300 C 
HETATM   13  C4  UNL     1      18.323  -0.374  51.848  1.00  0.00    -0.001 C 
HETATM   14  C5  UNL     1      18.805   0.304  50.840  1.00  0.00    -0.027 C 
HETATM   15  C6  UNL     1      20.085   0.989  51.028  1.00  0.00     0.064 C 
BRANCH  11  16
HETATM   16  C2  UNL     1      20.994  -0.160  54.443  1.00  0.00     0.342 C 
BRANCH  16  17
HETATM   17  C1  UNL     1      21.811  -1.378  54.692  1.00  0.00     0.261 C 
HETATM   18  O1  UNL     1      22.245  -1.556  53.556  1.00  0.00    -0.305 OA
ENDBRANCH  16  17
ENDBRANCH  11  16
ENDBRANCH   9  10
ENDBRANCH   7   9
ENDBRANCH   1   7
BRANCH   5  19
HETATM   19  C13 UNL     1      27.217  -0.423  53.146  1.00  0.00     0.011 A 
HETATM   20  C14 UNL     1      28.481  -0.123  53.560  1.00  0.00     0.017 A 
HETATM   21  C15 UNL     1      29.370  -1.172  53.549  1.00  0.00     0.020 A 
HETATM   22  C16 UNL     1      29.123  -2.451  53.175  1.00  0.00     0.116 A 
HETATM   23  N4  UNL     1      27.844  -2.716  52.767  1.00  0.00    -0.272 NA
HETATM   24  C17 UNL     1      26.914  -1.728  52.752  1.00  0.00     0.130 A 
ENDBRANCH   5  19
TORSDOF 6
ENDMDL
MODEL 3
REMARK VINA RESULT:      -7.4      1.893      3.694
REMARK  6 active torsions:
REMARK  status: ('A' for Active; 'I' for Inactive)
REMARK    1  A    between atoms: C1_2  and  C2_3 
REMARK    2  A    between atoms: C2_3  and  N1_4 
REMARK    3  A    between atoms: C7_9  and  C8_10 
REMARK    4  A    between atoms: C8_10  and  N2_11 
REMARK    5  A    between atoms: N2_11  and  C9_12 
REMARK    6  A    between atoms: C12_16  and  C13_17 
ROOT
HETATM    1  C9  UNL     1      26.517   1.623  52.419  1.00  0.00     0.722 A 
HETATM    2  N3  UNL     1      27.537   0.776  52.635  1.00  0.00    -0.075 NA
HETATM    3  C10 UNL     1      27.355  -0.468  53.165  1.00  0.00     0.139 A 
HETATM    4  C11 UNL     1      26.068  -0.893  53.500  1.00  0.00     0.053 A 
HETATM    5  C12 UNL     1      25.037  -0.007  53.271  1.00  0.00     0.089 A 
HETATM    6  N5  UNL     1      25.285   1.202  52.747  1.00  0.00    -0.062 NA
ENDROOT
BRANCH   1   7
HETATM    7  N2  UNL     1      26.913   2.861  51.852  1.00  0.00    -0.220 N 
HETATM    8  H13 UNL     1      27.407   3.184  52.701  1.00  0.00     0.177 HD
BRANCH   7   9
HETATM    9  C8  UNL     1      26.347   2.808  50.483  1.00  0.00     0.174 C 
BRANCH   9  10
HETATM   10  C7  UNL     1      26.265   4.247  50.017  1.00  0.00     0.245 C 
HETATM   11  N1  UNL     1      24.979   4.649  49.559  1.00  0.00     0.104 N 
HETATM   12  C3  UNL     1      25.001   6.081  49.348  1.00  0.00     0.300 C 
HETATM   13  C4  UNL     1      26.184   6.554  48.588  1.00  0.00    -0.001 C 
HETATM   14  C5  UNL     1      27.257   5.839  48.378  1.00  0.00    -0.027 C 
HETATM   15  C6  UNL     1      27.293   4.482  48.929  1.00  0.00     0.064 C 
BRANCH  11  16
HETATM   16  C2  UNL     1      23.861   4.212  50.330  1.00  0.00     0.342 C 
BRANCH  16  17
HETATM   17  C1  UNL     1      23.549   5.032  51.531  1.00  0.00     0.261 C 
HETATM   18  O1  UNL     1      23.473   4.134  52.366  1.00  0.00    -0.305 OA
ENDBRANCH  16  17
ENDBRANCH  11  16
ENDBRANCH   9  10
ENDBRANCH   7   9
ENDBRANCH   1   7
BRANCH   5  19
HETATM   19  C13 UNL     1      23.678  -0.394  53.601  1.00  0.00     0.011 A 
HETATM   20  C14 UNL     1      22.618  -0.093  52.797  1.00  0.00     0.017 A 
HETATM   21  C15 UNL     1      21.392  -0.523  53.252  1.00  0.00     0.020 A 
HETATM   22  C16 UNL     1      21.135  -1.203  54.395  1.00  0.00     0.116 A 
HETATM   23  N4  UNL     1      22.223  -1.488  55.176  1.00  0.00    -0.272 NA
HETATM   24  C17 UNL     1      23.462  -1.095  54.790  1.00  0.00     0.130 A 
ENDBRANCH   5  19
TORSDOF 6
ENDMDL
MODEL 4
REMARK VINA RESULT:      -7.3      3.414      6.478
REMARK  6 active torsions:
REMARK  status: ('A' for Active; 'I' for Inactive)
REMARK    1  A    between atoms: C1_2  and  C2_3 
REMARK    2  A    between atoms: C2_3  and  N1_4 
REMARK    3  A    between atoms: C7_9  and  C8_10 
REMARK    4  A    between atoms: C8_10  and  N2_11 
REMARK    5  A    between atoms: N2_11  and  C9_12 
REMARK    6  A    between atoms: C12_16  and  C13_17 
ROOT
HETATM    1  C9  UNL     1      23.788   1.760  51.081  1.00  0.00     0.722 A 
HETATM    2  N3  UNL     1      24.079   2.768  50.242  1.00  0.00    -0.075 NA
HETATM    3  C10 UNL     1      25.328   3.311  50.156  1.00  0.00     0.139 A 
HETATM    4  C11 UNL     1      26.353   2.813  50.962  1.00  0.00     0.053 A 
HETATM    5  C12 UNL     1      26.030   1.780  51.817  1.00  0.00     0.089 A 
HETATM    6  N5  UNL     1      24.782   1.292  51.851  1.00  0.00    -0.062 NA
ENDROOT
BRANCH   1   7
HETATM    7  N2  UNL     1      22.438   1.331  51.011  1.00  0.00    -0.220 N 
HETATM    8  H13 UNL     1      22.557   0.835  50.111  1.00  0.00     0.177 HD
BRANCH   7   9
HETATM    9  C8  UNL     1      21.836   1.889  52.245  1.00  0.00     0.174 C 
BRANCH   9  10
HETATM   10  C7  UNL     1      20.534   1.141  52.442  1.00  0.00     0.245 C 
HETATM   11  N1  UNL     1      20.655  -0.080  53.161  1.00  0.00     0.104 N 
HETATM   12  C3  UNL     1      19.323  -0.569  53.450  1.00  0.00     0.300 C 
HETATM   13  C4  UNL     1      18.411  -0.543  52.281  1.00  0.00    -0.001 C 
HETATM   14  C5  UNL     1      18.647   0.117  51.178  1.00  0.00    -0.027 C 
HETATM   15  C6  UNL     1      19.894   0.882  51.094  1.00  0.00     0.064 C 
BRANCH  11  16
HETATM   16  C2  UNL     1      21.509  -0.067  54.304  1.00  0.00     0.342 C 
BRANCH  16  17
HETATM   17  C1  UNL     1      22.556  -1.123  54.336  1.00  0.00     0.261 C 
HETATM   18  O1  UNL     1      22.227  -1.692  55.373  1.00  0.00    -0.305 OA
ENDBRANCH  16  17
ENDBRANCH  11  16
ENDBRANCH   9  10
ENDBRANCH   7   9
ENDBRANCH   1   7
BRANCH   5  19
HETATM   19  C13 UNL     1      27.055   1.222  52.680  1.00  0.00     0.011 A 
HETATM   20  C14 UNL     1      27.322  -0.114  52.727  1.00  0.00     0.017 A 
HETATM   21  C15 UNL     1      28.318  -0.486  53.600  1.00  0.00     0.020 A 
HETATM   22  C16 UNL     1      29.048   0.325  54.404  1.00  0.00     0.116 A 
HETATM   23  N4  UNL     1      28.754   1.659  54.329  1.00  0.00    -0.272 NA
HETATM   24  C17 UNL     1      27.783   2.098  53.489  1.00  0.00     0.130 A 
ENDBRANCH   5  19
TORSDOF 6
ENDMDL
MODEL 5
REMARK VINA RESULT:      -7.3      2.388      7.329
REMARK  6 active torsions:
REMARK  status: ('A' for Active; 'I' for Inactive)
REMARK    1  A    between atoms: C1_2  and  C2_3 
REMARK    2  A    between atoms: C2_3  and  N1_4 
REMARK    3  A    between atoms: C7_9  and  C8_10 
REMARK    4  A    between atoms: C8_10  and  N2_11 
REMARK    5  A    between atoms: N2_11  and  C9_12 
REMARK    6  A    between atoms: C12_16  and  C13_17 
ROOT
HETATM    1  C9  UNL     1      24.278   3.325  51.379  1.00  0.00     0.722 A 
HETATM    2  N3  UNL     1      23.080   3.392  50.776  1.00  0.00    -0.075 NA
HETATM    3  C10 UNL     1      22.889   4.055  49.599  1.00  0.00     0.139 A 
HETATM    4  C11 UNL     1      23.968   4.694  48.986  1.00  0.00     0.053 A 
HETATM    5  C12 UNL     1      25.187   4.613  49.624  1.00  0.00     0.089 A 
HETATM    6  N5  UNL     1      25.306   3.945  50.779  1.00  0.00    -0.062 NA
ENDROOT
BRANCH   1   7
HETATM    7  N2  UNL     1      24.269   2.580  52.587  1.00  0.00    -0.220 N 
HETATM    8  H13 UNL     1      24.451   3.400  53.189  1.00  0.00     0.177 HD
BRANCH   7   9
HETATM    9  C8  UNL     1      24.015   1.192  52.131  1.00  0.00     0.174 C 
BRANCH   9  10
HETATM   10  C7  UNL     1      23.600   0.423  53.367  1.00  0.00     0.245 C 
HETATM   11  N1  UNL     1      24.507  -0.600  53.762  1.00  0.00     0.104 N 
HETATM   12  C3  UNL     1      24.092  -1.098  55.056  1.00  0.00     0.300 C 
HETATM   13  C4  UNL     1      22.641  -1.391  55.145  1.00  0.00    -0.001 C 
HETATM   14  C5  UNL     1      21.752  -0.976  54.281  1.00  0.00    -0.027 C 
HETATM   15  C6  UNL     1      22.222  -0.170  53.152  1.00  0.00     0.064 C 
BRANCH  11  16
HETATM   16  C2  UNL     1      25.896  -0.278  53.703  1.00  0.00     0.342 C 
BRANCH  16  17
HETATM   17  C1  UNL     1      26.472   0.314  54.941  1.00  0.00     0.261 C 
HETATM   18  O1  UNL     1      26.645   1.464  54.544  1.00  0.00    -0.305 OA
ENDBRANCH  16  17
ENDBRANCH  11  16
ENDBRANCH   9  10
ENDBRANCH   7   9
ENDBRANCH   1   7
BRANCH   5  19
HETATM   19  C13 UNL     1      26.345   5.259  49.032  1.00  0.00     0.011 A 
HETATM   20  C14 UNL     1      26.318   6.552  48.600  1.00  0.00     0.017 A 
HETATM   21  C15 UNL     1      27.494   7.017  48.057  1.00  0.00     0.020 A 
HETATM   22  C16 UNL     1      28.655   6.334  47.911  1.00  0.00     0.116 A 
HETATM   23  N4  UNL     1      28.646   5.040  48.358  1.00  0.00    -0.272 NA
HETATM   24  C17 UNL     1      27.520   4.515  48.904  1.00  0.00     0.130 A 
ENDBRANCH   5  19
TORSDOF 6
ENDMDL
MODEL 6
REMARK VINA RESULT:      -7.2      1.342      1.600
REMARK  6 active torsions:
REMARK  status: ('A' for Active; 'I' for Inactive)
REMARK    1  A    between atoms: C1_2  and  C2_3 
REMARK    2  A    between atoms: C2_3  and  N1_4 
REMARK    3  A    between atoms: C7_9  and  C8_10 
REMARK    4  A    between atoms: C8_10  and  N2_11 
REMARK    5  A    between atoms: N2_11  and  C9_12 
REMARK    6  A    between atoms: C12_16  and  C13_17 
ROOT
HETATM    1  C9  UNL     1      24.050   1.849  52.496  1.00  0.00     0.722 A 
HETATM    2  N3  UNL     1      23.066   1.077  52.985  1.00  0.00    -0.075 NA
HETATM    3  C10 UNL     1      23.313  -0.093  53.643  1.00  0.00     0.139 A 
HETATM    4  C11 UNL     1      24.630  -0.517  53.825  1.00  0.00     0.053 A 
HETATM    5  C12 UNL     1      25.623   0.291  53.314  1.00  0.00     0.089 A 
HETATM    6  N5  UNL     1      25.312   1.429  52.677  1.00  0.00    -0.062 NA
ENDROOT
BRANCH   1   7
HETATM    7  N2  UNL     1      23.587   3.027  51.856  1.00  0.00    -0.220 N 
HETATM    8  H13 UNL     1      23.236   3.460  52.727  1.00  0.00     0.177 HD
BRANCH   7   9
HETATM    9  C8  UNL     1      23.926   2.799  50.431  1.00  0.00     0.174 C 
BRANCH   9  10
HETATM   10  C7  UNL     1      24.865   3.923  50.047  1.00  0.00     0.245 C 
HETATM   11  N1  UNL     1      24.334   4.841  49.099  1.00  0.00     0.104 N 
HETATM   12  C3  UNL     1      25.248   5.958  48.990  1.00  0.00     0.300 C 
HETATM   13  C4  UNL     1      26.668   5.555  48.841  1.00  0.00    -0.001 C 
HETATM   14  C5  UNL     1      27.120   4.353  49.080  1.00  0.00    -0.027 C 
HETATM   15  C6  UNL     1      26.161   3.339  49.524  1.00  0.00     0.064 C 
BRANCH  11  16
HETATM   16  C2  UNL     1      22.978   5.241  49.288  1.00  0.00     0.342 C 
BRANCH  16  17
HETATM   17  C1  UNL     1      22.768   6.378  50.224  1.00  0.00     0.261 C 
HETATM   18  O1  UNL     1      22.146   5.791  51.106  1.00  0.00    -0.305 OA
ENDBRANCH  16  17
ENDBRANCH  11  16
ENDBRANCH   9  10
ENDBRANCH   7   9
ENDBRANCH   1   7
BRANCH   5  19
HETATM   19  C13 UNL     1      27.012  -0.100  53.472  1.00  0.00     0.011 A 
HETATM   20  C14 UNL     1      27.514  -1.246  52.930  1.00  0.00     0.017 A 
HETATM   21  C15 UNL     1      28.847  -1.480  53.175  1.00  0.00     0.020 A 
HETATM   22  C16 UNL     1      29.698  -0.701  53.887  1.00  0.00     0.116 A 
HETATM   23  N4  UNL     1      29.160   0.442  54.413  1.00  0.00    -0.272 NA
HETATM   24  C17 UNL     1      27.851   0.736  54.212  1.00  0.00     0.130 A 
ENDBRANCH   5  19
TORSDOF 6
ENDMDL
MODEL 7
REMARK VINA RESULT:      -7.2      4.351      7.137
REMARK  6 active torsions:
REMARK  status: ('A' for Active; 'I' for Inactive)
REMARK    1  A    between atoms: C1_2  and  C2_3 
REMARK    2  A    between atoms: C2_3  and  N1_4 
REMARK    3  A    between atoms: C7_9  and  C8_10 
REMARK    4  A    between atoms: C8_10  and  N2_11 
REMARK    5  A    between atoms: N2_11  and  C9_12 
REMARK    6  A    between atoms: C12_16  and  C13_17 
ROOT
HETATM    1  C9  UNL     1      23.307  -0.680  54.066  1.00  0.00     0.722 A 
HETATM    2  N3  UNL     1      22.384  -1.299  54.819  1.00  0.00    -0.075 NA
HETATM    3  C10 UNL     1      21.061  -1.320  54.485  1.00  0.00     0.139 A 
HETATM    4  C11 UNL     1      20.634  -0.679  53.321  1.00  0.00     0.053 A 
HETATM    5  C12 UNL     1      21.599  -0.049  52.564  1.00  0.00     0.089 A 
HETATM    6  N5  UNL     1      22.883  -0.067  52.950  1.00  0.00    -0.062 NA
ENDROOT
BRANCH   1   7
HETATM    7  N2  UNL     1      24.626  -0.784  54.579  1.00  0.00    -0.220 N 
HETATM    8  H13 UNL     1      24.331  -1.200  55.478  1.00  0.00     0.177 HD
BRANCH   7   9
HETATM    9  C8  UNL     1      25.462  -0.231  53.487  1.00  0.00     0.174 C 
BRANCH   9  10
HETATM   10  C7  UNL     1      26.820  -0.884  53.639  1.00  0.00     0.245 C 
HETATM   11  N1  UNL     1      27.924   0.002  53.494  1.00  0.00     0.104 N 
HETATM   12  C3  UNL     1      29.128  -0.709  53.868  1.00  0.00     0.300 C 
HETATM   13  C4  UNL     1      29.239  -2.057  53.257  1.00  0.00    -0.001 C 
HETATM   14  C5  UNL     1      28.248  -2.690  52.687  1.00  0.00    -0.027 C 
HETATM   15  C6  UNL     1      26.944  -2.024  52.649  1.00  0.00     0.064 C 
BRANCH  11  16
HETATM   16  C2  UNL     1      27.806   1.277  54.123  1.00  0.00     0.342 C 
BRANCH  16  17
HETATM   17  C1  UNL     1      28.644   2.360  53.542  1.00  0.00     0.261 C 
HETATM   18  O1  UNL     1      29.378   2.575  54.504  1.00  0.00    -0.305 OA
ENDBRANCH  16  17
ENDBRANCH  11  16
ENDBRANCH   9  10
ENDBRANCH   7   9
ENDBRANCH   1   7
BRANCH   5  19
HETATM   19  C13 UNL     1      21.214   0.635  51.343  1.00  0.00     0.011 A 
HETATM   20  C14 UNL     1      22.118   1.279  50.551  1.00  0.00     0.017 A 
HETATM   21  C15 UNL     1      21.595   1.885  49.432  1.00  0.00     0.020 A 
HETATM   22  C16 UNL     1      20.297   1.906  49.042  1.00  0.00     0.116 A 
HETATM   23  N4  UNL     1      19.419   1.247  49.860  1.00  0.00    -0.272 NA
HETATM   24  C17 UNL     1      19.865   0.628  50.982  1.00  0.00     0.130 A 
ENDBRANCH   5  19
TORSDOF 6
ENDMDL
MODEL 8
REMARK VINA RESULT:      -7.0      3.568      6.250
REMARK  6 active torsions:
REMARK  status: ('A' for Active; 'I' for Inactive)
REMARK    1  A    between atoms: C1_2  and  C2_3 
REMARK    2  A    between atoms: C2_3  and  N1_4 
REMARK    3  A    between atoms: C7_9  and  C8_10 
REMARK    4  A    between atoms: C8_10  and  N2_11 
REMARK    5  A    between atoms: N2_11  and  C9_12 
REMARK    6  A    between atoms: C12_16  and  C13_17 
ROOT
HETATM    1  C9  UNL     1      23.667  -0.867  54.274  1.00  0.00     0.722 A 
HETATM    2  N3  UNL     1      22.800  -1.416  55.141  1.00  0.00    -0.075 NA
HETATM    3  C10 UNL     1      21.452  -1.414  54.928  1.00  0.00     0.139 A 
HETATM    4  C11 UNL     1      20.938  -0.824  53.772  1.00  0.00     0.053 A 
HETATM    5  C12 UNL     1      21.846  -0.266  52.898  1.00  0.00     0.089 A 
HETATM    6  N5  UNL     1      23.158  -0.302  53.168  1.00  0.00    -0.062 NA
ENDROOT
BRANCH   1   7
HETATM    7  N2  UNL     1      25.023  -0.983  54.672  1.00  0.00    -0.220 N 
HETATM    8  H13 UNL     1      24.801  -1.154  55.668  1.00  0.00     0.177 HD
BRANCH   7   9
HETATM    9  C8  UNL     1      25.770  -0.778  53.409  1.00  0.00     0.174 C 
BRANCH   9  10
HETATM   10  C7  UNL     1      26.799   0.293  53.708  1.00  0.00     0.245 C 
HETATM   11  N1  UNL     1      26.960   1.263  52.680  1.00  0.00     0.104 N 
HETATM   12  C3  UNL     1      27.807   2.323  53.187  1.00  0.00     0.300 C 
HETATM   13  C4  UNL     1      29.027   1.834  53.874  1.00  0.00    -0.001 C 
HETATM   14  C5  UNL     1      29.207   0.600  54.266  1.00  0.00    -0.027 C 
HETATM   15  C6  UNL     1      28.132  -0.361  54.010  1.00  0.00     0.064 C 
BRANCH  11  16
HETATM   16  C2  UNL     1      25.767   1.744  52.063  1.00  0.00     0.342 C 
BRANCH  16  17
HETATM   17  C1  UNL     1      24.978   2.719  52.863  1.00  0.00     0.261 C 
HETATM   18  O1  UNL     1      24.575   3.438  51.951  1.00  0.00    -0.305 OA
ENDBRANCH  16  17
ENDBRANCH  11  16
ENDBRANCH   9  10
ENDBRANCH   7   9
ENDBRANCH   1   7
BRANCH   5  19
HETATM   19  C13 UNL     1      21.369   0.363  51.680  1.00  0.00     0.011 A 
HETATM   20  C14 UNL     1      20.056   0.342  51.314  1.00  0.00     0.017 A 
HETATM   21  C15 UNL     1      19.764   0.976  50.128  1.00  0.00     0.020 A 
HETATM   22  C16 UNL     1      20.632   1.608  49.301  1.00  0.00     0.116 A 
HETATM   23  N4  UNL     1      21.941   1.611  49.702  1.00  0.00    -0.272 NA
HETATM   24  C17 UNL     1      22.301   1.004  50.861  1.00  0.00     0.130 A 
ENDBRANCH   5  19
TORSDOF 6
ENDMDL
MODEL 9
REMARK VINA RESULT:      -6.9      1.936      3.025
REMARK  6 active torsions:
REMARK  status: ('A' for Active; 'I' for Inactive)
REMARK    1  A    between atoms: C1_2  and  C2_3 
REMARK    2  A    between atoms: C2_3  and  N1_4 
REMARK    3  A    between atoms: C7_9  and  C8_10 
REMARK    4  A    between atoms: C8_10  and  N2_11 
REMARK    5  A    between atoms: N2_11  and  C9_12 
REMARK    6  A    between atoms: C12_16  and  C13_17 
ROOT
HETATM    1  C9  UNL     1      22.988   1.967  52.691  1.00  0.00     0.722 A 
HETATM    2  N3  UNL     1      22.068   0.996  52.806  1.00  0.00    -0.075 NA
HETATM    3  C10 UNL     1      22.394  -0.283  53.155  1.00  0.00     0.139 A 
HETATM    4  C11 UNL     1      23.727  -0.610  53.404  1.00  0.00     0.053 A 
HETATM    5  C12 UNL     1      24.654   0.402  53.278  1.00  0.00     0.089 A 
HETATM    6  N5  UNL     1      24.267   1.638  52.932  1.00  0.00    -0.062 NA
ENDROOT
BRANCH   1   7
HETATM    7  N2  UNL     1      22.446   3.228  52.331  1.00  0.00    -0.220 N 
HETATM    8  H13 UNL     1      22.256   3.516  53.306  1.00  0.00     0.177 HD
BRANCH   7   9
HETATM    9  C8  UNL     1      22.535   3.229  50.851  1.00  0.00     0.174 C 
BRANCH   9  10
HETATM   10  C7  UNL     1      23.213   4.532  50.481  1.00  0.00     0.245 C 
HETATM   11  N1  UNL     1      24.635   4.485  50.496  1.00  0.00     0.104 N 
HETATM   12  C3  UNL     1      25.134   5.718  49.927  1.00  0.00     0.300 C 
HETATM   13  C4  UNL     1      24.478   6.934  50.467  1.00  0.00    -0.001 C 
HETATM   14  C5  UNL     1      23.365   6.926  51.153  1.00  0.00    -0.027 C 
HETATM   15  C6  UNL     1      22.727   5.632  51.403  1.00  0.00     0.064 C 
BRANCH  11  16
HETATM   16  C2  UNL     1      25.241   3.321  49.935  1.00  0.00     0.342 C 
BRANCH  16  17
HETATM   17  C1  UNL     1      26.727   3.342  49.864  1.00  0.00     0.261 C 
HETATM   18  O1  UNL     1      26.981   2.844  50.958  1.00  0.00    -0.305 OA
ENDBRANCH  16  17
ENDBRANCH  11  16
ENDBRANCH   9  10
ENDBRANCH   7   9
ENDBRANCH   1   7
BRANCH   5  19
HETATM   19  C13 UNL     1      26.056   0.119  53.525  1.00  0.00     0.011 A 
HETATM   20  C14 UNL     1      26.770  -0.756  52.760  1.00  0.00     0.017 A 
HETATM   21  C15 UNL     1      28.086  -0.921  53.125  1.00  0.00     0.020 A 
HETATM   22  C16 UNL     1      28.735  -0.313  54.148  1.00  0.00     0.116 A 
HETATM   23  N4  UNL     1      27.988   0.561  54.892  1.00  0.00    -0.272 NA
HETATM   24  C17 UNL     1      26.682   0.772  54.589  1.00  0.00     0.130 A 
ENDBRANCH   5  19
TORSDOF 6
ENDMDL
