MODEL 1
REMARK VINA RESULT:      -7.8      0.000      0.000
REMARK  4 active torsions:
REMARK  status: ('A' for Active; 'I' for Inactive)
REMARK    1  A    between atoms: C2_2  and  S1_3 
REMARK    2  A    between atoms: N1_9  and  C8_10 
REMARK    3  A    between atoms: C8_10  and  N2_11 
REMARK    4  A    between atoms: N2_11  and  C9_12 
ROOT
HETATM    1  C1  UNL     1      21.937   1.729  48.196  1.00  0.00     0.027 C 
HETATM    2  C2  UNL     1      21.702   1.974  49.716  1.00  0.00     0.006 C 
HETATM    3  C3  UNL     1      23.055   2.323  50.314  1.00  0.00     0.037 A 
HETATM    4  C4  UNL     1      23.871   3.065  49.515  1.00  0.00    -0.021 A 
HETATM    5  C5  UNL     1      25.006   3.110  50.566  1.00  0.00    -0.021 A 
HETATM    6  C6  UNL     1      24.246   2.380  51.483  1.00  0.00     0.047 A 
HETATM    7  C7  UNL     1      24.288   1.808  52.824  1.00  0.00     0.280 C 
HETATM    8  N1  UNL     1      23.837   0.405  52.722  1.00  0.00     0.106 N 
HETATM    9  C15 UNL     1      22.543   0.346  53.417  1.00  0.00     0.274 C 
HETATM   10  C16 UNL     1      21.403   1.054  52.871  1.00  0.00     0.030 C 
HETATM   11  C17 UNL     1      20.721   0.625  51.646  1.00  0.00     0.003 C 
HETATM   12  C18 UNL     1      21.306   0.640  50.314  1.00  0.00     0.020 C 
ENDROOT
BRANCH   8  13
HETATM   13  C8  UNL     1      24.702  -0.342  53.683  1.00  0.00     0.395 C 
BRANCH  13  14
HETATM   14  N2  UNL     1      25.856  -0.949  53.095  1.00  0.00    -0.365 N 
HETATM   15  H13 UNL     1      25.530  -1.672  52.381  1.00  0.00     0.161 HD
BRANCH  14  16
HETATM   16  C9  UNL     1      27.261  -0.818  53.240  1.00  0.00     0.029 A 
HETATM   17  C10 UNL     1      27.851   0.388  53.544  1.00  0.00     0.029 A 
HETATM   18  C11 UNL     1      29.242   0.490  53.700  1.00  0.00     0.002 A 
HETATM   19  C12 UNL     1      30.056  -0.631  53.556  1.00  0.00     0.000 A 
HETATM   20  C13 UNL     1      29.405  -1.801  53.251  1.00  0.00     0.002 A 
HETATM   21  C14 UNL     1      28.058  -1.964  53.086  1.00  0.00     0.029 A 
ENDBRANCH  14  16
ENDBRANCH  13  14
ENDBRANCH   8  13
BRANCH   2  22
HETATM   22  S1  UNL     1      20.474   3.250  49.889  1.00  0.00    -0.172 SA
HETATM   23  H4  UNL     1      21.116   4.510  49.750  1.00  0.00     0.102 HD
ENDBRANCH   2  22
TORSDOF 4
ENDMDL
MODEL 2
REMARK VINA RESULT:      -7.3      1.367      2.085
REMARK  4 active torsions:
REMARK  status: ('A' for Active; 'I' for Inactive)
REMARK    1  A    between atoms: C2_2  and  S1_3 
REMARK    2  A    between atoms: N1_9  and  C8_10 
REMARK    3  A    between atoms: C8_10  and  N2_11 
REMARK    4  A    between atoms: N2_11  and  C9_12 
ROOT
HETATM    1  C1  UNL     1      21.224   0.987  48.976  1.00  0.00     0.027 C 
HETATM    2  C2  UNL     1      21.665   1.756  50.257  1.00  0.00     0.006 C 
HETATM    3  C3  UNL     1      22.794   2.684  49.838  1.00  0.00     0.037 A 
HETATM    4  C4  UNL     1      22.669   3.230  48.597  1.00  0.00    -0.021 A 
HETATM    5  C5  UNL     1      23.995   4.018  48.714  1.00  0.00    -0.021 A 
HETATM    6  C6  UNL     1      24.213   3.547  50.011  1.00  0.00     0.047 A 
HETATM    7  C7  UNL     1      25.155   3.611  51.122  1.00  0.00     0.280 C 
HETATM    8  N1  UNL     1      25.427   2.225  51.554  1.00  0.00     0.106 N 
HETATM    9  C15 UNL     1      24.828   2.094  52.891  1.00  0.00     0.274 C 
HETATM   10  C16 UNL     1      23.389   2.165  53.040  1.00  0.00     0.030 C 
HETATM   11  C17 UNL     1      22.494   1.100  52.578  1.00  0.00     0.003 C 
HETATM   12  C18 UNL     1      22.281   0.732  51.187  1.00  0.00     0.020 C 
ENDROOT
BRANCH   8  13
HETATM   13  C8  UNL     1      26.880   2.213  51.900  1.00  0.00     0.395 C 
BRANCH  13  14
HETATM   14  N2  UNL     1      27.238   1.281  52.924  1.00  0.00    -0.365 N 
HETATM   15  H13 UNL     1      27.071   1.742  53.873  1.00  0.00     0.161 HD
BRANCH  14  16
HETATM   16  C9  UNL     1      27.742  -0.044  52.965  1.00  0.00     0.029 A 
HETATM   17  C10 UNL     1      29.021  -0.322  53.391  1.00  0.00     0.029 A 
HETATM   18  C11 UNL     1      29.491  -1.644  53.441  1.00  0.00     0.002 A 
HETATM   19  C12 UNL     1      28.670  -2.704  53.065  1.00  0.00     0.000 A 
HETATM   20  C13 UNL     1      27.408  -2.358  52.649  1.00  0.00     0.002 A 
HETATM   21  C14 UNL     1      26.893  -1.094  52.578  1.00  0.00     0.029 A 
ENDBRANCH  14  16
ENDBRANCH  13  14
ENDBRANCH   8  13
BRANCH   2  22
HETATM   22  S1  UNL     1      20.240   2.589  50.922  1.00  0.00    -0.172 SA
HETATM   23  H4  UNL     1      19.755   1.834  52.024  1.00  0.00     0.102 HD
ENDBRANCH   2  22
TORSDOF 4
ENDMDL
MODEL 3
REMARK VINA RESULT:      -7.2      2.909      5.171
REMARK  4 active torsions:
REMARK  status: ('A' for Active; 'I' for Inactive)
REMARK    1  A    between atoms: C2_2  and  S1_3 
REMARK    2  A    between atoms: N1_9  and  C8_10 
REMARK    3  A    between atoms: C8_10  and  N2_11 
REMARK    4  A    between atoms: N2_11  and  C9_12 
ROOT
HETATM    1  C1  UNL     1      20.104   0.663  51.635  1.00  0.00     0.027 C 
HETATM    2  C2  UNL     1      21.282   0.696  52.652  1.00  0.00     0.006 C 
HETATM    3  C3  UNL     1      21.949   2.053  52.500  1.00  0.00     0.037 A 
HETATM    4  C4  UNL     1      21.105   3.091  52.240  1.00  0.00    -0.021 A 
HETATM    5  C5  UNL     1      22.253   4.128  52.196  1.00  0.00    -0.021 A 
HETATM    6  C6  UNL     1      23.207   3.151  52.493  1.00  0.00     0.047 A 
HETATM    7  C7  UNL     1      24.638   2.957  52.698  1.00  0.00     0.280 C 
HETATM    8  N1  UNL     1      25.051   1.806  51.868  1.00  0.00     0.106 N 
HETATM    9  C15 UNL     1      25.409   0.737  52.813  1.00  0.00     0.274 C 
HETATM   10  C16 UNL     1      24.381   0.140  53.641  1.00  0.00     0.030 C 
HETATM   11  C17 UNL     1      23.342  -0.741  53.097  1.00  0.00     0.003 C 
HETATM   12  C18 UNL     1      22.293  -0.328  52.178  1.00  0.00     0.020 C 
ENDROOT
BRANCH   8  13
HETATM   13  C8  UNL     1      26.402   2.179  51.349  1.00  0.00     0.395 C 
BRANCH  13  14
HETATM   14  N2  UNL     1      26.396   2.745  50.035  1.00  0.00    -0.365 N 
HETATM   15  H13 UNL     1      26.476   1.951  49.326  1.00  0.00     0.161 HD
BRANCH  14  16
HETATM   16  C9  UNL     1      26.317   4.051  49.490  1.00  0.00     0.029 A 
HETATM   17  C10 UNL     1      25.164   4.799  49.559  1.00  0.00     0.029 A 
HETATM   18  C11 UNL     1      25.114   6.098  49.028  1.00  0.00     0.002 A 
HETATM   19  C12 UNL     1      26.236   6.660  48.424  1.00  0.00     0.000 A 
HETATM   20  C13 UNL     1      27.353   5.862  48.387  1.00  0.00     0.002 A 
HETATM   21  C14 UNL     1      27.463   4.593  48.884  1.00  0.00     0.029 A 
ENDBRANCH  14  16
ENDBRANCH  13  14
ENDBRANCH   8  13
BRANCH   2  22
HETATM   22  S1  UNL     1      20.623   0.380  54.275  1.00  0.00    -0.172 SA
HETATM   23  H4  UNL     1      19.675   1.395  54.577  1.00  0.00     0.102 HD
ENDBRANCH   2  22
TORSDOF 4
ENDMDL
MODEL 4
REMARK VINA RESULT:      -7.1      2.131      3.134
REMARK  4 active torsions:
REMARK  status: ('A' for Active; 'I' for Inactive)
REMARK    1  A    between atoms: C2_2  and  S1_3 
REMARK    2  A    between atoms: N1_9  and  C8_10 
REMARK    3  A    between atoms: C8_10  and  N2_11 
REMARK    4  A    between atoms: N2_11  and  C9_12 
ROOT
HETATM    1  C1  UNL     1      21.675   3.522  46.274  1.00  0.00     0.027 C 
HETATM    2  C2  UNL     1      21.792   3.497  47.827  1.00  0.00     0.006 C 
HETATM    3  C3  UNL     1      22.833   4.538  48.201  1.00  0.00     0.037 A 
HETATM    4  C4  UNL     1      22.837   5.662  47.430  1.00  0.00    -0.021 A 
HETATM    5  C5  UNL     1      24.005   6.304  48.217  1.00  0.00    -0.021 A 
HETATM    6  C6  UNL     1      24.072   5.217  49.092  1.00  0.00     0.047 A 
HETATM    7  C7  UNL     1      24.803   4.704  50.246  1.00  0.00     0.280 C 
HETATM    8  N1  UNL     1      25.190   3.311  49.940  1.00  0.00     0.106 N 
HETATM    9  C15 UNL     1      24.407   2.466  50.853  1.00  0.00     0.274 C 
HETATM   10  C16 UNL     1      22.966   2.401  50.709  1.00  0.00     0.030 C 
HETATM   11  C17 UNL     1      22.315   1.723  49.584  1.00  0.00     0.003 C 
HETATM   12  C18 UNL     1      22.385   2.153  48.196  1.00  0.00     0.020 C 
ENDROOT
BRANCH   8  13
HETATM   13  C8  UNL     1      26.556   3.160  50.528  1.00  0.00     0.395 C 
BRANCH  13  14
HETATM   14  N2  UNL     1      26.571   2.690  51.879  1.00  0.00    -0.365 N 
HETATM   15  H13 UNL     1      25.754   3.138  52.401  1.00  0.00     0.161 HD
BRANCH  14  16
HETATM   16  C9  UNL     1      27.383   1.814  52.643  1.00  0.00     0.029 A 
HETATM   17  C10 UNL     1      28.366   2.283  53.484  1.00  0.00     0.029 A 
HETATM   18  C11 UNL     1      29.146   1.397  54.245  1.00  0.00     0.002 A 
HETATM   19  C12 UNL     1      28.936   0.023  54.169  1.00  0.00     0.000 A 
HETATM   20  C13 UNL     1      27.941  -0.378  53.311  1.00  0.00     0.002 A 
HETATM   21  C14 UNL     1      27.151   0.432  52.545  1.00  0.00     0.029 A 
ENDBRANCH  14  16
ENDBRANCH  13  14
ENDBRANCH   8  13
BRANCH   2  22
HETATM   22  S1  UNL     1      20.176   3.799  48.509  1.00  0.00    -0.172 SA
HETATM   23  H4  UNL     1      19.882   5.182  48.365  1.00  0.00     0.102 HD
ENDBRANCH   2  22
TORSDOF 4
ENDMDL
MODEL 5
REMARK VINA RESULT:      -7.1      3.785      6.071
REMARK  4 active torsions:
REMARK  status: ('A' for Active; 'I' for Inactive)
REMARK    1  A    between atoms: C2_2  and  S1_3 
REMARK    2  A    between atoms: N1_9  and  C8_10 
REMARK    3  A    between atoms: C8_10  and  N2_11 
REMARK    4  A    between atoms: N2_11  and  C9_12 
ROOT
HETATM    1  C1  UNL     1      26.207   8.453  47.486  1.00  0.00     0.027 C 
HETATM    2  C2  UNL     1      25.922   7.915  48.920  1.00  0.00     0.006 C 
HETATM    3  C3  UNL     1      26.433   6.484  48.956  1.00  0.00     0.037 A 
HETATM    4  C4  UNL     1      27.569   6.253  48.241  1.00  0.00    -0.021 A 
HETATM    5  C5  UNL     1      27.609   4.754  48.623  1.00  0.00    -0.021 A 
HETATM    6  C6  UNL     1      26.465   4.879  49.414  1.00  0.00     0.047 A 
HETATM    7  C7  UNL     1      25.559   4.116  50.266  1.00  0.00     0.280 C 
HETATM    8  N1  UNL     1      24.180   4.424  49.832  1.00  0.00     0.106 N 
HETATM    9  C15 UNL     1      23.571   5.182  50.935  1.00  0.00     0.274 C 
HETATM   10  C16 UNL     1      24.072   6.503  51.259  1.00  0.00     0.030 C 
HETATM   11  C17 UNL     1      23.853   7.664  50.391  1.00  0.00     0.003 C 
HETATM   12  C18 UNL     1      24.416   7.831  49.060  1.00  0.00     0.020 C 
ENDROOT
BRANCH   8  13
HETATM   13  C8  UNL     1      23.448   3.127  49.950  1.00  0.00     0.395 C 
BRANCH  13  14
HETATM   14  N2  UNL     1      24.018   2.206  50.884  1.00  0.00    -0.365 N 
HETATM   15  H13 UNL     1      25.081   2.304  50.847  1.00  0.00     0.161 HD
BRANCH  14  16
HETATM   16  C9  UNL     1      23.521   1.241  51.796  1.00  0.00     0.029 A 
HETATM   17  C10 UNL     1      22.207   0.833  51.777  1.00  0.00     0.029 A 
HETATM   18  C11 UNL     1      21.741  -0.138  52.678  1.00  0.00     0.002 A 
HETATM   19  C12 UNL     1      22.603  -0.714  53.608  1.00  0.00     0.000 A 
HETATM   20  C13 UNL     1      23.900  -0.262  53.575  1.00  0.00     0.002 A 
HETATM   21  C14 UNL     1      24.412   0.678  52.725  1.00  0.00     0.029 A 
ENDBRANCH  14  16
ENDBRANCH  13  14
ENDBRANCH   8  13
BRANCH   2  22
HETATM   22  S1  UNL     1      26.708   9.004  50.088  1.00  0.00    -0.172 SA
HETATM   23  H4  UNL     1      28.114   8.821  49.992  1.00  0.00     0.102 HD
ENDBRANCH   2  22
TORSDOF 4
ENDMDL
MODEL 6
REMARK VINA RESULT:      -7.1      2.248      3.577
REMARK  4 active torsions:
REMARK  status: ('A' for Active; 'I' for Inactive)
REMARK    1  A    between atoms: C2_2  and  S1_3 
REMARK    2  A    between atoms: N1_9  and  C8_10 
REMARK    3  A    between atoms: C8_10  and  N2_11 
REMARK    4  A    between atoms: N2_11  and  C9_12 
ROOT
HETATM    1  C1  UNL     1      20.189   0.645  51.092  1.00  0.00     0.027 C 
HETATM    2  C2  UNL     1      20.652   2.125  50.944  1.00  0.00     0.006 C 
HETATM    3  C3  UNL     1      21.571   2.173  49.734  1.00  0.00     0.037 A 
HETATM    4  C4  UNL     1      21.222   1.351  48.705  1.00  0.00    -0.021 A 
HETATM    5  C5  UNL     1      22.418   1.796  47.829  1.00  0.00    -0.021 A 
HETATM    6  C6  UNL     1      22.853   2.699  48.802  1.00  0.00     0.047 A 
HETATM    7  C7  UNL     1      23.896   3.678  49.089  1.00  0.00     0.280 C 
HETATM    8  N1  UNL     1      24.423   3.381  50.437  1.00  0.00     0.106 N 
HETATM    9  C15 UNL     1      24.009   4.506  51.288  1.00  0.00     0.274 C 
HETATM   10  C16 UNL     1      22.602   4.712  51.569  1.00  0.00     0.030 C 
HETATM   11  C17 UNL     1      21.833   3.820  52.441  1.00  0.00     0.003 C 
HETATM   12  C18 UNL     1      21.520   2.429  52.148  1.00  0.00     0.020 C 
ENDROOT
BRANCH   8  13
HETATM   13  C8  UNL     1      25.891   3.637  50.335  1.00  0.00     0.395 C 
BRANCH  13  14
HETATM   14  N2  UNL     1      26.666   3.080  51.400  1.00  0.00    -0.365 N 
HETATM   15  H13 UNL     1      27.493   3.729  51.590  1.00  0.00     0.161 HD
BRANCH  14  16
HETATM   16  C9  UNL     1      26.592   1.924  52.217  1.00  0.00     0.029 A 
HETATM   17  C10 UNL     1      26.655   0.655  51.686  1.00  0.00     0.029 A 
HETATM   18  C11 UNL     1      26.598  -0.476  52.516  1.00  0.00     0.002 A 
HETATM   19  C12 UNL     1      26.482  -0.337  53.897  1.00  0.00     0.000 A 
HETATM   20  C13 UNL     1      26.423   0.954  54.361  1.00  0.00     0.002 A 
HETATM   21  C14 UNL     1      26.473   2.092  53.606  1.00  0.00     0.029 A 
ENDBRANCH  14  16
ENDBRANCH  13  14
ENDBRANCH   8  13
BRANCH   2  22
HETATM   22  S1  UNL     1      19.204   3.149  50.805  1.00  0.00    -0.172 SA
HETATM   23  H4  UNL     1      18.510   3.111  52.045  1.00  0.00     0.102 HD
ENDBRANCH   2  22
TORSDOF 4
ENDMDL
MODEL 7
REMARK VINA RESULT:      -7.0      1.575      2.025
REMARK  4 active torsions:
REMARK  status: ('A' for Active; 'I' for Inactive)
REMARK    1  A    between atoms: C2_2  and  S1_3 
REMARK    2  A    between atoms: N1_9  and  C8_10 
REMARK    3  A    between atoms: C8_10  and  N2_11 
REMARK    4  A    between atoms: N2_11  and  C9_12 
ROOT
HETATM    1  C1  UNL     1      20.298   2.937  49.548  1.00  0.00     0.027 C 
HETATM    2  C2  UNL     1      20.728   2.372  50.934  1.00  0.00     0.006 C 
HETATM    3  C3  UNL     1      21.787   3.317  51.477  1.00  0.00     0.037 A 
HETATM    4  C4  UNL     1      21.595   4.635  51.190  1.00  0.00    -0.021 A 
HETATM    5  C5  UNL     1      22.875   5.075  51.941  1.00  0.00    -0.021 A 
HETATM    6  C6  UNL     1      23.157   3.762  52.324  1.00  0.00     0.047 A 
HETATM    7  C7  UNL     1      24.124   2.952  53.056  1.00  0.00     0.280 C 
HETATM    8  N1  UNL     1      24.490   1.810  52.193  1.00  0.00     0.106 N 
HETATM    9  C15 UNL     1      23.938   0.616  52.850  1.00  0.00     0.274 C 
HETATM   10  C16 UNL     1      22.501   0.453  52.948  1.00  0.00     0.030 C 
HETATM   11  C17 UNL     1      21.659   0.156  51.786  1.00  0.00     0.003 C 
HETATM   12  C18 UNL     1      21.430   1.057  50.667  1.00  0.00     0.020 C 
ENDROOT
BRANCH   8  13
HETATM   13  C8  UNL     1      25.951   1.606  52.432  1.00  0.00     0.395 C 
BRANCH  13  14
HETATM   14  N2  UNL     1      26.337   0.242  52.617  1.00  0.00    -0.365 N 
HETATM   15  H13 UNL     1      25.480  -0.376  52.459  1.00  0.00     0.161 HD
BRANCH  14  16
HETATM   16  C9  UNL     1      27.533  -0.442  52.949  1.00  0.00     0.029 A 
HETATM   17  C10 UNL     1      27.668  -1.800  52.771  1.00  0.00     0.029 A 
HETATM   18  C11 UNL     1      28.869  -2.453  53.090  1.00  0.00     0.002 A 
HETATM   19  C12 UNL     1      29.954  -1.738  53.588  1.00  0.00     0.000 A 
HETATM   20  C13 UNL     1      29.754  -0.388  53.744  1.00  0.00     0.002 A 
HETATM   21  C14 UNL     1      28.612   0.304  53.453  1.00  0.00     0.029 A 
ENDBRANCH  14  16
ENDBRANCH  13  14
ENDBRANCH   8  13
BRANCH   2  22
HETATM   22  S1  UNL     1      19.275   2.236  51.953  1.00  0.00    -0.172 SA
HETATM   23  H4  UNL     1      19.663   1.712  53.215  1.00  0.00     0.102 HD
ENDBRANCH   2  22
TORSDOF 4
ENDMDL
MODEL 8
REMARK VINA RESULT:      -7.0      2.683      7.202
REMARK  4 active torsions:
REMARK  status: ('A' for Active; 'I' for Inactive)
REMARK    1  A    between atoms: C2_2  and  S1_3 
REMARK    2  A    between atoms: N1_9  and  C8_10 
REMARK    3  A    between atoms: C8_10  and  N2_11 
REMARK    4  A    between atoms: N2_11  and  C9_12 
ROOT
HETATM    1  C1  UNL     1      27.373  -1.178  52.792  1.00  0.00     0.027 C 
HETATM    2  C2  UNL     1      26.753   0.250  52.819  1.00  0.00     0.006 C 
HETATM    3  C3  UNL     1      25.311   0.089  53.271  1.00  0.00     0.037 A 
HETATM    4  C4  UNL     1      25.098  -0.879  54.206  1.00  0.00    -0.021 A 
HETATM    5  C5  UNL     1      23.577  -0.601  54.275  1.00  0.00    -0.021 A 
HETATM    6  C6  UNL     1      23.679   0.437  53.345  1.00  0.00     0.047 A 
HETATM    7  C7  UNL     1      22.886   1.428  52.627  1.00  0.00     0.280 C 
HETATM    8  N1  UNL     1      23.254   1.339  51.199  1.00  0.00     0.106 N 
HETATM    9  C15 UNL     1      23.955   2.593  50.884  1.00  0.00     0.274 C 
HETATM   10  C16 UNL     1      25.240   2.867  51.495  1.00  0.00     0.030 C 
HETATM   11  C17 UNL     1      26.459   2.138  51.129  1.00  0.00     0.003 C 
HETATM   12  C18 UNL     1      26.696   0.725  51.382  1.00  0.00     0.020 C 
ENDROOT
BRANCH   8  13
HETATM   13  C8  UNL     1      21.971   1.548  50.463  1.00  0.00     0.395 C 
BRANCH  13  14
HETATM   14  N2  UNL     1      20.809   1.586  51.296  1.00  0.00    -0.365 N 
HETATM   15  H13 UNL     1      20.834   2.487  51.869  1.00  0.00     0.161 HD
BRANCH  14  16
HETATM   16  C9  UNL     1      19.692   0.743  51.525  1.00  0.00     0.029 A 
HETATM   17  C10 UNL     1      19.576  -0.016  52.667  1.00  0.00     0.029 A 
HETATM   18  C11 UNL     1      18.452  -0.830  52.880  1.00  0.00     0.002 A 
HETATM   19  C12 UNL     1      17.425  -0.881  51.941  1.00  0.00     0.000 A 
HETATM   20  C13 UNL     1      17.603  -0.102  50.824  1.00  0.00     0.002 A 
HETATM   21  C14 UNL     1      18.672   0.708  50.559  1.00  0.00     0.029 A 
ENDBRANCH  14  16
ENDBRANCH  13  14
ENDBRANCH   8  13
BRANCH   2  22
HETATM   22  S1  UNL     1      27.746   1.266  53.890  1.00  0.00    -0.172 SA
HETATM   23  H4  UNL     1      28.069   2.464  53.197  1.00  0.00     0.102 HD
ENDBRANCH   2  22
TORSDOF 4
ENDMDL
MODEL 9
REMARK VINA RESULT:      -6.9      6.673      8.737
REMARK  4 active torsions:
REMARK  status: ('A' for Active; 'I' for Inactive)
REMARK    1  A    between atoms: C2_2  and  S1_3 
REMARK    2  A    between atoms: N1_9  and  C8_10 
REMARK    3  A    between atoms: C8_10  and  N2_11 
REMARK    4  A    between atoms: N2_11  and  C9_12 
ROOT
HETATM    1  C1  UNL     1      24.963   3.522  51.049  1.00  0.00     0.027 C 
HETATM    2  C2  UNL     1      24.624   4.735  50.132  1.00  0.00     0.006 C 
HETATM    3  C3  UNL     1      25.925   5.152  49.466  1.00  0.00     0.037 A 
HETATM    4  C4  UNL     1      26.766   4.130  49.140  1.00  0.00    -0.021 A 
HETATM    5  C5  UNL     1      27.830   5.082  48.542  1.00  0.00    -0.021 A 
HETATM    6  C6  UNL     1      27.038   6.203  48.798  1.00  0.00     0.047 A 
HETATM    7  C7  UNL     1      27.012   7.655  48.669  1.00  0.00     0.280 C 
HETATM    8  N1  UNL     1      26.614   8.209  49.979  1.00  0.00     0.106 N 
HETATM    9  C15 UNL     1      25.281   8.797  49.779  1.00  0.00     0.274 C 
HETATM   10  C16 UNL     1      24.156   7.935  49.478  1.00  0.00     0.030 C 
HETATM   11  C17 UNL     1      23.566   7.031  50.470  1.00  0.00     0.003 C 
HETATM   12  C18 UNL     1      24.233   5.875  51.049  1.00  0.00     0.020 C 
ENDROOT
BRANCH   8  13
HETATM   13  C8  UNL     1      27.439   9.444  50.136  1.00  0.00     0.395 C 
BRANCH  13  14
HETATM   14  N2  UNL     1      28.852   9.221  50.106  1.00  0.00    -0.365 N 
HETATM   15  H13 UNL     1      29.117   8.623  50.949  1.00  0.00     0.161 HD
BRANCH  14  16
HETATM   16  C9  UNL     1      29.924   9.597  49.257  1.00  0.00     0.029 A 
HETATM   17  C10 UNL     1      30.214  10.916  48.993  1.00  0.00     0.029 A 
HETATM   18  C11 UNL     1      31.293  11.264  48.164  1.00  0.00     0.002 A 
HETATM   19  C12 UNL     1      32.097  10.280  47.595  1.00  0.00     0.000 A 
HETATM   20  C13 UNL     1      31.752   8.985  47.897  1.00  0.00     0.002 A 
HETATM   21  C14 UNL     1      30.717   8.583  48.694  1.00  0.00     0.029 A 
ENDBRANCH  14  16
ENDBRANCH  13  14
ENDBRANCH   8  13
BRANCH   2  22
HETATM   22  S1  UNL     1      23.348   4.234  48.998  1.00  0.00    -0.172 SA
HETATM   23  H4  UNL     1      22.094   4.644  49.526  1.00  0.00     0.102 HD
ENDBRANCH   2  22
TORSDOF 4
ENDMDL
