MODEL 1
REMARK VINA RESULT:      -8.1      0.000      0.000
REMARK  4 active torsions:
REMARK  status: ('A' for Active; 'I' for Inactive)
REMARK    1  A    between atoms: C2_2  and  C3_3 
REMARK    2  A    between atoms: C3_3  and  C4_4 
REMARK    3  A    between atoms: C5_5  and  N1_6 
REMARK       I    between atoms: N1_6  and  C6_7 
REMARK       I    between atoms: C6_7  and  N2_9 
REMARK    4  A    between atoms: C17_22  and  O2_23 
ROOT
HETATM    1  N1  UNL     1      18.677  -0.868  53.313  1.00  0.00    -0.319 N 
HETATM    2  C6  UNL     1      18.664   0.084  52.262  1.00  0.00     0.322 C 
HETATM    3  O1  UNL     1      17.871  -0.128  51.318  1.00  0.00    -0.247 OA
HETATM    4  N2  UNL     1      19.424   1.258  52.111  1.00  0.00    -0.326 N 
HETATM    5  C7  UNL     1      19.184   2.032  50.916  1.00  0.00     0.155 C 
HETATM    6  C8  UNL     1      19.926   1.462  49.800  1.00  0.00    -0.004 C 
HETATM    7  C9  UNL     1      20.884   1.318  48.900  1.00  0.00     0.039 C 
HETATM    8  C10 UNL     1      22.125   1.893  48.465  1.00  0.00     0.112 C 
HETATM    9  F1  UNL     1      22.799   1.467  47.379  1.00  0.00    -0.206 F 
HETATM   10  C11 UNL     1      22.886   2.855  48.894  1.00  0.00     0.020 C 
HETATM   11  C12 UNL     1      22.226   3.384  50.119  1.00  0.00     0.069 C 
HETATM   12  C13 UNL     1      22.484   2.436  51.261  1.00  0.00    -0.044 A 
HETATM   13  C14 UNL     1      23.844   2.065  51.141  1.00  0.00     0.009 A 
HETATM   14  C15 UNL     1      24.574   1.175  51.948  1.00  0.00     0.022 A 
HETATM   15  C16 UNL     1      23.882   0.589  52.984  1.00  0.00     0.044 A 
HETATM   16 BR1  UNL     1      24.722  -0.641  54.169  1.00  0.00    -0.048 Br
HETATM   17  C17 UNL     1      22.558   0.946  53.107  1.00  0.00     0.091 A 
HETATM   18  C18 UNL     1      21.811   1.810  52.343  1.00  0.00     0.001 A 
HETATM   19  C19 UNL     1      20.433   2.053  52.728  1.00  0.00     0.170 C 
HETATM   20  H6  UNL     1      19.349  -0.658  54.082  1.00  0.00     0.170 HD
ENDROOT
BRANCH   1  21
HETATM   21  C5  UNL     1      17.752  -1.925  53.093  1.00  0.00     0.093 C 
HETATM   22  C4  UNL     1      17.662  -3.084  53.724  1.00  0.00     0.025 C 
BRANCH  22  23
HETATM   23  C3  UNL     1      16.960  -4.347  53.843  1.00  0.00     0.052 C 
BRANCH  23  24
HETATM   24  C2  UNL     1      15.990  -4.643  52.992  1.00  0.00    -0.155 C 
HETATM   25  C1  UNL     1      15.113  -4.718  52.008  1.00  0.00     0.096 C 
ENDBRANCH  23  24
ENDBRANCH  22  23
ENDBRANCH   1  21
BRANCH  17  26
HETATM   26  O2  UNL     1      21.900   0.330  54.168  1.00  0.00    -0.359 OA
HETATM   27  H16 UNL     1      21.059  -0.202  54.077  1.00  0.00     0.217 HD
ENDBRANCH  17  26
TORSDOF 4
ENDMDL
MODEL 2
REMARK VINA RESULT:      -7.7      4.925      7.269
REMARK  4 active torsions:
REMARK  status: ('A' for Active; 'I' for Inactive)
REMARK    1  A    between atoms: C2_2  and  C3_3 
REMARK    2  A    between atoms: C3_3  and  C4_4 
REMARK    3  A    between atoms: C5_5  and  N1_6 
REMARK       I    between atoms: N1_6  and  C6_7 
REMARK       I    between atoms: C6_7  and  N2_9 
REMARK    4  A    between atoms: C17_22  and  O2_23 
ROOT
HETATM    1  N1  UNL     1      25.333   2.983  53.424  1.00  0.00    -0.319 N 
HETATM    2  C6  UNL     1      24.252   2.395  52.719  1.00  0.00     0.322 C 
HETATM    3  O1  UNL     1      24.333   1.169  52.481  1.00  0.00    -0.247 OA
HETATM    4  N2  UNL     1      23.072   2.990  52.235  1.00  0.00    -0.326 N 
HETATM    5  C7  UNL     1      22.147   2.121  51.548  1.00  0.00     0.155 C 
HETATM    6  C8  UNL     1      22.571   1.940  50.166  1.00  0.00    -0.004 C 
HETATM    7  C9  UNL     1      22.601   2.099  48.854  1.00  0.00     0.039 C 
HETATM    8  C10 UNL     1      21.983   2.834  47.787  1.00  0.00     0.112 C 
HETATM    9  F1  UNL     1      22.268   2.633  46.486  1.00  0.00    -0.206 F 
HETATM   10  C11 UNL     1      21.090   3.777  47.725  1.00  0.00     0.020 C 
HETATM   11  C12 UNL     1      20.722   4.085  49.134  1.00  0.00     0.069 C 
HETATM   12  C13 UNL     1      21.813   4.920  49.752  1.00  0.00    -0.044 A 
HETATM   13  C14 UNL     1      22.174   5.861  48.760  1.00  0.00     0.009 A 
HETATM   14  C15 UNL     1      23.167   6.854  48.827  1.00  0.00     0.022 A 
HETATM   15  C16 UNL     1      23.878   6.921  50.003  1.00  0.00     0.044 A 
HETATM   16 BR1  UNL     1      25.258   8.207  50.257  1.00  0.00    -0.048 Br
HETATM   17  C17 UNL     1      23.532   6.009  50.974  1.00  0.00     0.091 A 
HETATM   18  C18 UNL     1      22.571   5.027  50.948  1.00  0.00     0.001 A 
HETATM   19  C19 UNL     1      22.371   4.227  52.143  1.00  0.00     0.170 C 
HETATM   20  H6  UNL     1      25.230   4.004  53.605  1.00  0.00     0.170 HD
ENDROOT
BRANCH   1  21
HETATM   21  C5  UNL     1      26.347   2.037  53.740  1.00  0.00     0.093 C 
HETATM   22  C4  UNL     1      27.659   2.180  53.658  1.00  0.00     0.025 C 
BRANCH  22  23
HETATM   23  C3  UNL     1      28.958   1.565  53.850  1.00  0.00     0.052 C 
BRANCH  23  24
HETATM   24  C2  UNL     1      29.097   0.257  53.694  1.00  0.00    -0.155 C 
HETATM   25  C1  UNL     1      29.502  -0.987  53.521  1.00  0.00     0.096 C 
ENDBRANCH  23  24
ENDBRANCH  22  23
ENDBRANCH   1  21
BRANCH  17  26
HETATM   26  O2  UNL     1      24.278   6.114  52.145  1.00  0.00    -0.359 OA
HETATM   27  H16 UNL     1      24.990   5.470  52.420  1.00  0.00     0.217 HD
ENDBRANCH  17  26
TORSDOF 4
ENDMDL
MODEL 3
REMARK VINA RESULT:      -7.6      5.538      9.721
REMARK  4 active torsions:
REMARK  status: ('A' for Active; 'I' for Inactive)
REMARK    1  A    between atoms: C2_2  and  C3_3 
REMARK    2  A    between atoms: C3_3  and  C4_4 
REMARK    3  A    between atoms: C5_5  and  N1_6 
REMARK       I    between atoms: N1_6  and  C6_7 
REMARK       I    between atoms: C6_7  and  N2_9 
REMARK    4  A    between atoms: C17_22  and  O2_23 
ROOT
HETATM    1  N1  UNL     1      26.552   6.657  49.751  1.00  0.00    -0.319 N 
HETATM    2  C6  UNL     1      25.235   6.219  49.461  1.00  0.00     0.322 C 
HETATM    3  O1  UNL     1      24.360   7.105  49.337  1.00  0.00    -0.247 OA
HETATM    4  N2  UNL     1      24.746   4.912  49.286  1.00  0.00    -0.326 N 
HETATM    5  C7  UNL     1      23.338   4.782  48.996  1.00  0.00     0.155 C 
HETATM    6  C8  UNL     1      22.570   4.857  50.231  1.00  0.00    -0.004 C 
HETATM    7  C9  UNL     1      21.870   4.447  51.276  1.00  0.00     0.039 C 
HETATM    8  C10 UNL     1      21.375   3.260  51.912  1.00  0.00     0.112 C 
HETATM    9  F1  UNL     1      20.577   3.279  52.998  1.00  0.00    -0.206 F 
HETATM   10  C11 UNL     1      21.502   1.985  51.693  1.00  0.00     0.020 C 
HETATM   11  C12 UNL     1      22.393   1.860  50.508  1.00  0.00     0.069 C 
HETATM   12  C13 UNL     1      23.816   2.105  50.939  1.00  0.00    -0.044 A 
HETATM   13  C14 UNL     1      23.959   1.417  52.166  1.00  0.00     0.009 A 
HETATM   14  C15 UNL     1      25.093   1.351  52.996  1.00  0.00     0.022 A 
HETATM   15  C16 UNL     1      26.202   2.042  52.562  1.00  0.00     0.044 A 
HETATM   16 BR1  UNL     1      27.817   2.058  53.568  1.00  0.00    -0.048 Br
HETATM   17  C17 UNL     1      26.069   2.714  51.368  1.00  0.00     0.091 A 
HETATM   18  C18 UNL     1      24.983   2.801  50.531  1.00  0.00     0.001 A 
HETATM   19  C19 UNL     1      25.130   3.539  49.288  1.00  0.00     0.170 C 
HETATM   20  H6  UNL     1      27.254   5.892  49.846  1.00  0.00     0.170 HD
ENDROOT
BRANCH   1  21
HETATM   21  C5  UNL     1      26.638   8.073  49.852  1.00  0.00     0.093 C 
HETATM   22  C4  UNL     1      27.590   8.873  49.400  1.00  0.00     0.025 C 
BRANCH  22  23
HETATM   23  C3  UNL     1      28.067  10.236  49.274  1.00  0.00     0.052 C 
BRANCH  23  24
HETATM   24  C2  UNL     1      29.344  10.465  49.008  1.00  0.00    -0.155 C 
HETATM   25  C1  UNL     1      30.642  10.705  49.016  1.00  0.00     0.096 C 
ENDBRANCH  23  24
ENDBRANCH  22  23
ENDBRANCH   1  21
BRANCH  17  26
HETATM   26  O2  UNL     1      27.215   3.397  50.971  1.00  0.00    -0.359 OA
HETATM   27  H16 UNL     1      28.031   3.506  51.536  1.00  0.00     0.217 HD
ENDBRANCH  17  26
TORSDOF 4
ENDMDL
MODEL 4
REMARK VINA RESULT:      -7.5      4.342      7.350
REMARK  4 active torsions:
REMARK  status: ('A' for Active; 'I' for Inactive)
REMARK    1  A    between atoms: C2_2  and  C3_3 
REMARK    2  A    between atoms: C3_3  and  C4_4 
REMARK    3  A    between atoms: C5_5  and  N1_6 
REMARK       I    between atoms: N1_6  and  C6_7 
REMARK       I    between atoms: C6_7  and  N2_9 
REMARK    4  A    between atoms: C17_22  and  O2_23 
ROOT
HETATM    1  N1  UNL     1      22.827   3.604  49.679  1.00  0.00    -0.319 N 
HETATM    2  C6  UNL     1      24.123   3.315  50.176  1.00  0.00     0.322 C 
HETATM    3  O1  UNL     1      25.059   3.309  49.345  1.00  0.00    -0.247 OA
HETATM    4  N2  UNL     1      24.533   3.027  51.491  1.00  0.00    -0.326 N 
HETATM    5  C7  UNL     1      25.939   2.771  51.688  1.00  0.00     0.155 C 
HETATM    6  C8  UNL     1      26.245   1.391  51.338  1.00  0.00    -0.004 C 
HETATM    7  C9  UNL     1      26.510   0.106  51.502  1.00  0.00     0.039 C 
HETATM    8  C10 UNL     1      26.659  -0.900  52.515  1.00  0.00     0.112 C 
HETATM    9  F1  UNL     1      27.038  -2.165  52.253  1.00  0.00    -0.206 F 
HETATM   10  C11 UNL     1      26.510  -0.924  53.806  1.00  0.00     0.020 C 
HETATM   11  C12 UNL     1      26.068   0.443  54.193  1.00  0.00     0.069 C 
HETATM   12  C13 UNL     1      24.609   0.600  53.852  1.00  0.00    -0.044 A 
HETATM   13  C14 UNL     1      24.000  -0.615  54.244  1.00  0.00     0.009 A 
HETATM   14  C15 UNL     1      22.650  -0.989  54.115  1.00  0.00     0.022 A 
HETATM   15  C16 UNL     1      21.817  -0.058  53.537  1.00  0.00     0.044 A 
HETATM   16 BR1  UNL     1      19.962  -0.407  53.288  1.00  0.00    -0.048 Br
HETATM   17  C17 UNL     1      22.403   1.127  53.154  1.00  0.00     0.091 A 
HETATM   18  C18 UNL     1      23.712   1.529  53.263  1.00  0.00     0.001 A 
HETATM   19  C19 UNL     1      24.059   2.869  52.826  1.00  0.00     0.170 C 
HETATM   20  H6  UNL     1      22.075   3.602  50.400  1.00  0.00     0.170 HD
ENDROOT
BRANCH   1  21
HETATM   21  C5  UNL     1      22.829   3.842  48.277  1.00  0.00     0.093 C 
HETATM   22  C4  UNL     1      22.417   4.917  47.625  1.00  0.00     0.025 C 
BRANCH  22  23
HETATM   23  C3  UNL     1      22.240   5.557  46.336  1.00  0.00     0.052 C 
BRANCH  23  24
HETATM   24  C2  UNL     1      21.764   4.860  45.315  1.00  0.00    -0.155 C 
HETATM   25  C1  UNL     1      21.083   4.111  44.467  1.00  0.00     0.096 C 
ENDBRANCH  23  24
ENDBRANCH  22  23
ENDBRANCH   1  21
BRANCH  17  26
HETATM   26  O2  UNL     1      21.522   2.035  52.575  1.00  0.00    -0.359 OA
HETATM   27  H16 UNL     1      21.128   1.935  51.662  1.00  0.00     0.217 HD
ENDBRANCH  17  26
TORSDOF 4
ENDMDL
MODEL 5
REMARK VINA RESULT:      -7.1      5.268      6.939
REMARK  4 active torsions:
REMARK  status: ('A' for Active; 'I' for Inactive)
REMARK    1  A    between atoms: C2_2  and  C3_3 
REMARK    2  A    between atoms: C3_3  and  C4_4 
REMARK    3  A    between atoms: C5_5  and  N1_6 
REMARK       I    between atoms: N1_6  and  C6_7 
REMARK       I    between atoms: C6_7  and  N2_9 
REMARK    4  A    between atoms: C17_22  and  O2_23 
ROOT
HETATM    1  N1  UNL     1      24.891   3.196  52.765  1.00  0.00    -0.319 N 
HETATM    2  C6  UNL     1      23.730   2.905  52.005  1.00  0.00     0.322 C 
HETATM    3  O1  UNL     1      23.434   1.697  51.866  1.00  0.00    -0.247 OA
HETATM    4  N2  UNL     1      22.836   3.784  51.365  1.00  0.00    -0.326 N 
HETATM    5  C7  UNL     1      21.732   3.180  50.658  1.00  0.00     0.155 C 
HETATM    6  C8  UNL     1      22.171   2.738  49.341  1.00  0.00    -0.004 C 
HETATM    7  C9  UNL     1      22.340   2.747  48.030  1.00  0.00     0.039 C 
HETATM    8  C10 UNL     1      22.062   3.526  46.857  1.00  0.00     0.112 C 
HETATM    9  F1  UNL     1      22.357   3.116  45.608  1.00  0.00    -0.206 F 
HETATM   10  C11 UNL     1      21.521   4.688  46.639  1.00  0.00     0.020 C 
HETATM   11  C12 UNL     1      21.174   5.236  47.979  1.00  0.00     0.069 C 
HETATM   12  C13 UNL     1      22.429   5.749  48.636  1.00  0.00    -0.044 A 
HETATM   13  C14 UNL     1      23.136   6.426  47.616  1.00  0.00     0.009 A 
HETATM   14  C15 UNL     1      24.386   7.065  47.706  1.00  0.00     0.022 A 
HETATM   15  C16 UNL     1      25.000   7.025  48.938  1.00  0.00     0.044 A 
HETATM   16 BR1  UNL     1      26.695   7.839  49.228  1.00  0.00    -0.048 Br
HETATM   17  C17 UNL     1      24.316   6.368  49.935  1.00  0.00     0.091 A 
HETATM   18  C18 UNL     1      23.097   5.735  49.888  1.00  0.00     0.001 A 
HETATM   19  C19 UNL     1      22.572   5.161  51.115  1.00  0.00     0.170 C 
HETATM   20  H6  UNL     1      25.105   4.212  52.860  1.00  0.00     0.170 HD
ENDROOT
BRANCH   1  21
HETATM   21  C5  UNL     1      25.527   2.020  53.247  1.00  0.00     0.093 C 
HETATM   22  C4  UNL     1      26.718   1.540  52.929  1.00  0.00     0.025 C 
BRANCH  22  23
HETATM   23  C3  UNL     1      27.694   0.488  53.136  1.00  0.00     0.052 C 
BRANCH  23  24
HETATM   24  C2  UNL     1      27.414  -0.752  52.767  1.00  0.00    -0.155 C 
HETATM   25  C1  UNL     1      26.913  -1.955  52.556  1.00  0.00     0.096 C 
ENDBRANCH  23  24
ENDBRANCH  22  23
ENDBRANCH   1  21
BRANCH  17  26
HETATM   26  O2  UNL     1      24.975   6.355  51.161  1.00  0.00    -0.359 OA
HETATM   27  H16 UNL     1      25.421   5.552  51.553  1.00  0.00     0.217 HD
ENDBRANCH  17  26
TORSDOF 4
ENDMDL
MODEL 6
REMARK VINA RESULT:      -7.0     10.551     13.235
REMARK  4 active torsions:
REMARK  status: ('A' for Active; 'I' for Inactive)
REMARK    1  A    between atoms: C2_2  and  C3_3 
REMARK    2  A    between atoms: C3_3  and  C4_4 
REMARK    3  A    between atoms: C5_5  and  N1_6 
REMARK       I    between atoms: N1_6  and  C6_7 
REMARK       I    between atoms: C6_7  and  N2_9 
REMARK    4  A    between atoms: C17_22  and  O2_23 
ROOT
HETATM    1  N1  UNL     1      28.557   6.358  48.886  1.00  0.00    -0.319 N 
HETATM    2  C6  UNL     1      29.245   7.571  48.627  1.00  0.00     0.322 C 
HETATM    3  O1  UNL     1      28.601   8.472  48.045  1.00  0.00    -0.247 OA
HETATM    4  N2  UNL     1      30.571   7.928  48.931  1.00  0.00    -0.326 N 
HETATM    5  C7  UNL     1      30.990   9.252  48.536  1.00  0.00     0.155 C 
HETATM    6  C8  UNL     1      31.358   9.254  47.127  1.00  0.00    -0.004 C 
HETATM    7  C9  UNL     1      32.130   9.245  46.053  1.00  0.00     0.039 C 
HETATM    8  C10 UNL     1      33.506   9.193  45.648  1.00  0.00     0.112 C 
HETATM    9  F1  UNL     1      33.904   9.293  44.365  1.00  0.00    -0.206 F 
HETATM   10  C11 UNL     1      34.638   9.059  46.273  1.00  0.00     0.020 C 
HETATM   11  C12 UNL     1      34.296   8.921  47.714  1.00  0.00     0.069 C 
HETATM   12  C13 UNL     1      33.793   7.523  47.965  1.00  0.00    -0.044 A 
HETATM   13  C14 UNL     1      34.653   6.677  47.228  1.00  0.00     0.009 A 
HETATM   14  C15 UNL     1      34.596   5.277  47.104  1.00  0.00     0.022 A 
HETATM   15  C16 UNL     1      33.576   4.651  47.785  1.00  0.00     0.044 A 
HETATM   16 BR1  UNL     1      33.355   2.761  47.722  1.00  0.00    -0.048 Br
HETATM   17  C17 UNL     1      32.735   5.468  48.505  1.00  0.00     0.091 A 
HETATM   18  C18 UNL     1      32.758   6.834  48.651  1.00  0.00     0.001 A 
HETATM   19  C19 UNL     1      31.775   7.450  49.525  1.00  0.00     0.170 C 
HETATM   20  H6  UNL     1      29.124   5.632  49.373  1.00  0.00     0.170 HD
ENDROOT
BRANCH   1  21
HETATM   21  C5  UNL     1      27.214   6.391  48.419  1.00  0.00     0.093 C 
HETATM   22  C4  UNL     1      26.145   5.819  48.948  1.00  0.00     0.025 C 
BRANCH  22  23
HETATM   23  C3  UNL     1      24.717   5.593  48.845  1.00  0.00     0.052 C 
BRANCH  23  24
HETATM   24  C2  UNL     1      23.980   6.377  48.072  1.00  0.00    -0.155 C 
HETATM   25  C1  UNL     1      23.080   6.942  47.289  1.00  0.00     0.096 C 
ENDBRANCH  23  24
ENDBRANCH  22  23
ENDBRANCH   1  21
BRANCH  17  26
HETATM   26  O2  UNL     1      31.721   4.790  49.176  1.00  0.00    -0.359 OA
HETATM   27  H16 UNL     1      31.494   3.829  49.031  1.00  0.00     0.217 HD
ENDBRANCH  17  26
TORSDOF 4
ENDMDL
MODEL 7
REMARK VINA RESULT:      -6.8     10.601     13.037
REMARK  4 active torsions:
REMARK  status: ('A' for Active; 'I' for Inactive)
REMARK    1  A    between atoms: C2_2  and  C3_3 
REMARK    2  A    between atoms: C3_3  and  C4_4 
REMARK    3  A    between atoms: C5_5  and  N1_6 
REMARK       I    between atoms: N1_6  and  C6_7 
REMARK       I    between atoms: C6_7  and  N2_9 
REMARK    4  A    between atoms: C17_22  and  O2_23 
ROOT
HETATM    1  N1  UNL     1      28.882   6.023  48.935  1.00  0.00    -0.319 N 
HETATM    2  C6  UNL     1      28.789   7.284  48.294  1.00  0.00     0.322 C 
HETATM    3  O1  UNL     1      27.843   7.441  47.490  1.00  0.00    -0.247 OA
HETATM    4  N2  UNL     1      29.615   8.416  48.423  1.00  0.00    -0.326 N 
HETATM    5  C7  UNL     1      29.262   9.567  47.628  1.00  0.00     0.155 C 
HETATM    6  C8  UNL     1      29.768   9.407  46.272  1.00  0.00    -0.004 C 
HETATM    7  C9  UNL     1      30.558   9.564  45.223  1.00  0.00     0.039 C 
HETATM    8  C10 UNL     1      31.762  10.221  44.800  1.00  0.00     0.112 C 
HETATM    9  F1  UNL     1      32.219  10.187  43.533  1.00  0.00    -0.206 F 
HETATM   10  C11 UNL     1      32.662  10.949  45.392  1.00  0.00     0.020 C 
HETATM   11  C12 UNL     1      32.249  11.030  46.820  1.00  0.00     0.069 C 
HETATM   12  C13 UNL     1      32.598   9.733  47.503  1.00  0.00    -0.044 A 
HETATM   13  C14 UNL     1      33.884   9.391  47.025  1.00  0.00     0.009 A 
HETATM   14  C15 UNL     1      34.651   8.254  47.336  1.00  0.00     0.022 A 
HETATM   15  C16 UNL     1      34.079   7.360  48.214  1.00  0.00     0.044 A 
HETATM   16 BR1  UNL     1      34.982   5.769  48.737  1.00  0.00    -0.048 Br
HETATM   17  C17 UNL     1      32.827   7.687  48.683  1.00  0.00     0.091 A 
HETATM   18  C18 UNL     1      32.049   8.784  48.405  1.00  0.00     0.001 A 
HETATM   19  C19 UNL     1      30.773   8.914  49.087  1.00  0.00     0.170 C 
HETATM   20  H6  UNL     1      29.681   5.930  49.598  1.00  0.00     0.170 HD
ENDROOT
BRANCH   1  21
HETATM   21  C5  UNL     1      27.845   5.137  48.532  1.00  0.00     0.093 C 
HETATM   22  C4  UNL     1      27.033   4.423  49.293  1.00  0.00     0.025 C 
BRANCH  22  23
HETATM   23  C3  UNL     1      25.935   3.477  49.337  1.00  0.00     0.052 C 
BRANCH  23  24
HETATM   24  C2  UNL     1      25.620   2.886  50.480  1.00  0.00    -0.155 C 
HETATM   25  C1  UNL     1      25.473   2.484  51.729  1.00  0.00     0.096 C 
ENDBRANCH  23  24
ENDBRANCH  22  23
ENDBRANCH   1  21
BRANCH  17  26
HETATM   26  O2  UNL     1      32.291   6.754  49.566  1.00  0.00    -0.359 OA
HETATM   27  H16 UNL     1      31.374   6.812  49.960  1.00  0.00     0.217 HD
ENDBRANCH  17  26
TORSDOF 4
ENDMDL
MODEL 8
REMARK VINA RESULT:      -6.8      4.583      7.564
REMARK  4 active torsions:
REMARK  status: ('A' for Active; 'I' for Inactive)
REMARK    1  A    between atoms: C2_2  and  C3_3 
REMARK    2  A    between atoms: C3_3  and  C4_4 
REMARK    3  A    between atoms: C5_5  and  N1_6 
REMARK       I    between atoms: N1_6  and  C6_7 
REMARK       I    between atoms: C6_7  and  N2_9 
REMARK    4  A    between atoms: C17_22  and  O2_23 
ROOT
HETATM    1  N1  UNL     1      25.878   1.925  51.267  1.00  0.00    -0.319 N 
HETATM    2  C6  UNL     1      25.489   3.034  50.475  1.00  0.00     0.322 C 
HETATM    3  O1  UNL     1      26.291   3.994  50.414  1.00  0.00    -0.247 OA
HETATM    4  N2  UNL     1      24.313   3.231  49.728  1.00  0.00    -0.326 N 
HETATM    5  C7  UNL     1      24.202   4.482  49.016  1.00  0.00     0.155 C 
HETATM    6  C8  UNL     1      23.749   5.529  49.922  1.00  0.00    -0.004 C 
HETATM    7  C9  UNL     1      22.927   6.380  50.512  1.00  0.00     0.039 C 
HETATM    8  C10 UNL     1      21.555   6.801  50.530  1.00  0.00     0.112 C 
HETATM    9  F1  UNL     1      21.106   7.830  51.274  1.00  0.00    -0.206 F 
HETATM   10  C11 UNL     1      20.470   6.405  49.933  1.00  0.00     0.020 C 
HETATM   11  C12 UNL     1      20.866   5.244  49.091  1.00  0.00     0.069 C 
HETATM   12  C13 UNL     1      21.031   4.034  49.973  1.00  0.00    -0.044 A 
HETATM   13  C14 UNL     1      19.943   4.076  50.875  1.00  0.00     0.009 A 
HETATM   14  C15 UNL     1      19.650   3.185  51.923  1.00  0.00     0.022 A 
HETATM   15  C16 UNL     1      20.531   2.142  52.094  1.00  0.00     0.044 A 
HETATM   16 BR1  UNL     1      20.282   0.848  53.467  1.00  0.00    -0.048 Br
HETATM   17  C17 UNL     1      21.593   2.094  51.219  1.00  0.00     0.091 A 
HETATM   18  C18 UNL     1      21.912   2.942  50.186  1.00  0.00     0.001 A 
HETATM   19  C19 UNL     1      23.072   2.627  49.371  1.00  0.00     0.170 C 
HETATM   20  H6  UNL     1      25.186   1.145  51.293  1.00  0.00     0.170 HD
ENDROOT
BRANCH   1  21
HETATM   21  C5  UNL     1      27.154   2.113  51.867  1.00  0.00     0.093 C 
HETATM   22  C4  UNL     1      27.666   1.496  52.919  1.00  0.00     0.025 C 
BRANCH  22  23
HETATM   23  C3  UNL     1      28.804   1.361  53.808  1.00  0.00     0.052 C 
BRANCH  23  24
HETATM   24  C2  UNL     1      29.452   0.208  53.876  1.00  0.00    -0.155 C 
HETATM   25  C1  UNL     1      30.008  -0.975  53.687  1.00  0.00     0.096 C 
ENDBRANCH  23  24
ENDBRANCH  22  23
ENDBRANCH   1  21
BRANCH  17  26
HETATM   26  O2  UNL     1      22.456   1.023  51.431  1.00  0.00    -0.359 OA
HETATM   27  H16 UNL     1      23.449   1.103  51.492  1.00  0.00     0.217 HD
ENDBRANCH  17  26
TORSDOF 4
ENDMDL
MODEL 9
REMARK VINA RESULT:      -6.6      5.722      7.715
REMARK  4 active torsions:
REMARK  status: ('A' for Active; 'I' for Inactive)
REMARK    1  A    between atoms: C2_2  and  C3_3 
REMARK    2  A    between atoms: C3_3  and  C4_4 
REMARK    3  A    between atoms: C5_5  and  N1_6 
REMARK       I    between atoms: N1_6  and  C6_7 
REMARK       I    between atoms: C6_7  and  N2_9 
REMARK    4  A    between atoms: C17_22  and  O2_23 
ROOT
HETATM    1  N1  UNL     1      24.943   1.427  51.603  1.00  0.00    -0.319 N 
HETATM    2  C6  UNL     1      25.521   2.477  50.845  1.00  0.00     0.322 C 
HETATM    3  O1  UNL     1      26.665   2.854  51.183  1.00  0.00    -0.247 OA
HETATM    4  N2  UNL     1      24.997   3.178  49.744  1.00  0.00    -0.326 N 
HETATM    5  C7  UNL     1      25.833   4.207  49.176  1.00  0.00     0.155 C 
HETATM    6  C8  UNL     1      25.711   5.431  49.956  1.00  0.00    -0.004 C 
HETATM    7  C9  UNL     1      25.317   6.649  50.289  1.00  0.00     0.039 C 
HETATM    8  C10 UNL     1      24.482   7.729  49.846  1.00  0.00     0.112 C 
HETATM    9  F1  UNL     1      24.412   8.917  50.477  1.00  0.00    -0.206 F 
HETATM   10  C11 UNL     1      23.659   7.900  48.854  1.00  0.00     0.020 C 
HETATM   11  C12 UNL     1      23.655   6.618  48.100  1.00  0.00     0.069 C 
HETATM   12  C13 UNL     1      22.819   5.613  48.849  1.00  0.00    -0.044 A 
HETATM   13  C14 UNL     1      21.679   6.326  49.287  1.00  0.00     0.009 A 
HETATM   14  C15 UNL     1      20.601   5.850  50.055  1.00  0.00     0.022 A 
HETATM   15  C16 UNL     1      20.661   4.526  50.427  1.00  0.00     0.044 A 
HETATM   16 BR1  UNL     1      19.284   3.725  51.469  1.00  0.00    -0.048 Br
HETATM   17  C17 UNL     1      21.767   3.826  50.003  1.00  0.00     0.091 A 
HETATM   18  C18 UNL     1      22.837   4.253  49.254  1.00  0.00     0.001 A 
HETATM   19  C19 UNL     1      23.857   3.283  48.895  1.00  0.00     0.170 C 
HETATM   20  H6  UNL     1      23.991   1.139  51.292  1.00  0.00     0.170 HD
ENDROOT
BRANCH   1  21
HETATM   21  C5  UNL     1      25.801   0.981  52.646  1.00  0.00     0.093 C 
HETATM   22  C4  UNL     1      26.506  -0.136  52.709  1.00  0.00     0.025 C 
BRANCH  22  23
HETATM   23  C3  UNL     1      27.429  -0.943  53.483  1.00  0.00     0.052 C 
BRANCH  23  24
HETATM   24  C2  UNL     1      28.724  -0.666  53.461  1.00  0.00    -0.155 C 
HETATM   25  C1  UNL     1      30.043  -0.653  53.512  1.00  0.00     0.096 C 
ENDBRANCH  23  24
ENDBRANCH  22  23
ENDBRANCH   1  21
BRANCH  17  26
HETATM   26  O2  UNL     1      21.784   2.493  50.404  1.00  0.00    -0.359 OA
HETATM   27  H16 UNL     1      22.584   2.026  50.777  1.00  0.00     0.217 HD
ENDBRANCH  17  26
TORSDOF 4
ENDMDL
