MODEL 1
REMARK VINA RESULT:      -8.2      0.000      0.000
REMARK  2 active torsions:
REMARK  status: ('A' for Active; 'I' for Inactive)
REMARK       I    between atoms: N1_1  and  C1_2 
REMARK    1  A    between atoms: C1_2  and  C2_4 
REMARK    2  A    between atoms: C8_13  and  N3_14 
ROOT
HETATM    1  C2  UNL     1      27.684   0.816  53.826  1.00  0.00     0.009 C 
HETATM    2  C3  UNL     1      26.829   0.413  54.752  1.00  0.00     0.014 C 
HETATM    3  C4  UNL     1      25.411   0.094  54.628  1.00  0.00     0.027 C 
HETATM    4  C5  UNL     1      24.613   0.073  53.570  1.00  0.00     0.031 C 
HETATM    5  N2  UNL     1      23.281  -0.281  53.795  1.00  0.00    -0.288 N 
HETATM    6  C6  UNL     1      22.675  -1.380  53.847  1.00  0.00     0.172 A 
HETATM    7  S1  UNL     1      21.529  -0.001  54.123  1.00  0.00    -0.009 SA
HETATM    8  S2  UNL     1      20.986   0.935  52.269  1.00  0.00    -0.015 SA
HETATM    9  C7  UNL     1      22.233   2.208  51.894  1.00  0.00     0.144 C 
HETATM   10  C8  UNL     1      22.291   3.484  52.241  1.00  0.00     0.067 C 
HETATM   11  C9  UNL     1      23.678   3.809  52.660  1.00  0.00     0.031 C 
HETATM   12  C10 UNL     1      24.616   2.841  52.635  1.00  0.00     0.008 C 
HETATM   13  C11 UNL     1      24.615   1.723  51.669  1.00  0.00     0.162 C 
HETATM   14  O2  UNL     1      23.280   1.647  51.097  1.00  0.00    -0.331 OA
HETATM   15  C12 UNL     1      25.044   0.402  52.183  1.00  0.00     0.070 C 
HETATM   16  C13 UNL     1      26.480   0.068  51.903  1.00  0.00     0.018 C 
HETATM   17  C14 UNL     1      27.481   1.070  52.362  1.00  0.00     0.045 C 
ENDROOT
BRANCH   1  18
HETATM   18  C1  UNL     1      29.058   1.062  54.250  1.00  0.00     0.245 C 
HETATM   19  N1  UNL     1      30.118   0.333  53.596  1.00  0.00    -0.366 N 
HETATM   20  H1  UNL     1      30.891  -0.323  53.766  1.00  0.00     0.159 HD
HETATM   21  H2  UNL     1      30.255   0.422  52.553  1.00  0.00     0.159 HD
HETATM   22  O1  UNL     1      29.384   1.876  55.158  1.00  0.00    -0.268 OA
ENDBRANCH   1  18
BRANCH  10  23
HETATM   23  N3  UNL     1      21.045   4.093  52.122  1.00  0.00    -0.396 N 
HETATM   24  H6  UNL     1      20.414   4.406  52.892  1.00  0.00     0.156 HD
HETATM   25  H7  UNL     1      20.488   4.362  51.262  1.00  0.00     0.156 HD
ENDBRANCH  10  23
TORSDOF 2
ENDMDL
MODEL 2
REMARK VINA RESULT:      -7.9      3.044      4.118
REMARK  2 active torsions:
REMARK  status: ('A' for Active; 'I' for Inactive)
REMARK       I    between atoms: N1_1  and  C1_2 
REMARK    1  A    between atoms: C1_2  and  C2_4 
REMARK    2  A    between atoms: C8_13  and  N3_14 
ROOT
HETATM    1  C2  UNL     1      23.644  -0.377  53.997  1.00  0.00     0.009 C 
HETATM    2  C3  UNL     1      22.495  -0.252  53.353  1.00  0.00     0.014 C 
HETATM    3  C4  UNL     1      22.184   0.516  52.152  1.00  0.00     0.027 C 
HETATM    4  C5  UNL     1      22.957   1.246  51.362  1.00  0.00     0.031 C 
HETATM    5  N2  UNL     1      22.338   1.864  50.273  1.00  0.00    -0.288 N 
HETATM    6  C6  UNL     1      22.074   1.493  49.102  1.00  0.00     0.172 A 
HETATM    7  S1  UNL     1      21.514   3.196  49.379  1.00  0.00    -0.009 SA
HETATM    8  S2  UNL     1      23.151   4.579  49.253  1.00  0.00    -0.015 SA
HETATM    9  C7  UNL     1      23.918   4.695  50.901  1.00  0.00     0.144 C 
HETATM   10  C8  UNL     1      23.642   5.489  51.923  1.00  0.00     0.067 C 
HETATM   11  C9  UNL     1      23.662   4.692  53.176  1.00  0.00     0.031 C 
HETATM   12  C10 UNL     1      23.935   3.373  53.110  1.00  0.00     0.008 C 
HETATM   13  C11 UNL     1      24.822   2.769  52.096  1.00  0.00     0.162 C 
HETATM   14  O2  UNL     1      24.971   3.736  51.020  1.00  0.00    -0.331 OA
HETATM   15  C12 UNL     1      24.419   1.446  51.564  1.00  0.00     0.070 C 
HETATM   16  C13 UNL     1      25.101   0.283  52.222  1.00  0.00     0.018 C 
HETATM   17  C14 UNL     1      24.989   0.219  53.705  1.00  0.00     0.045 C 
ENDROOT
BRANCH   1  18
HETATM   18  C1  UNL     1      23.653  -1.222  55.185  1.00  0.00     0.245 C 
HETATM   19  N1  UNL     1      24.896  -1.387  55.899  1.00  0.00    -0.366 N 
HETATM   20  H1  UNL     1      25.578  -2.091  56.212  1.00  0.00     0.159 HD
HETATM   21  H2  UNL     1      25.392  -0.545  56.299  1.00  0.00     0.159 HD
HETATM   22  O1  UNL     1      22.639  -1.824  55.635  1.00  0.00    -0.268 OA
ENDBRANCH   1  18
BRANCH  10  23
HETATM   23  N3  UNL     1      23.406   6.793  51.496  1.00  0.00    -0.396 N 
HETATM   24  H6  UNL     1      23.265   7.641  52.089  1.00  0.00     0.156 HD
HETATM   25  H7  UNL     1      23.321   7.195  50.520  1.00  0.00     0.156 HD
ENDBRANCH  10  23
TORSDOF 2
ENDMDL
MODEL 3
REMARK VINA RESULT:      -7.4      2.823      3.846
REMARK  2 active torsions:
REMARK  status: ('A' for Active; 'I' for Inactive)
REMARK       I    between atoms: N1_1  and  C1_2 
REMARK    1  A    between atoms: C1_2  and  C2_4 
REMARK    2  A    between atoms: C8_13  and  N3_14 
ROOT
HETATM    1  C2  UNL     1      26.597   0.351  52.910  1.00  0.00     0.009 C 
HETATM    2  C3  UNL     1      26.895   0.847  51.721  1.00  0.00     0.014 C 
HETATM    3  C4  UNL     1      26.299   1.973  51.010  1.00  0.00     0.027 C 
HETATM    4  C5  UNL     1      25.347   2.822  51.368  1.00  0.00     0.031 C 
HETATM    5  N2  UNL     1      25.000   3.805  50.438  1.00  0.00    -0.288 N 
HETATM    6  C6  UNL     1      25.450   4.950  50.180  1.00  0.00     0.172 A 
HETATM    7  S1  UNL     1      24.057   4.545  49.090  1.00  0.00    -0.009 SA
HETATM    8  S2  UNL     1      22.182   4.815  50.100  1.00  0.00    -0.015 SA
HETATM    9  C7  UNL     1      21.786   3.267  50.975  1.00  0.00     0.144 C 
HETATM   10  C8  UNL     1      21.134   2.190  50.565  1.00  0.00     0.067 C 
HETATM   11  C9  UNL     1      21.862   0.979  51.024  1.00  0.00     0.031 C 
HETATM   12  C10 UNL     1      22.997   1.126  51.737  1.00  0.00     0.008 C 
HETATM   13  C11 UNL     1      23.253   2.261  52.647  1.00  0.00     0.162 C 
HETATM   14  O2  UNL     1      22.305   3.311  52.307  1.00  0.00    -0.331 OA
HETATM   15  C12 UNL     1      24.636   2.789  52.676  1.00  0.00     0.070 C 
HETATM   16  C13 UNL     1      25.474   2.261  53.803  1.00  0.00     0.018 C 
HETATM   17  C14 UNL     1      25.562   0.779  53.908  1.00  0.00     0.045 C 
ENDROOT
BRANCH   1  18
HETATM   18  C1  UNL     1      27.373  -0.795  53.367  1.00  0.00     0.245 C 
HETATM   19  N1  UNL     1      28.402  -0.576  54.356  1.00  0.00    -0.366 N 
HETATM   20  H1  UNL     1      29.411  -0.672  54.528  1.00  0.00     0.159 HD
HETATM   21  H2  UNL     1      28.152  -0.168  55.297  1.00  0.00     0.159 HD
HETATM   22  O1  UNL     1      27.205  -1.976  52.954  1.00  0.00    -0.268 OA
ENDBRANCH   1  18
BRANCH  10  23
HETATM   23  N3  UNL     1      20.004   2.537  49.830  1.00  0.00    -0.396 N 
HETATM   24  H6  UNL     1      19.512   1.963  49.111  1.00  0.00     0.156 HD
HETATM   25  H7  UNL     1      19.421   3.421  49.838  1.00  0.00     0.156 HD
ENDBRANCH  10  23
TORSDOF 2
ENDMDL
MODEL 4
REMARK VINA RESULT:      -7.2      3.537      6.980
REMARK  2 active torsions:
REMARK  status: ('A' for Active; 'I' for Inactive)
REMARK       I    between atoms: N1_1  and  C1_2 
REMARK    1  A    between atoms: C1_2  and  C2_4 
REMARK    2  A    between atoms: C8_13  and  N3_14 
ROOT
HETATM    1  C2  UNL     1      19.213   2.597  51.566  1.00  0.00     0.009 C 
HETATM    2  C3  UNL     1      20.192   3.396  51.958  1.00  0.00     0.014 C 
HETATM    3  C4  UNL     1      21.606   3.097  52.162  1.00  0.00     0.027 C 
HETATM    4  C5  UNL     1      22.296   1.982  51.971  1.00  0.00     0.031 C 
HETATM    5  N2  UNL     1      23.660   2.029  52.268  1.00  0.00    -0.288 N 
HETATM    6  C6  UNL     1      24.678   2.368  51.613  1.00  0.00     0.172 A 
HETATM    7  S1  UNL     1      25.137   1.834  53.285  1.00  0.00    -0.009 SA
HETATM    8  S2  UNL     1      25.161  -0.307  53.433  1.00  0.00    -0.015 SA
HETATM    9  C7  UNL     1      23.479  -0.862  53.853  1.00  0.00     0.144 C 
HETATM   10  C8  UNL     1      22.897  -1.028  55.031  1.00  0.00     0.067 C 
HETATM   11  C9  UNL     1      21.520  -0.475  54.974  1.00  0.00     0.031 C 
HETATM   12  C10 UNL     1      21.082   0.079  53.825  1.00  0.00     0.008 C 
HETATM   13  C11 UNL     1      21.522  -0.356  52.484  1.00  0.00     0.162 C 
HETATM   14  O2  UNL     1      22.740  -1.132  52.659  1.00  0.00    -0.331 OA
HETATM   15  C12 UNL     1      21.714   0.706  51.471  1.00  0.00     0.070 C 
HETATM   16  C13 UNL     1      20.547   0.898  50.548  1.00  0.00     0.018 C 
HETATM   17  C14 UNL     1      19.233   1.142  51.204  1.00  0.00     0.045 C 
ENDROOT
BRANCH   1  18
HETATM   18  C1  UNL     1      17.882   3.183  51.451  1.00  0.00     0.245 C 
HETATM   19  N1  UNL     1      17.077   2.835  50.305  1.00  0.00    -0.366 N 
HETATM   20  H1  UNL     1      16.591   3.232  49.490  1.00  0.00     0.159 HD
HETATM   21  H2  UNL     1      16.824   1.826  50.124  1.00  0.00     0.159 HD
HETATM   22  O1  UNL     1      17.383   3.979  52.293  1.00  0.00    -0.268 OA
ENDBRANCH   1  18
BRANCH  10  23
HETATM   23  N3  UNL     1      23.760  -1.642  55.934  1.00  0.00    -0.396 N 
HETATM   24  H6  UNL     1      23.606  -2.533  56.456  1.00  0.00     0.156 HD
HETATM   25  H7  UNL     1      24.720  -1.354  56.276  1.00  0.00     0.156 HD
ENDBRANCH  10  23
TORSDOF 2
ENDMDL
MODEL 5
REMARK VINA RESULT:      -7.0      2.513      5.546
REMARK  2 active torsions:
REMARK  status: ('A' for Active; 'I' for Inactive)
REMARK       I    between atoms: N1_1  and  C1_2 
REMARK    1  A    between atoms: C1_2  and  C2_4 
REMARK    2  A    between atoms: C8_13  and  N3_14 
ROOT
HETATM    1  C2  UNL     1      23.546   3.933  49.888  1.00  0.00     0.009 C 
HETATM    2  C3  UNL     1      22.754   2.873  49.880  1.00  0.00     0.014 C 
HETATM    3  C4  UNL     1      22.557   1.856  50.908  1.00  0.00     0.027 C 
HETATM    4  C5  UNL     1      23.068   1.739  52.125  1.00  0.00     0.031 C 
HETATM    5  N2  UNL     1      22.668   0.626  52.869  1.00  0.00    -0.288 N 
HETATM    6  C6  UNL     1      21.692   0.397  53.627  1.00  0.00     0.172 A 
HETATM    7  S1  UNL     1      22.776  -1.053  53.519  1.00  0.00    -0.009 SA
HETATM    8  S2  UNL     1      24.506  -0.819  54.767  1.00  0.00    -0.015 SA
HETATM    9  C7  UNL     1      25.783   0.053  53.804  1.00  0.00     0.144 C 
HETATM   10  C8  UNL     1      26.725  -0.417  53.001  1.00  0.00     0.067 C 
HETATM   11  C9  UNL     1      26.784   0.424  51.779  1.00  0.00     0.031 C 
HETATM   12  C10 UNL     1      25.939   1.468  51.658  1.00  0.00     0.008 C 
HETATM   13  C11 UNL     1      25.436   2.252  52.804  1.00  0.00     0.162 C 
HETATM   14  O2  UNL     1      25.668   1.464  54.004  1.00  0.00    -0.331 OA
HETATM   15  C12 UNL     1      24.026   2.702  52.734  1.00  0.00     0.070 C 
HETATM   16  C13 UNL     1      23.852   4.112  52.250  1.00  0.00     0.018 C 
HETATM   17  C14 UNL     1      24.487   4.434  50.943  1.00  0.00     0.045 C 
ENDROOT
BRANCH   1  18
HETATM   18  C1  UNL     1      23.533   4.782  48.703  1.00  0.00     0.245 C 
HETATM   19  N1  UNL     1      24.500   5.850  48.614  1.00  0.00    -0.366 N 
HETATM   20  H1  UNL     1      24.592   6.870  48.523  1.00  0.00     0.159 HD
HETATM   21  H2  UNL     1      25.533   5.632  48.643  1.00  0.00     0.159 HD
HETATM   22  O1  UNL     1      22.728   4.644  47.740  1.00  0.00    -0.268 OA
ENDBRANCH   1  18
BRANCH  10  23
HETATM   23  N3  UNL     1      27.332  -1.544  53.547  1.00  0.00    -0.396 N 
HETATM   24  H6  UNL     1      28.353  -1.709  53.691  1.00  0.00     0.156 HD
HETATM   25  H7  UNL     1      26.913  -2.442  53.920  1.00  0.00     0.156 HD
ENDBRANCH  10  23
TORSDOF 2
ENDMDL
MODEL 6
REMARK VINA RESULT:      -7.0      4.194      5.859
REMARK  2 active torsions:
REMARK  status: ('A' for Active; 'I' for Inactive)
REMARK       I    between atoms: N1_1  and  C1_2 
REMARK    1  A    between atoms: C1_2  and  C2_4 
REMARK    2  A    between atoms: C8_13  and  N3_14 
ROOT
HETATM    1  C2  UNL     1      21.405  -0.032  53.570  1.00  0.00     0.009 C 
HETATM    2  C3  UNL     1      22.646   0.424  53.506  1.00  0.00     0.014 C 
HETATM    3  C4  UNL     1      23.163   1.612  52.834  1.00  0.00     0.027 C 
HETATM    4  C5  UNL     1      22.544   2.567  52.157  1.00  0.00     0.031 C 
HETATM    5  N2  UNL     1      23.344   3.583  51.629  1.00  0.00    -0.288 N 
HETATM    6  C6  UNL     1      23.784   4.666  52.090  1.00  0.00     0.172 A 
HETATM    7  S1  UNL     1      24.332   4.427  50.377  1.00  0.00    -0.009 SA
HETATM    8  S2  UNL     1      22.768   4.916  48.990  1.00  0.00    -0.015 SA
HETATM    9  C7  UNL     1      21.750   3.426  48.742  1.00  0.00     0.144 C 
HETATM   10  C8  UNL     1      21.876   2.433  47.876  1.00  0.00     0.067 C 
HETATM   11  C9  UNL     1      21.637   1.146  48.577  1.00  0.00     0.031 C 
HETATM   12  C10 UNL     1      21.348   1.159  49.894  1.00  0.00     0.008 C 
HETATM   13  C11 UNL     1      20.621   2.257  50.563  1.00  0.00     0.162 C 
HETATM   14  O2  UNL     1      20.669   3.410  49.678  1.00  0.00    -0.331 OA
HETATM   15  C12 UNL     1      21.074   2.619  51.926  1.00  0.00     0.070 C 
HETATM   16  C13 UNL     1      20.268   1.998  53.029  1.00  0.00     0.018 C 
HETATM   17  C14 UNL     1      20.139   0.516  52.983  1.00  0.00     0.045 C 
ENDROOT
BRANCH   1  18
HETATM   18  C1  UNL     1      21.186  -1.261  54.323  1.00  0.00     0.245 C 
HETATM   19  N1  UNL     1      19.895  -1.899  54.233  1.00  0.00    -0.366 N 
HETATM   20  H1  UNL     1      19.088  -2.203  54.793  1.00  0.00     0.159 HD
HETATM   21  H2  UNL     1      19.527  -2.218  53.296  1.00  0.00     0.159 HD
HETATM   22  O1  UNL     1      22.057  -1.809  55.054  1.00  0.00    -0.268 OA
ENDBRANCH   1  18
BRANCH  10  23
HETATM   23  N3  UNL     1      22.208   2.909  46.611  1.00  0.00    -0.396 N 
HETATM   24  H6  UNL     1      22.876   2.488  45.928  1.00  0.00     0.156 HD
HETATM   25  H7  UNL     1      21.871   3.765  46.086  1.00  0.00     0.156 HD
ENDBRANCH  10  23
TORSDOF 2
ENDMDL
MODEL 7
REMARK VINA RESULT:      -6.9      4.151      6.075
REMARK  2 active torsions:
REMARK  status: ('A' for Active; 'I' for Inactive)
REMARK       I    between atoms: N1_1  and  C1_2 
REMARK    1  A    between atoms: C1_2  and  C2_4 
REMARK    2  A    between atoms: C8_13  and  N3_14 
ROOT
HETATM    1  C2  UNL     1      20.801   0.426  52.862  1.00  0.00     0.009 C 
HETATM    2  C3  UNL     1      20.442   1.657  53.191  1.00  0.00     0.014 C 
HETATM    3  C4  UNL     1      20.597   2.899  52.441  1.00  0.00     0.027 C 
HETATM    4  C5  UNL     1      21.086   3.130  51.231  1.00  0.00     0.031 C 
HETATM    5  N2  UNL     1      21.093   4.458  50.799  1.00  0.00    -0.288 N 
HETATM    6  C6  UNL     1      20.246   5.185  50.223  1.00  0.00     0.172 A 
HETATM    7  S1  UNL     1      21.780   6.104  50.528  1.00  0.00    -0.009 SA
HETATM    8  S2  UNL     1      23.280   5.606  49.076  1.00  0.00    -0.015 SA
HETATM    9  C7  UNL     1      24.183   4.143  49.677  1.00  0.00     0.144 C 
HETATM   10  C8  UNL     1      25.250   4.050  50.455  1.00  0.00     0.067 C 
HETATM   11  C9  UNL     1      25.034   2.967  51.447  1.00  0.00     0.031 C 
HETATM   12  C10 UNL     1      23.874   2.279  51.427  1.00  0.00     0.008 C 
HETATM   13  C11 UNL     1      23.095   2.020  50.199  1.00  0.00     0.162 C 
HETATM   14  O2  UNL     1      23.566   2.950  49.184  1.00  0.00    -0.331 OA
HETATM   15  C12 UNL     1      21.621   2.077  50.323  1.00  0.00     0.070 C 
HETATM   16  C13 UNL     1      20.964   0.739  50.500  1.00  0.00     0.018 C 
HETATM   17  C14 UNL     1      21.473  -0.091  51.625  1.00  0.00     0.045 C 
ENDROOT
BRANCH   1  18
HETATM   18  C1  UNL     1      20.514  -0.630  53.825  1.00  0.00     0.245 C 
HETATM   19  N1  UNL     1      19.191  -1.207  53.836  1.00  0.00    -0.366 N 
HETATM   20  H1  UNL     1      18.367  -1.362  54.430  1.00  0.00     0.159 HD
HETATM   21  H2  UNL     1      18.811  -1.675  52.969  1.00  0.00     0.159 HD
HETATM   22  O1  UNL     1      21.352  -1.078  54.656  1.00  0.00    -0.268 OA
ENDBRANCH   1  18
BRANCH  10  23
HETATM   23  N3  UNL     1      26.208   4.999  50.107  1.00  0.00    -0.396 N 
HETATM   24  H6  UNL     1      26.848   4.983  49.283  1.00  0.00     0.156 HD
HETATM   25  H7  UNL     1      26.485   5.904  50.580  1.00  0.00     0.156 HD
ENDBRANCH  10  23
TORSDOF 2
ENDMDL
MODEL 8
REMARK VINA RESULT:      -6.9      2.764      4.410
REMARK  2 active torsions:
REMARK  status: ('A' for Active; 'I' for Inactive)
REMARK       I    between atoms: N1_1  and  C1_2 
REMARK    1  A    between atoms: C1_2  and  C2_4 
REMARK    2  A    between atoms: C8_13  and  N3_14 
ROOT
HETATM    1  C2  UNL     1      26.003   2.133  52.073  1.00  0.00     0.009 C 
HETATM    2  C3  UNL     1      25.966   2.671  50.865  1.00  0.00     0.014 C 
HETATM    3  C4  UNL     1      24.884   3.396  50.207  1.00  0.00     0.027 C 
HETATM    4  C5  UNL     1      23.683   3.749  50.640  1.00  0.00     0.031 C 
HETATM    5  N2  UNL     1      22.872   4.448  49.744  1.00  0.00    -0.288 N 
HETATM    6  C6  UNL     1      22.750   5.665  49.454  1.00  0.00     0.172 A 
HETATM    7  S1  UNL     1      21.605   4.653  48.476  1.00  0.00    -0.009 SA
HETATM    8  S2  UNL     1      19.882   4.101  49.630  1.00  0.00    -0.015 SA
HETATM    9  C7  UNL     1      20.274   2.566  50.529  1.00  0.00     0.144 C 
HETATM   10  C8  UNL     1      20.139   1.300  50.168  1.00  0.00     0.067 C 
HETATM   11  C9  UNL     1      21.357   0.549  50.565  1.00  0.00     0.031 C 
HETATM   12  C10 UNL     1      22.358   1.204  51.187  1.00  0.00     0.008 C 
HETATM   13  C11 UNL     1      22.151   2.364  52.077  1.00  0.00     0.162 C 
HETATM   14  O2  UNL     1      20.815   2.877  51.816  1.00  0.00    -0.331 OA
HETATM   15  C12 UNL     1      23.156   3.448  52.000  1.00  0.00     0.070 C 
HETATM   16  C13 UNL     1      24.220   3.380  53.057  1.00  0.00     0.018 C 
HETATM   17  C14 UNL     1      24.961   2.092  53.150  1.00  0.00     0.045 C 
ENDROOT
BRANCH   1  18
HETATM   18  C1  UNL     1      27.237   1.461  52.464  1.00  0.00     0.245 C 
HETATM   19  N1  UNL     1      27.227   0.023  52.580  1.00  0.00    -0.366 N 
HETATM   20  H1  UNL     1      27.386  -0.750  53.239  1.00  0.00     0.159 HD
HETATM   21  H2  UNL     1      26.980  -0.573  51.744  1.00  0.00     0.159 HD
HETATM   22  O1  UNL     1      28.322   2.058  52.710  1.00  0.00    -0.268 OA
ENDBRANCH   1  18
BRANCH  10  23
HETATM   23  N3  UNL     1      18.922   1.089  49.525  1.00  0.00    -0.396 N 
HETATM   24  H6  UNL     1      18.554   0.192  49.138  1.00  0.00     0.156 HD
HETATM   25  H7  UNL     1      18.137   1.762  49.296  1.00  0.00     0.156 HD
ENDBRANCH  10  23
TORSDOF 2
ENDMDL
MODEL 9
REMARK VINA RESULT:      -6.8      2.829      3.525
REMARK  2 active torsions:
REMARK  status: ('A' for Active; 'I' for Inactive)
REMARK       I    between atoms: N1_1  and  C1_2 
REMARK    1  A    between atoms: C1_2  and  C2_4 
REMARK    2  A    between atoms: C8_13  and  N3_14 
ROOT
HETATM    1  C2  UNL     1      26.732   1.823  53.221  1.00  0.00     0.009 C 
HETATM    2  C3  UNL     1      25.850   2.588  53.843  1.00  0.00     0.014 C 
HETATM    3  C4  UNL     1      24.592   3.139  53.352  1.00  0.00     0.027 C 
HETATM    4  C5  UNL     1      23.973   2.994  52.189  1.00  0.00     0.031 C 
HETATM    5  N2  UNL     1      22.760   3.670  52.034  1.00  0.00    -0.288 N 
HETATM    6  C6  UNL     1      21.569   3.387  52.316  1.00  0.00     0.172 A 
HETATM    7  S1  UNL     1      21.675   5.025  51.544  1.00  0.00    -0.009 SA
HETATM    8  S2  UNL     1      21.877   4.863  49.414  1.00  0.00    -0.015 SA
HETATM    9  C7  UNL     1      23.650   4.703  49.026  1.00  0.00     0.144 C 
HETATM   10  C8  UNL     1      24.568   5.630  48.800  1.00  0.00     0.067 C 
HETATM   11  C9  UNL     1      25.813   5.265  49.522  1.00  0.00     0.031 C 
HETATM   12  C10 UNL     1      25.841   4.131  50.253  1.00  0.00     0.008 C 
HETATM   13  C11 UNL     1      25.060   2.923  49.921  1.00  0.00     0.162 C 
HETATM   14  O2  UNL     1      24.019   3.323  48.986  1.00  0.00    -0.331 OA
HETATM   15  C12 UNL     1      24.485   2.170  51.059  1.00  0.00     0.070 C 
HETATM   16  C13 UNL     1      25.304   0.991  51.496  1.00  0.00     0.018 C 
HETATM   17  C14 UNL     1      26.728   1.275  51.825  1.00  0.00     0.045 C 
ENDROOT
BRANCH   1  18
HETATM   18  C1  UNL     1      27.913   1.420  53.975  1.00  0.00     0.245 C 
HETATM   19  N1  UNL     1      29.028   2.334  54.041  1.00  0.00    -0.366 N 
HETATM   20  H1  UNL     1      30.027   2.431  53.817  1.00  0.00     0.159 HD
HETATM   21  H2  UNL     1      28.898   3.299  54.451  1.00  0.00     0.159 HD
HETATM   22  O1  UNL     1      28.028   0.318  54.579  1.00  0.00    -0.268 OA
ENDBRANCH   1  18
BRANCH  10  23
HETATM   23  N3  UNL     1      24.068   6.643  47.987  1.00  0.00    -0.396 N 
HETATM   24  H6  UNL     1      24.581   7.181  47.254  1.00  0.00     0.156 HD
HETATM   25  H7  UNL     1      23.101   7.072  47.934  1.00  0.00     0.156 HD
ENDBRANCH  10  23
TORSDOF 2
ENDMDL
