MODEL 1
REMARK VINA RESULT:      -9.4      0.000      0.000
REMARK  3 active torsions:
REMARK  status: ('A' for Active; 'I' for Inactive)
REMARK    1  A    between atoms: N1_2  and  C2_3 
REMARK    2  A    between atoms: N1_2  and  C11_14 
REMARK    3  A    between atoms: C2_3  and  C3_4 
ROOT
HETATM    1  C11 UNL     1      23.357   3.500  51.427  1.00  0.00     0.030 C 
HETATM    2  C12 UNL     1      24.318   2.522  51.299  1.00  0.00     0.030 C 
HETATM    3  C13 UNL     1      24.768   1.546  52.127  1.00  0.00     0.015 C 
HETATM    4  C14 UNL     1      23.824   0.633  52.556  1.00  0.00    -0.013 C 
HETATM    5  C15 UNL     1      22.535   0.596  52.088  1.00  0.00     0.028 C 
HETATM    6  N2  UNL     1      21.443   0.935  52.846  1.00  0.00    -0.349 N 
HETATM    7  C16 UNL     1      21.178   1.786  51.840  1.00  0.00     0.018 C 
HETATM    8  C17 UNL     1      20.901   3.131  51.734  1.00  0.00     0.028 C 
HETATM    9  C18 UNL     1      22.181   3.461  52.145  1.00  0.00     0.031 C 
HETATM   10  C19 UNL     1      21.396   0.424  51.228  1.00  0.00     0.115 C 
HETATM   11  C20 UNL     1      20.867   0.560  54.101  1.00  0.00     0.156 C 
HETATM   12  C21 UNL     1      21.419  -0.654  54.704  1.00  0.00    -0.007 C 
HETATM   13  C22 UNL     1      22.592  -1.199  55.030  1.00  0.00    -0.002 C 
HETATM   14  C23 UNL     1      23.973  -0.928  54.615  1.00  0.00     0.001 C 
HETATM   15  C24 UNL     1      24.472  -0.239  53.569  1.00  0.00     0.013 C 
ENDROOT
BRANCH   1  16
HETATM   16  N1  UNL     1      23.638   4.718  50.703  1.00  0.00    -0.381 N 
HETATM   17  C1  UNL     1      23.771   5.888  51.535  1.00  0.00     0.150 C 
BRANCH  16  18
HETATM   18  C2  UNL     1      23.771   4.734  49.259  1.00  0.00     0.161 C 
BRANCH  18  19
HETATM   19  C3  UNL     1      24.957   5.508  48.845  1.00  0.00    -0.037 A 
HETATM   20  C4  UNL     1      24.957   6.790  48.338  1.00  0.00     0.012 A 
HETATM   21  C5  UNL     1      26.108   7.455  47.967  1.00  0.00     0.040 A 
HETATM   22  C6  UNL     1      27.311   6.777  48.122  1.00  0.00     0.102 A 
HETATM   23  C7  UNL     1      27.355   5.488  48.628  1.00  0.00     0.102 A 
HETATM   24  O2  UNL     1      28.458   7.475  47.740  1.00  0.00    -0.346 OA
HETATM   25  C8  UNL     1      26.182   4.854  48.989  1.00  0.00     0.048 A 
HETATM   26  O1  UNL     1      28.631   4.958  48.718  1.00  0.00    -0.346 OA
HETATM   27  C9  UNL     1      29.758   5.511  48.091  1.00  0.00     0.202 C 
HETATM   28  C10 UNL     1      29.745   7.010  48.176  1.00  0.00     0.202 C 
ENDBRANCH  18  19
ENDBRANCH  16  18
ENDBRANCH   1  16
TORSDOF 3
ENDMDL
MODEL 2
REMARK VINA RESULT:      -9.3      2.944      7.038
REMARK  3 active torsions:
REMARK  status: ('A' for Active; 'I' for Inactive)
REMARK    1  A    between atoms: N1_2  and  C2_3 
REMARK    2  A    between atoms: N1_2  and  C11_14 
REMARK    3  A    between atoms: C2_3  and  C3_4 
ROOT
HETATM    1  C11 UNL     1      22.408   1.684  51.759  1.00  0.00     0.030 C 
HETATM    2  C12 UNL     1      22.353   1.335  50.428  1.00  0.00     0.030 C 
HETATM    3  C13 UNL     1      22.125   2.039  49.290  1.00  0.00     0.015 C 
HETATM    4  C14 UNL     1      23.001   3.077  49.034  1.00  0.00    -0.013 C 
HETATM    5  C15 UNL     1      24.125   3.325  49.782  1.00  0.00     0.028 C 
HETATM    6  N2  UNL     1      24.266   4.417  50.601  1.00  0.00    -0.349 N 
HETATM    7  C16 UNL     1      24.531   3.501  51.549  1.00  0.00     0.018 C 
HETATM    8  C17 UNL     1      24.065   3.232  52.817  1.00  0.00     0.028 C 
HETATM    9  C18 UNL     1      22.824   2.872  52.319  1.00  0.00     0.031 C 
HETATM   10  C19 UNL     1      25.430   3.201  50.373  1.00  0.00     0.115 C 
HETATM   11  C20 UNL     1      24.174   5.840  50.493  1.00  0.00     0.156 C 
HETATM   12  C21 UNL     1      24.123   6.362  49.126  1.00  0.00    -0.007 C 
HETATM   13  C22 UNL     1      23.458   6.188  47.983  1.00  0.00    -0.002 C 
HETATM   14  C23 UNL     1      22.623   5.099  47.465  1.00  0.00     0.001 C 
HETATM   15  C24 UNL     1      22.489   3.814  47.852  1.00  0.00     0.013 C 
ENDROOT
BRANCH   1  16
HETATM   16  N1  UNL     1      21.969   0.652  52.669  1.00  0.00    -0.381 N 
HETATM   17  C1  UNL     1      20.836   1.018  53.481  1.00  0.00     0.150 C 
BRANCH  16  18
HETATM   18  C2  UNL     1      22.631  -0.637  52.739  1.00  0.00     0.161 C 
BRANCH  18  19
HETATM   19  C3  UNL     1      23.911  -0.535  53.466  1.00  0.00    -0.037 A 
HETATM   20  C4  UNL     1      24.115  -0.811  54.801  1.00  0.00     0.012 A 
HETATM   21  C5  UNL     1      25.344  -0.691  55.418  1.00  0.00     0.040 A 
HETATM   22  C6  UNL     1      26.410  -0.270  54.633  1.00  0.00     0.102 A 
HETATM   23  C7  UNL     1      26.248   0.017  53.287  1.00  0.00     0.102 A 
HETATM   24  O2  UNL     1      27.639  -0.158  55.284  1.00  0.00    -0.346 OA
HETATM   25  C8  UNL     1      25.003  -0.115  52.704  1.00  0.00     0.048 A 
HETATM   26  O1  UNL     1      27.410   0.423  52.651  1.00  0.00    -0.346 OA
HETATM   27  C9  UNL     1      28.579   0.812  53.322  1.00  0.00     0.202 C 
HETATM   28  C10 UNL     1      28.844  -0.073  54.506  1.00  0.00     0.202 C 
ENDBRANCH  18  19
ENDBRANCH  16  18
ENDBRANCH   1  16
TORSDOF 3
ENDMDL
MODEL 3
REMARK VINA RESULT:      -9.3      4.855      8.382
REMARK  3 active torsions:
REMARK  status: ('A' for Active; 'I' for Inactive)
REMARK    1  A    between atoms: N1_2  and  C2_3 
REMARK    2  A    between atoms: N1_2  and  C11_14 
REMARK    3  A    between atoms: C2_3  and  C3_4 
ROOT
HETATM    1  C11 UNL     1      23.585   1.489  52.155  1.00  0.00     0.030 C 
HETATM    2  C12 UNL     1      24.576   1.995  51.343  1.00  0.00     0.030 C 
HETATM    3  C13 UNL     1      25.810   2.503  51.588  1.00  0.00     0.015 C 
HETATM    4  C14 UNL     1      26.697   1.660  52.230  1.00  0.00    -0.013 C 
HETATM    5  C15 UNL     1      26.433   0.339  52.495  1.00  0.00     0.028 C 
HETATM    6  N2  UNL     1      26.228  -0.155  53.758  1.00  0.00    -0.349 N 
HETATM    7  C16 UNL     1      25.076  -0.619  53.243  1.00  0.00     0.018 C 
HETATM    8  C17 UNL     1      23.745  -0.555  53.589  1.00  0.00     0.028 C 
HETATM    9  C18 UNL     1      23.714   0.808  53.346  1.00  0.00     0.031 C 
HETATM   10  C19 UNL     1      26.190  -1.068  52.327  1.00  0.00     0.115 C 
HETATM   11  C20 UNL     1      26.912  -0.168  55.014  1.00  0.00     0.156 C 
HETATM   12  C21 UNL     1      28.311   0.263  54.969  1.00  0.00    -0.007 C 
HETATM   13  C22 UNL     1      29.063   1.268  54.519  1.00  0.00    -0.002 C 
HETATM   14  C23 UNL     1      28.836   2.323  53.526  1.00  0.00     0.001 C 
HETATM   15  C24 UNL     1      27.913   2.448  52.550  1.00  0.00     0.013 C 
ENDROOT
BRANCH   1  16
HETATM   16  N1  UNL     1      22.242   1.713  51.674  1.00  0.00    -0.381 N 
HETATM   17  C1  UNL     1      21.654   2.955  52.109  1.00  0.00     0.150 C 
BRANCH  16  18
HETATM   18  C2  UNL     1      21.565   0.752  50.825  1.00  0.00     0.161 C 
BRANCH  18  19
HETATM   19  C3  UNL     1      20.321   0.273  51.456  1.00  0.00    -0.037 A 
HETATM   20  C4  UNL     1      20.208  -0.298  52.706  1.00  0.00     0.012 A 
HETATM   21  C5  UNL     1      19.007  -0.728  53.234  1.00  0.00     0.040 A 
HETATM   22  C6  UNL     1      17.873  -0.566  52.448  1.00  0.00     0.102 A 
HETATM   23  C7  UNL     1      17.943   0.003  51.186  1.00  0.00     0.102 A 
HETATM   24  O2  UNL     1      16.675  -1.009  53.008  1.00  0.00    -0.346 OA
HETATM   25  C8  UNL     1      19.162   0.422  50.691  1.00  0.00     0.048 A 
HETATM   26  O1  UNL     1      16.723   0.091  50.537  1.00  0.00    -0.346 OA
HETATM   27  C9  UNL     1      15.565  -0.589  50.944  1.00  0.00     0.202 C 
HETATM   28  C10 UNL     1      15.428  -0.579  52.439  1.00  0.00     0.202 C 
ENDBRANCH  18  19
ENDBRANCH  16  18
ENDBRANCH   1  16
TORSDOF 3
ENDMDL
MODEL 4
REMARK VINA RESULT:      -8.9      2.817      7.517
REMARK  3 active torsions:
REMARK  status: ('A' for Active; 'I' for Inactive)
REMARK    1  A    between atoms: N1_2  and  C2_3 
REMARK    2  A    between atoms: N1_2  and  C11_14 
REMARK    3  A    between atoms: C2_3  and  C3_4 
ROOT
HETATM    1  C11 UNL     1      23.832   3.976  50.528  1.00  0.00     0.030 C 
HETATM    2  C12 UNL     1      25.206   4.069  50.503  1.00  0.00     0.030 C 
HETATM    3  C13 UNL     1      26.085   4.638  49.641  1.00  0.00     0.015 C 
HETATM    4  C14 UNL     1      25.939   5.998  49.437  1.00  0.00    -0.013 C 
HETATM    5  C15 UNL     1      25.066   6.783  50.146  1.00  0.00     0.028 C 
HETATM    6  N2  UNL     1      23.942   7.351  49.601  1.00  0.00    -0.349 N 
HETATM    7  C16 UNL     1      23.304   6.727  50.607  1.00  0.00     0.018 C 
HETATM    8  C17 UNL     1      22.222   5.883  50.715  1.00  0.00     0.028 C 
HETATM    9  C18 UNL     1      22.902   4.875  50.052  1.00  0.00     0.031 C 
HETATM   10  C19 UNL     1      24.441   7.513  51.216  1.00  0.00     0.115 C 
HETATM   11  C20 UNL     1      23.613   8.198  48.496  1.00  0.00     0.156 C 
HETATM   12  C21 UNL     1      24.752   8.845  47.842  1.00  0.00    -0.007 C 
HETATM   13  C22 UNL     1      25.941   8.547  47.317  1.00  0.00    -0.002 C 
HETATM   14  C23 UNL     1      26.833   7.390  47.447  1.00  0.00     0.001 C 
HETATM   15  C24 UNL     1      26.873   6.389  48.351  1.00  0.00     0.013 C 
ENDROOT
BRANCH   1  16
HETATM   16  N1  UNL     1      23.322   2.771  51.138  1.00  0.00    -0.381 N 
HETATM   17  C1  UNL     1      22.791   1.810  50.203  1.00  0.00     0.150 C 
BRANCH  16  18
HETATM   18  C2  UNL     1      23.353   2.570  52.574  1.00  0.00     0.161 C 
BRANCH  18  19
HETATM   19  C3  UNL     1      24.408   1.611  52.952  1.00  0.00    -0.037 A 
HETATM   20  C4  UNL     1      24.297   0.236  52.952  1.00  0.00     0.012 A 
HETATM   21  C5  UNL     1      25.328  -0.604  53.322  1.00  0.00     0.040 A 
HETATM   22  C6  UNL     1      26.524  -0.010  53.707  1.00  0.00     0.102 A 
HETATM   23  C7  UNL     1      26.677   1.367  53.720  1.00  0.00     0.102 A 
HETATM   24  O2  UNL     1      27.548  -0.884  54.074  1.00  0.00    -0.346 OA
HETATM   25  C8  UNL     1      25.623   2.176  53.343  1.00  0.00     0.048 A 
HETATM   26  O1  UNL     1      27.930   1.794  54.128  1.00  0.00    -0.346 OA
HETATM   27  C9  UNL     1      28.872   0.971  54.763  1.00  0.00     0.202 C 
HETATM   28  C10 UNL     1      28.898  -0.399  54.149  1.00  0.00     0.202 C 
ENDBRANCH  18  19
ENDBRANCH  16  18
ENDBRANCH   1  16
TORSDOF 3
ENDMDL
MODEL 5
REMARK VINA RESULT:      -8.8      4.017      6.125
REMARK  3 active torsions:
REMARK  status: ('A' for Active; 'I' for Inactive)
REMARK    1  A    between atoms: N1_2  and  C2_3 
REMARK    2  A    between atoms: N1_2  and  C11_14 
REMARK    3  A    between atoms: C2_3  and  C3_4 
ROOT
HETATM    1  C11 UNL     1      21.428   2.211  51.521  1.00  0.00     0.030 C 
HETATM    2  C12 UNL     1      21.178   0.881  51.267  1.00  0.00     0.030 C 
HETATM    3  C13 UNL     1      20.194   0.029  51.650  1.00  0.00     0.015 C 
HETATM    4  C14 UNL     1      18.908   0.390  51.295  1.00  0.00    -0.013 C 
HETATM    5  C15 UNL     1      18.615   1.459  50.486  1.00  0.00     0.028 C 
HETATM    6  N2  UNL     1      17.998   2.601  50.931  1.00  0.00    -0.349 N 
HETATM    7  C16 UNL     1      19.066   3.222  50.400  1.00  0.00     0.018 C 
HETATM    8  C17 UNL     1      19.990   4.143  50.841  1.00  0.00     0.028 C 
HETATM    9  C18 UNL     1      20.524   3.229  51.734  1.00  0.00     0.031 C 
HETATM   10  C19 UNL     1      18.501   2.313  49.335  1.00  0.00     0.115 C 
HETATM   11  C20 UNL     1      16.798   2.955  51.624  1.00  0.00     0.156 C 
HETATM   12  C21 UNL     1      15.806   1.885  51.743  1.00  0.00    -0.007 C 
HETATM   13  C22 UNL     1      15.707   0.613  52.131  1.00  0.00    -0.002 C 
HETATM   14  C23 UNL     1      16.695  -0.451  52.341  1.00  0.00     0.001 C 
HETATM   15  C24 UNL     1      17.978  -0.570  51.941  1.00  0.00     0.013 C 
ENDROOT
BRANCH   1  16
HETATM   16  N1  UNL     1      22.828   2.562  51.563  1.00  0.00    -0.381 N 
HETATM   17  C1  UNL     1      23.466   2.620  50.272  1.00  0.00     0.150 C 
BRANCH  16  18
HETATM   18  C2  UNL     1      23.510   2.829  52.815  1.00  0.00     0.161 C 
BRANCH  18  19
HETATM   19  C3  UNL     1      24.520   1.792  53.099  1.00  0.00    -0.037 A 
HETATM   20  C4  UNL     1      24.332   0.428  53.023  1.00  0.00     0.012 A 
HETATM   21  C5  UNL     1      25.324  -0.488  53.306  1.00  0.00     0.040 A 
HETATM   22  C6  UNL     1      26.564   0.014  53.683  1.00  0.00     0.102 A 
HETATM   23  C7  UNL     1      26.795   1.377  53.771  1.00  0.00     0.102 A 
HETATM   24  O2  UNL     1      27.547  -0.935  53.963  1.00  0.00    -0.346 OA
HETATM   25  C8  UNL     1      25.777   2.265  53.480  1.00  0.00     0.048 A 
HETATM   26  O1  UNL     1      28.083   1.709  54.159  1.00  0.00    -0.346 OA
HETATM   27  C9  UNL     1      28.996   0.799  54.712  1.00  0.00     0.202 C 
HETATM   28  C10 UNL     1      28.924  -0.530  54.018  1.00  0.00     0.202 C 
ENDBRANCH  18  19
ENDBRANCH  16  18
ENDBRANCH   1  16
TORSDOF 3
ENDMDL
MODEL 6
REMARK VINA RESULT:      -8.8      3.203      8.525
REMARK  3 active torsions:
REMARK  status: ('A' for Active; 'I' for Inactive)
REMARK    1  A    between atoms: N1_2  and  C2_3 
REMARK    2  A    between atoms: N1_2  and  C11_14 
REMARK    3  A    between atoms: C2_3  and  C3_4 
ROOT
HETATM    1  C11 UNL     1      24.245   4.446  49.220  1.00  0.00     0.030 C 
HETATM    2  C12 UNL     1      25.496   4.141  49.708  1.00  0.00     0.030 C 
HETATM    3  C13 UNL     1      26.752   4.327  49.231  1.00  0.00     0.015 C 
HETATM    4  C14 UNL     1      27.116   5.635  48.975  1.00  0.00    -0.013 C 
HETATM    5  C15 UNL     1      26.338   6.718  49.301  1.00  0.00     0.028 C 
HETATM    6  N2  UNL     1      25.713   7.511  48.373  1.00  0.00    -0.349 N 
HETATM    7  C16 UNL     1      24.602   7.222  49.074  1.00  0.00     0.018 C 
HETATM    8  C17 UNL     1      23.347   6.740  48.778  1.00  0.00     0.028 C 
HETATM    9  C18 UNL     1      23.868   5.507  48.425  1.00  0.00     0.031 C 
HETATM   10  C19 UNL     1      25.636   7.720  50.056  1.00  0.00     0.115 C 
HETATM   11  C20 UNL     1      26.072   8.274  47.218  1.00  0.00     0.156 C 
HETATM   12  C21 UNL     1      27.509   8.485  47.030  1.00  0.00    -0.007 C 
HETATM   13  C22 UNL     1      28.652   7.799  46.987  1.00  0.00    -0.002 C 
HETATM   14  C23 UNL     1      29.036   6.461  47.449  1.00  0.00     0.001 C 
HETATM   15  C24 UNL     1      28.444   5.609  48.312  1.00  0.00     0.013 C 
ENDROOT
BRANCH   1  16
HETATM   16  N1  UNL     1      23.206   3.520  49.606  1.00  0.00    -0.381 N 
HETATM   17  C1  UNL     1      22.904   2.518  48.615  1.00  0.00     0.150 C 
BRANCH  16  18
HETATM   18  C2  UNL     1      22.539   3.613  50.891  1.00  0.00     0.161 C 
BRANCH  18  19
HETATM   19  C3  UNL     1      22.843   2.440  51.731  1.00  0.00    -0.037 A 
HETATM   20  C4  UNL     1      24.095   1.925  51.991  1.00  0.00     0.012 A 
HETATM   21  C5  UNL     1      24.306   0.817  52.787  1.00  0.00     0.040 A 
HETATM   22  C6  UNL     1      23.186   0.212  53.343  1.00  0.00     0.102 A 
HETATM   23  C7  UNL     1      21.910   0.698  53.107  1.00  0.00     0.102 A 
HETATM   24  O2  UNL     1      23.430  -0.905  54.143  1.00  0.00    -0.346 OA
HETATM   25  C8  UNL     1      21.737   1.809  52.305  1.00  0.00     0.048 A 
HETATM   26  O1  UNL     1      20.906  -0.020  53.735  1.00  0.00    -0.346 OA
HETATM   27  C9  UNL     1      21.085  -1.290  54.305  1.00  0.00     0.202 C 
HETATM   28  C10 UNL     1      22.400  -1.380  55.025  1.00  0.00     0.202 C 
ENDBRANCH  18  19
ENDBRANCH  16  18
ENDBRANCH   1  16
TORSDOF 3
ENDMDL
MODEL 7
REMARK VINA RESULT:      -8.6      2.939      8.106
REMARK  3 active torsions:
REMARK  status: ('A' for Active; 'I' for Inactive)
REMARK    1  A    between atoms: N1_2  and  C2_3 
REMARK    2  A    between atoms: N1_2  and  C11_14 
REMARK    3  A    between atoms: C2_3  and  C3_4 
ROOT
HETATM    1  C11 UNL     1      25.222   4.718  49.529  1.00  0.00     0.030 C 
HETATM    2  C12 UNL     1      26.596   4.623  49.554  1.00  0.00     0.030 C 
HETATM    3  C13 UNL     1      27.575   5.055  48.720  1.00  0.00     0.015 C 
HETATM    4  C14 UNL     1      27.623   6.418  48.498  1.00  0.00    -0.013 C 
HETATM    5  C15 UNL     1      26.841   7.325  49.167  1.00  0.00     0.028 C 
HETATM    6  N2  UNL     1      25.826   8.034  48.577  1.00  0.00    -0.349 N 
HETATM    7  C16 UNL     1      25.074   7.517  49.564  1.00  0.00     0.018 C 
HETATM    8  C17 UNL     1      23.883   6.829  49.639  1.00  0.00     0.028 C 
HETATM    9  C18 UNL     1      24.441   5.729  49.011  1.00  0.00     0.031 C 
HETATM   10  C19 UNL     1      26.285   8.148  50.207  1.00  0.00     0.115 C 
HETATM   11  C20 UNL     1      25.654   8.901  47.453  1.00  0.00     0.156 C 
HETATM   12  C21 UNL     1      26.893   9.378  46.835  1.00  0.00    -0.007 C 
HETATM   13  C22 UNL     1      28.048   8.914  46.357  1.00  0.00    -0.002 C 
HETATM   14  C23 UNL     1      28.769   7.648  46.530  1.00  0.00     0.001 C 
HETATM   15  C24 UNL     1      28.640   6.664  47.444  1.00  0.00     0.013 C 
ENDROOT
BRANCH   1  16
HETATM   16  N1  UNL     1      24.531   3.602  50.131  1.00  0.00    -0.381 N 
HETATM   17  C1  UNL     1      24.001   2.651  49.186  1.00  0.00     0.150 C 
BRANCH  16  18
HETATM   18  C2  UNL     1      24.396   3.474  51.569  1.00  0.00     0.161 C 
BRANCH  18  19
HETATM   19  C3  UNL     1      25.113   2.284  52.064  1.00  0.00    -0.037 A 
HETATM   20  C4  UNL     1      24.555   1.055  52.346  1.00  0.00     0.012 A 
HETATM   21  C5  UNL     1      25.289  -0.018  52.811  1.00  0.00     0.040 A 
HETATM   22  C6  UNL     1      26.652   0.176  52.994  1.00  0.00     0.102 A 
HETATM   23  C7  UNL     1      27.252   1.395  52.722  1.00  0.00     0.102 A 
HETATM   24  O2  UNL     1      27.367  -0.926  53.464  1.00  0.00    -0.346 OA
HETATM   25  C8  UNL     1      26.486   2.446  52.258  1.00  0.00     0.048 A 
HETATM   26  O1  UNL     1      28.617   1.419  52.957  1.00  0.00    -0.346 OA
HETATM   27  C9  UNL     1      29.307   0.437  53.684  1.00  0.00     0.202 C 
HETATM   28  C10 UNL     1      28.800  -0.937  53.355  1.00  0.00     0.202 C 
ENDBRANCH  18  19
ENDBRANCH  16  18
ENDBRANCH   1  16
TORSDOF 3
ENDMDL
MODEL 8
REMARK VINA RESULT:      -8.6      2.751      5.037
REMARK  3 active torsions:
REMARK  status: ('A' for Active; 'I' for Inactive)
REMARK    1  A    between atoms: N1_2  and  C2_3 
REMARK    2  A    between atoms: N1_2  and  C11_14 
REMARK    3  A    between atoms: C2_3  and  C3_4 
ROOT
HETATM    1  C11 UNL     1      26.686   6.608  49.013  1.00  0.00     0.030 C 
HETATM    2  C12 UNL     1      26.934   5.309  48.630  1.00  0.00     0.030 C 
HETATM    3  C13 UNL     1      26.967   4.131  49.302  1.00  0.00     0.015 C 
HETATM    4  C14 UNL     1      25.800   3.771  49.951  1.00  0.00    -0.013 C 
HETATM    5  C15 UNL     1      24.620   4.461  49.832  1.00  0.00     0.028 C 
HETATM    6  N2  UNL     1      24.063   5.192  50.850  1.00  0.00    -0.349 N 
HETATM    7  C16 UNL     1      24.080   6.196  49.956  1.00  0.00     0.018 C 
HETATM    8  C17 UNL     1      24.538   7.495  49.940  1.00  0.00     0.028 C 
HETATM    9  C18 UNL     1      25.852   7.066  50.010  1.00  0.00     0.031 C 
HETATM   10  C19 UNL     1      23.409   5.017  49.293  1.00  0.00     0.115 C 
HETATM   11  C20 UNL     1      23.660   4.984  52.206  1.00  0.00     0.156 C 
HETATM   12  C21 UNL     1      23.603   3.585  52.634  1.00  0.00    -0.007 C 
HETATM   13  C22 UNL     1      24.350   2.480  52.639  1.00  0.00    -0.002 C 
HETATM   14  C23 UNL     1      25.540   2.070  51.884  1.00  0.00     0.001 C 
HETATM   15  C24 UNL     1      26.090   2.555  50.752  1.00  0.00     0.013 C 
ENDROOT
BRANCH   1  16
HETATM   16  N1  UNL     1      27.405   7.605  48.254  1.00  0.00    -0.381 N 
HETATM   17  C1  UNL     1      26.746   8.019  47.041  1.00  0.00     0.150 C 
BRANCH  16  18
HETATM   18  C2  UNL     1      28.683   8.129  48.700  1.00  0.00     0.161 C 
BRANCH  18  19
HETATM   19  C3  UNL     1      29.798   7.488  47.978  1.00  0.00    -0.037 A 
HETATM   20  C4  UNL     1      30.364   7.925  46.799  1.00  0.00     0.012 A 
HETATM   21  C5  UNL     1      31.408   7.272  46.175  1.00  0.00     0.040 A 
HETATM   22  C6  UNL     1      31.892   6.121  46.785  1.00  0.00     0.102 A 
HETATM   23  C7  UNL     1      31.351   5.648  47.969  1.00  0.00     0.102 A 
HETATM   24  O2  UNL     1      32.947   5.482  46.131  1.00  0.00    -0.346 OA
HETATM   25  C8  UNL     1      30.308   6.329  48.566  1.00  0.00     0.048 A 
HETATM   26  O1  UNL     1      31.949   4.492  48.443  1.00  0.00    -0.346 OA
HETATM   27  C9  UNL     1      32.805   3.681  47.682  1.00  0.00     0.202 C 
HETATM   28  C10 UNL     1      33.731   4.510  46.840  1.00  0.00     0.202 C 
ENDBRANCH  18  19
ENDBRANCH  16  18
ENDBRANCH   1  16
TORSDOF 3
ENDMDL
MODEL 9
REMARK VINA RESULT:      -8.5      3.242      8.258
REMARK  3 active torsions:
REMARK  status: ('A' for Active; 'I' for Inactive)
REMARK    1  A    between atoms: N1_2  and  C2_3 
REMARK    2  A    between atoms: N1_2  and  C11_14 
REMARK    3  A    between atoms: C2_3  and  C3_4 
ROOT
HETATM    1  C11 UNL     1      23.136   4.179  49.120  1.00  0.00     0.030 C 
HETATM    2  C12 UNL     1      24.209   3.616  49.774  1.00  0.00     0.030 C 
HETATM    3  C13 UNL     1      25.540   3.568  49.511  1.00  0.00     0.015 C 
HETATM    4  C14 UNL     1      26.180   4.788  49.404  1.00  0.00    -0.013 C 
HETATM    5  C15 UNL     1      25.577   5.990  49.678  1.00  0.00     0.028 C 
HETATM    6  N2  UNL     1      25.274   6.923  48.719  1.00  0.00    -0.349 N 
HETATM    7  C16 UNL     1      24.029   6.834  49.219  1.00  0.00     0.018 C 
HETATM    8  C17 UNL     1      22.771   6.618  48.700  1.00  0.00     0.028 C 
HETATM    9  C18 UNL     1      23.103   5.321  48.349  1.00  0.00     0.031 C 
HETATM   10  C19 UNL     1      24.961   7.083  50.380  1.00  0.00     0.115 C 
HETATM   11  C20 UNL     1      25.956   7.642  47.687  1.00  0.00     0.156 C 
HETATM   12  C21 UNL     1      27.417   7.573  47.739  1.00  0.00    -0.007 C 
HETATM   13  C22 UNL     1      28.402   6.679  47.828  1.00  0.00    -0.002 C 
HETATM   14  C23 UNL     1      28.446   5.275  48.253  1.00  0.00     0.001 C 
HETATM   15  C24 UNL     1      27.571   4.526  48.954  1.00  0.00     0.013 C 
ENDROOT
BRANCH   1  16
HETATM   16  N1  UNL     1      21.893   3.461  49.277  1.00  0.00    -0.381 N 
HETATM   17  C1  UNL     1      20.796   4.268  49.749  1.00  0.00     0.150 C 
BRANCH  16  18
HETATM   18  C2  UNL     1      21.785   2.046  48.978  1.00  0.00     0.161 C 
BRANCH  18  19
HETATM   19  C3  UNL     1      21.267   1.298  50.139  1.00  0.00    -0.037 A 
HETATM   20  C4  UNL     1      19.956   0.925  50.349  1.00  0.00     0.012 A 
HETATM   21  C5  UNL     1      19.539   0.226  51.464  1.00  0.00     0.040 A 
HETATM   22  C6  UNL     1      20.507  -0.106  52.404  1.00  0.00     0.102 A 
HETATM   23  C7  UNL     1      21.835   0.249  52.231  1.00  0.00     0.102 A 
HETATM   24  O2  UNL     1      20.056  -0.812  53.520  1.00  0.00    -0.346 OA
HETATM   25  C8  UNL     1      22.215   0.948  51.102  1.00  0.00     0.048 A 
HETATM   26  O1  UNL     1      22.668  -0.159  53.259  1.00  0.00    -0.346 OA
HETATM   27  C9  UNL     1      22.214  -0.613  54.506  1.00  0.00     0.202 C 
HETATM   28  C10 UNL     1      21.006  -1.492  54.356  1.00  0.00     0.202 C 
ENDBRANCH  18  19
ENDBRANCH  16  18
ENDBRANCH   1  16
TORSDOF 3
ENDMDL
