MODEL 1
REMARK VINA RESULT:      -9.7      0.000      0.000
REMARK  4 active torsions:
REMARK  status: ('A' for Active; 'I' for Inactive)
REMARK    1  A    between atoms: C4_5  and  C5_6 
REMARK    2  A    between atoms: C6_7  and  O1_8 
REMARK    3  A    between atoms: C12_15  and  C13_16 
REMARK    4  A    between atoms: C20_25  and  O4_26 
ROOT
HETATM    1  C5  UNL     1      22.473   1.426  52.643  1.00  0.00     0.017 A 
HETATM    2  C6  UNL     1      21.072   1.429  52.744  1.00  0.00     0.075 A 
HETATM    3  C7  UNL     1      20.381   0.576  53.575  1.00  0.00     0.038 A 
HETATM    4  C8  UNL     1      21.100  -0.298  54.322  1.00  0.00     0.021 A 
HETATM    5  C9  UNL     1      22.481  -0.280  54.202  1.00  0.00     0.049 A 
HETATM    6  C10 UNL     1      23.222  -1.170  54.961  1.00  0.00     0.187 A 
HETATM    7  O2  UNL     1      22.625  -1.961  55.730  1.00  0.00    -0.287 OA
HETATM    8  C11 UNL     1      24.581  -1.112  54.804  1.00  0.00     0.093 A 
HETATM    9  C12 UNL     1      25.301  -0.278  53.986  1.00  0.00     0.091 A 
HETATM   10  O3  UNL     1      24.517   0.527  53.308  1.00  0.00    -0.308 OA
HETATM   11  C19 UNL     1      23.229   0.559  53.378  1.00  0.00     0.099 A 
ENDROOT
BRANCH   1  12
HETATM   12  C4  UNL     1      22.965   2.410  51.725  1.00  0.00     0.056 C 
HETATM   13  C3  UNL     1      24.163   3.081  52.436  1.00  0.00     0.042 C 
HETATM   14  C2  UNL     1      25.088   3.683  51.380  1.00  0.00     0.272 C 
HETATM   15  N1  UNL     1      24.169   4.239  50.404  1.00  0.00     0.086 N 
HETATM   16  C1  UNL     1      24.661   5.403  49.741  1.00  0.00     0.310 C 
HETATM   17  C21 UNL     1      23.852   3.146  49.510  1.00  0.00     0.304 C 
HETATM   18  C20 UNL     1      23.366   1.981  50.349  1.00  0.00     0.155 C 
BRANCH  18  19
HETATM   19  O4  UNL     1      22.266   1.457  49.703  1.00  0.00    -0.393 OA
HETATM   20  H18 UNL     1      21.997   0.621  50.163  1.00  0.00     0.210 HD
ENDBRANCH  18  19
ENDBRANCH   1  12
BRANCH   2  21
HETATM   21  O1  UNL     1      20.241   2.300  52.009  1.00  0.00    -0.360 OA
HETATM   22  H9  UNL     1      20.436   3.296  52.063  1.00  0.00     0.217 HD
ENDBRANCH   2  21
BRANCH   9  23
HETATM   23  C13 UNL     1      26.741  -0.247  53.840  1.00  0.00     0.020 A 
HETATM   24  C14 UNL     1      27.457   0.719  54.513  1.00  0.00     0.016 A 
HETATM   25  C15 UNL     1      28.831   0.828  54.489  1.00  0.00     0.001 A 
HETATM   26  C16 UNL     1      29.586  -0.067  53.753  1.00  0.00     0.002 A 
HETATM   27  C17 UNL     1      28.907  -1.051  53.062  1.00  0.00     0.025 A 
HETATM   28  C18 UNL     1      27.532  -1.099  53.135  1.00  0.00     0.047 A 
HETATM   29 CL1  UNL     1      26.850  -2.420  52.257  1.00  0.00    -0.083 Cl
ENDBRANCH   9  23
TORSDOF 4
ENDMDL
MODEL 2
REMARK VINA RESULT:      -9.7      2.847      5.909
REMARK  4 active torsions:
REMARK  status: ('A' for Active; 'I' for Inactive)
REMARK    1  A    between atoms: C4_5  and  C5_6 
REMARK    2  A    between atoms: C6_7  and  O1_8 
REMARK    3  A    between atoms: C12_15  and  C13_16 
REMARK    4  A    between atoms: C20_25  and  O4_26 
ROOT
HETATM    1  C5  UNL     1      23.954   0.873  52.379  1.00  0.00     0.017 A 
HETATM    2  C6  UNL     1      23.013  -0.054  52.858  1.00  0.00     0.075 A 
HETATM    3  C7  UNL     1      21.768  -0.216  52.291  1.00  0.00     0.038 A 
HETATM    4  C8  UNL     1      21.456   0.560  51.224  1.00  0.00     0.021 A 
HETATM    5  C9  UNL     1      22.402   1.467  50.772  1.00  0.00     0.049 A 
HETATM    6  C10 UNL     1      22.089   2.262  49.684  1.00  0.00     0.187 A 
HETATM    7  O2  UNL     1      20.965   2.140  49.141  1.00  0.00    -0.287 OA
HETATM    8  C11 UNL     1      23.059   3.141  49.280  1.00  0.00     0.093 A 
HETATM    9  C12 UNL     1      24.305   3.330  49.821  1.00  0.00     0.091 A 
HETATM   10  O3  UNL     1      24.512   2.535  50.844  1.00  0.00    -0.308 OA
HETATM   11  C19 UNL     1      23.672   1.672  51.309  1.00  0.00     0.099 A 
ENDROOT
BRANCH   1  12
HETATM   12  C4  UNL     1      25.180   0.851  53.120  1.00  0.00     0.056 C 
HETATM   13  C3  UNL     1      26.015  -0.299  52.510  1.00  0.00     0.042 C 
HETATM   14  C2  UNL     1      27.493  -0.038  52.794  1.00  0.00     0.272 C 
HETATM   15  N1  UNL     1      27.491   0.479  54.150  1.00  0.00     0.086 N 
HETATM   16  C1  UNL     1      28.662   0.150  54.897  1.00  0.00     0.310 C 
HETATM   17  C21 UNL     1      27.261   1.901  54.018  1.00  0.00     0.304 C 
HETATM   18  C20 UNL     1      26.006   2.097  53.189  1.00  0.00     0.155 C 
BRANCH  18  19
HETATM   19  O4  UNL     1      25.274   3.089  53.806  1.00  0.00    -0.393 OA
HETATM   20  H18 UNL     1      25.223   2.888  54.776  1.00  0.00     0.210 HD
ENDBRANCH  18  19
ENDBRANCH   1  12
BRANCH   2  21
HETATM   21  O1  UNL     1      23.248  -0.902  53.959  1.00  0.00    -0.360 OA
HETATM   22  H9  UNL     1      23.873  -0.567  54.688  1.00  0.00     0.217 HD
ENDBRANCH   2  21
BRANCH   9  23
HETATM   23  C13 UNL     1      25.306   4.274  49.370  1.00  0.00     0.020 A 
HETATM   24  C14 UNL     1      26.609   3.848  49.236  1.00  0.00     0.016 A 
HETATM   25  C15 UNL     1      27.643   4.637  48.778  1.00  0.00     0.001 A 
HETATM   26  C16 UNL     1      27.407   5.952  48.418  1.00  0.00     0.002 A 
HETATM   27  C17 UNL     1      26.113   6.419  48.539  1.00  0.00     0.025 A 
HETATM   28  C18 UNL     1      25.131   5.572  49.003  1.00  0.00     0.047 A 
HETATM   29 CL1  UNL     1      23.566   6.300  49.041  1.00  0.00    -0.083 Cl
ENDBRANCH   9  23
TORSDOF 4
ENDMDL
MODEL 3
REMARK VINA RESULT:      -9.2      2.281      5.502
REMARK  4 active torsions:
REMARK  status: ('A' for Active; 'I' for Inactive)
REMARK    1  A    between atoms: C4_5  and  C5_6 
REMARK    2  A    between atoms: C6_7  and  O1_8 
REMARK    3  A    between atoms: C12_15  and  C13_16 
REMARK    4  A    between atoms: C20_25  and  O4_26 
ROOT
HETATM    1  C5  UNL     1      24.398  -0.269  54.206  1.00  0.00     0.017 A 
HETATM    2  C6  UNL     1      24.072  -1.188  55.218  1.00  0.00     0.075 A 
HETATM    3  C7  UNL     1      22.775  -1.560  55.499  1.00  0.00     0.038 A 
HETATM    4  C8  UNL     1      21.785  -1.006  54.757  1.00  0.00     0.021 A 
HETATM    5  C9  UNL     1      22.135  -0.102  53.766  1.00  0.00     0.049 A 
HETATM    6  C10 UNL     1      21.129   0.467  53.006  1.00  0.00     0.187 A 
HETATM    7  O2  UNL     1      19.937   0.150  53.234  1.00  0.00    -0.287 OA
HETATM    8  C11 UNL     1      21.529   1.354  52.042  1.00  0.00     0.093 A 
HETATM    9  C12 UNL     1      22.807   1.748  51.736  1.00  0.00     0.091 A 
HETATM   10  O3  UNL     1      23.691   1.158  52.506  1.00  0.00    -0.308 OA
HETATM   11  C19 UNL     1      23.427   0.309  53.442  1.00  0.00     0.099 A 
ENDROOT
BRANCH   1  12
HETATM   12  C4  UNL     1      25.809  -0.051  54.091  1.00  0.00     0.056 C 
HETATM   13  C3  UNL     1      26.336  -1.193  53.191  1.00  0.00     0.042 C 
HETATM   14  C2  UNL     1      27.642  -0.744  52.538  1.00  0.00     0.272 C 
HETATM   15  N1  UNL     1      28.319  -0.022  53.600  1.00  0.00     0.086 N 
HETATM   16  C1  UNL     1      29.743  -0.109  53.543  1.00  0.00     0.310 C 
HETATM   17  C21 UNL     1      27.812   1.331  53.527  1.00  0.00     0.304 C 
HETATM   18  C20 UNL     1      26.298   1.267  53.576  1.00  0.00     0.155 C 
BRANCH  18  19
HETATM   19  O4  UNL     1      25.885   2.265  54.433  1.00  0.00    -0.393 OA
HETATM   20  H18 UNL     1      25.966   3.137  53.966  1.00  0.00     0.210 HD
ENDBRANCH  18  19
ENDBRANCH   1  12
BRANCH   2  21
HETATM   21  O1  UNL     1      25.031  -1.815  56.039  1.00  0.00    -0.360 OA
HETATM   22  H9  UNL     1      26.012  -1.687  55.801  1.00  0.00     0.217 HD
ENDBRANCH   2  21
BRANCH   9  23
HETATM   23  C13 UNL     1      23.195   2.695  50.711  1.00  0.00     0.020 A 
HETATM   24  C14 UNL     1      24.021   3.743  51.052  1.00  0.00     0.016 A 
HETATM   25  C15 UNL     1      24.493   4.684  50.163  1.00  0.00     0.001 A 
HETATM   26  C16 UNL     1      24.141   4.615  48.827  1.00  0.00     0.002 A 
HETATM   27  C17 UNL     1      23.312   3.579  48.443  1.00  0.00     0.025 A 
HETATM   28  C18 UNL     1      22.881   2.675  49.388  1.00  0.00     0.047 A 
HETATM   29 CL1  UNL     1      21.899   1.417  48.729  1.00  0.00    -0.083 Cl
ENDBRANCH   9  23
TORSDOF 4
ENDMDL
MODEL 4
REMARK VINA RESULT:      -9.2      2.469      5.507
REMARK  4 active torsions:
REMARK  status: ('A' for Active; 'I' for Inactive)
REMARK    1  A    between atoms: C4_5  and  C5_6 
REMARK    2  A    between atoms: C6_7  and  O1_8 
REMARK    3  A    between atoms: C12_15  and  C13_16 
REMARK    4  A    between atoms: C20_25  and  O4_26 
ROOT
HETATM    1  C5  UNL     1      25.144   2.422  51.290  1.00  0.00     0.017 A 
HETATM    2  C6  UNL     1      26.532   2.634  51.348  1.00  0.00     0.075 A 
HETATM    3  C7  UNL     1      27.378   1.843  52.093  1.00  0.00     0.038 A 
HETATM    4  C8  UNL     1      26.831   0.819  52.793  1.00  0.00     0.021 A 
HETATM    5  C9  UNL     1      25.459   0.632  52.719  1.00  0.00     0.049 A 
HETATM    6  C10 UNL     1      24.895  -0.411  53.431  1.00  0.00     0.187 A 
HETATM    7  O2  UNL     1      25.636  -1.153  54.119  1.00  0.00    -0.287 OA
HETATM    8  C11 UNL     1      23.537  -0.550  53.323  1.00  0.00     0.093 A 
HETATM    9  C12 UNL     1      22.664   0.218  52.594  1.00  0.00     0.091 A 
HETATM   10  O3  UNL     1      23.288   1.179  51.954  1.00  0.00    -0.308 OA
HETATM   11  C19 UNL     1      24.559   1.402  51.983  1.00  0.00     0.099 A 
ENDROOT
BRANCH   1  12
HETATM   12  C4  UNL     1      24.475   3.361  50.441  1.00  0.00     0.056 C 
HETATM   13  C3  UNL     1      23.742   2.513  49.375  1.00  0.00     0.042 C 
HETATM   14  C2  UNL     1      22.573   3.323  48.819  1.00  0.00     0.272 C 
HETATM   15  N1  UNL     1      23.112   4.666  48.714  1.00  0.00     0.086 N 
HETATM   16  C1  UNL     1      22.564   5.429  47.639  1.00  0.00     0.310 C 
HETATM   17  C21 UNL     1      22.912   5.262  50.016  1.00  0.00     0.304 C 
HETATM   18  C20 UNL     1      23.522   4.339  51.053  1.00  0.00     0.155 C 
BRANCH  18  19
HETATM   19  O4  UNL     1      24.208   5.139  51.943  1.00  0.00    -0.393 OA
HETATM   20  H18 UNL     1      23.985   6.087  51.754  1.00  0.00     0.210 HD
ENDBRANCH  18  19
ENDBRANCH   1  12
BRANCH   2  21
HETATM   21  O1  UNL     1      27.189   3.671  50.656  1.00  0.00    -0.360 OA
HETATM   22  H9  UNL     1      27.974   4.123  51.118  1.00  0.00     0.217 HD
ENDBRANCH   2  21
BRANCH   9  23
HETATM   23  C13 UNL     1      21.230   0.045  52.507  1.00  0.00     0.020 A 
HETATM   24  C14 UNL     1      20.557   0.598  51.439  1.00  0.00     0.016 A 
HETATM   25  C15 UNL     1      19.202   0.470  51.221  1.00  0.00     0.001 A 
HETATM   26  C16 UNL     1      18.421  -0.251  52.106  1.00  0.00     0.002 A 
HETATM   27  C17 UNL     1      19.057  -0.822  53.191  1.00  0.00     0.025 A 
HETATM   28  C18 UNL     1      20.416  -0.653  53.343  1.00  0.00     0.047 A 
HETATM   29 CL1  UNL     1      21.055  -1.475  54.720  1.00  0.00    -0.083 Cl
ENDBRANCH   9  23
TORSDOF 4
ENDMDL
MODEL 5
REMARK VINA RESULT:      -9.1      2.010      2.446
REMARK  4 active torsions:
REMARK  status: ('A' for Active; 'I' for Inactive)
REMARK    1  A    between atoms: C4_5  and  C5_6 
REMARK    2  A    between atoms: C6_7  and  O1_8 
REMARK    3  A    between atoms: C12_15  and  C13_16 
REMARK    4  A    between atoms: C20_25  and  O4_26 
ROOT
HETATM    1  C5  UNL     1      20.804   1.055  51.472  1.00  0.00     0.017 A 
HETATM    2  C6  UNL     1      19.423   0.793  51.444  1.00  0.00     0.075 A 
HETATM    3  C7  UNL     1      18.813  -0.090  52.307  1.00  0.00     0.038 A 
HETATM    4  C8  UNL     1      19.593  -0.723  53.218  1.00  0.00     0.021 A 
HETATM    5  C9  UNL     1      20.952  -0.447  53.223  1.00  0.00     0.049 A 
HETATM    6  C10 UNL     1      21.754  -1.090  54.149  1.00  0.00     0.187 A 
HETATM    7  O2  UNL     1      21.231  -1.900  54.952  1.00  0.00    -0.287 OA
HETATM    8  C11 UNL     1      23.087  -0.782  54.110  1.00  0.00     0.093 A 
HETATM    9  C12 UNL     1      23.728   0.088  53.265  1.00  0.00     0.091 A 
HETATM   10  O3  UNL     1      22.890   0.649  52.425  1.00  0.00    -0.308 OA
HETATM   11  C19 UNL     1      21.619   0.434  52.373  1.00  0.00     0.099 A 
ENDROOT
BRANCH   1  12
HETATM   12  C4  UNL     1      21.204   2.018  50.489  1.00  0.00     0.056 C 
HETATM   13  C3  UNL     1      21.861   3.173  51.281  1.00  0.00     0.042 C 
HETATM   14  C2  UNL     1      22.815   3.925  50.354  1.00  0.00     0.272 C 
HETATM   15  N1  UNL     1      22.099   3.964  49.093  1.00  0.00     0.086 N 
HETATM   16  C1  UNL     1      22.368   5.128  48.310  1.00  0.00     0.310 C 
HETATM   17  C21 UNL     1      22.425   2.722  48.428  1.00  0.00     0.304 C 
HETATM   18  C20 UNL     1      22.110   1.585  49.379  1.00  0.00     0.155 C 
BRANCH  18  19
HETATM   19  O4  UNL     1      21.476   0.610  48.637  1.00  0.00    -0.393 OA
HETATM   20  H18 UNL     1      21.293   0.971  47.731  1.00  0.00     0.210 HD
ENDBRANCH  18  19
ENDBRANCH   1  12
BRANCH   2  21
HETATM   21  O1  UNL     1      18.534   1.403  50.536  1.00  0.00    -0.360 OA
HETATM   22  H9  UNL     1      18.808   1.434  49.557  1.00  0.00     0.217 HD
ENDBRANCH   2  21
BRANCH   9  23
HETATM   23  C13 UNL     1      25.145   0.387  53.248  1.00  0.00     0.020 A 
HETATM   24  C14 UNL     1      26.039  -0.642  53.052  1.00  0.00     0.016 A 
HETATM   25  C15 UNL     1      27.407  -0.482  52.975  1.00  0.00     0.001 A 
HETATM   26  C16 UNL     1      27.966   0.777  53.097  1.00  0.00     0.002 A 
HETATM   27  C17 UNL     1      27.103   1.838  53.295  1.00  0.00     0.025 A 
HETATM   28  C18 UNL     1      25.748   1.601  53.361  1.00  0.00     0.047 A 
HETATM   29 CL1  UNL     1      24.814   3.040  53.558  1.00  0.00    -0.083 Cl
ENDBRANCH   9  23
TORSDOF 4
ENDMDL
MODEL 6
REMARK VINA RESULT:      -9.1      2.142      5.310
REMARK  4 active torsions:
REMARK  status: ('A' for Active; 'I' for Inactive)
REMARK    1  A    between atoms: C4_5  and  C5_6 
REMARK    2  A    between atoms: C6_7  and  O1_8 
REMARK    3  A    between atoms: C12_15  and  C13_16 
REMARK    4  A    between atoms: C20_25  and  O4_26 
ROOT
HETATM    1  C5  UNL     1      26.000   1.943  52.884  1.00  0.00     0.017 A 
HETATM    2  C6  UNL     1      27.300   1.922  53.418  1.00  0.00     0.075 A 
HETATM    3  C7  UNL     1      27.719   0.974  54.326  1.00  0.00     0.038 A 
HETATM    4  C8  UNL     1      26.826   0.029  54.708  1.00  0.00     0.021 A 
HETATM    5  C9  UNL     1      25.551   0.073  54.167  1.00  0.00     0.049 A 
HETATM    6  C10 UNL     1      24.635  -0.889  54.554  1.00  0.00     0.187 A 
HETATM    7  O2  UNL     1      24.984  -1.768  55.378  1.00  0.00    -0.287 OA
HETATM    8  C11 UNL     1      23.390  -0.798  53.990  1.00  0.00     0.093 A 
HETATM    9  C12 UNL     1      22.938   0.130  53.087  1.00  0.00     0.091 A 
HETATM   10  O3  UNL     1      23.873   0.998  52.780  1.00  0.00    -0.308 OA
HETATM   11  C19 UNL     1      25.076   1.007  53.248  1.00  0.00     0.099 A 
ENDROOT
BRANCH   1  12
HETATM   12  C4  UNL     1      25.802   3.011  51.950  1.00  0.00     0.056 C 
HETATM   13  C3  UNL     1      26.187   2.434  50.568  1.00  0.00     0.042 C 
HETATM   14  C2  UNL     1      25.478   3.241  49.483  1.00  0.00     0.272 C 
HETATM   15  N1  UNL     1      25.564   4.607  49.966  1.00  0.00     0.086 N 
HETATM   16  C1  UNL     1      25.646   5.585  48.929  1.00  0.00     0.310 C 
HETATM   17  C21 UNL     1      24.426   4.776  50.842  1.00  0.00     0.304 C 
HETATM   18  C20 UNL     1      24.457   3.663  51.871  1.00  0.00     0.155 C 
BRANCH  18  19
HETATM   19  O4  UNL     1      24.165   4.240  53.089  1.00  0.00    -0.393 OA
HETATM   20  H18 UNL     1      23.214   4.524  53.085  1.00  0.00     0.210 HD
ENDBRANCH  18  19
ENDBRANCH   1  12
BRANCH   2  21
HETATM   21  O1  UNL     1      28.295   2.862  53.080  1.00  0.00    -0.360 OA
HETATM   22  H9  UNL     1      28.375   3.693  53.659  1.00  0.00     0.217 HD
ENDBRANCH   2  21
BRANCH   9  23
HETATM   23  C13 UNL     1      21.610   0.199  52.514  1.00  0.00     0.020 A 
HETATM   24  C14 UNL     1      20.540  -0.244  53.260  1.00  0.00     0.016 A 
HETATM   25  C15 UNL     1      19.227  -0.193  52.844  1.00  0.00     0.001 A 
HETATM   26  C16 UNL     1      18.911   0.328  51.602  1.00  0.00     0.002 A 
HETATM   27  C17 UNL     1      19.956   0.783  50.821  1.00  0.00     0.025 A 
HETATM   28  C18 UNL     1      21.243   0.701  51.304  1.00  0.00     0.047 A 
HETATM   29 CL1  UNL     1      22.418   1.361  50.225  1.00  0.00    -0.083 Cl
ENDBRANCH   9  23
TORSDOF 4
ENDMDL
MODEL 7
REMARK VINA RESULT:      -8.8      2.555      5.971
REMARK  4 active torsions:
REMARK  status: ('A' for Active; 'I' for Inactive)
REMARK    1  A    between atoms: C4_5  and  C5_6 
REMARK    2  A    between atoms: C6_7  and  O1_8 
REMARK    3  A    between atoms: C12_15  and  C13_16 
REMARK    4  A    between atoms: C20_25  and  O4_26 
ROOT
HETATM    1  C5  UNL     1      24.041   1.201  52.863  1.00  0.00     0.017 A 
HETATM    2  C6  UNL     1      25.274   0.865  53.447  1.00  0.00     0.075 A 
HETATM    3  C7  UNL     1      25.418  -0.171  54.343  1.00  0.00     0.038 A 
HETATM    4  C8  UNL     1      24.312  -0.888  54.662  1.00  0.00     0.021 A 
HETATM    5  C9  UNL     1      23.109  -0.535  54.072  1.00  0.00     0.049 A 
HETATM    6  C10 UNL     1      21.977  -1.262  54.393  1.00  0.00     0.187 A 
HETATM    7  O2  UNL     1      22.072  -2.214  55.205  1.00  0.00    -0.287 OA
HETATM    8  C11 UNL     1      20.815  -0.871  53.783  1.00  0.00     0.093 A 
HETATM    9  C12 UNL     1      20.634   0.155  52.890  1.00  0.00     0.091 A 
HETATM   10  O3  UNL     1      21.759   0.785  52.646  1.00  0.00    -0.308 OA
HETATM   11  C19 UNL     1      22.908   0.503  53.162  1.00  0.00     0.099 A 
ENDROOT
BRANCH   1  12
HETATM   12  C4  UNL     1      24.141   2.304  51.953  1.00  0.00     0.056 C 
HETATM   13  C3  UNL     1      23.375   1.868  50.683  1.00  0.00     0.042 C 
HETATM   14  C2  UNL     1      22.920   3.116  49.929  1.00  0.00     0.272 C 
HETATM   15  N1  UNL     1      24.050   4.018  50.058  1.00  0.00     0.086 N 
HETATM   16  C1  UNL     1      24.221   4.896  48.945  1.00  0.00     0.310 C 
HETATM   17  C21 UNL     1      23.852   4.701  51.318  1.00  0.00     0.304 C 
HETATM   18  C20 UNL     1      23.665   3.652  52.396  1.00  0.00     0.155 C 
BRANCH  18  19
HETATM   19  O4  UNL     1      24.412   4.059  53.481  1.00  0.00    -0.393 OA
HETATM   20  H18 UNL     1      24.062   3.610  54.293  1.00  0.00     0.210 HD
ENDBRANCH  18  19
ENDBRANCH   1  12
BRANCH   2  21
HETATM   21  O1  UNL     1      26.475   1.551  53.177  1.00  0.00    -0.360 OA
HETATM   22  H9  UNL     1      26.671   2.390  53.717  1.00  0.00     0.217 HD
ENDBRANCH   2  21
BRANCH   9  23
HETATM   23  C13 UNL     1      19.387   0.545  52.266  1.00  0.00     0.020 A 
HETATM   24  C14 UNL     1      18.428  -0.417  52.038  1.00  0.00     0.016 A 
HETATM   25  C15 UNL     1      17.188  -0.167  51.491  1.00  0.00     0.001 A 
HETATM   26  C16 UNL     1      16.836   1.121  51.129  1.00  0.00     0.002 A 
HETATM   27  C17 UNL     1      17.770   2.116  51.341  1.00  0.00     0.025 A 
HETATM   28  C18 UNL     1      18.989   1.791  51.893  1.00  0.00     0.047 A 
HETATM   29 CL1  UNL     1      20.013   3.159  52.137  1.00  0.00    -0.083 Cl
ENDBRANCH   9  23
TORSDOF 4
ENDMDL
MODEL 8
REMARK VINA RESULT:      -8.8      2.804      4.875
REMARK  4 active torsions:
REMARK  status: ('A' for Active; 'I' for Inactive)
REMARK    1  A    between atoms: C4_5  and  C5_6 
REMARK    2  A    between atoms: C6_7  and  O1_8 
REMARK    3  A    between atoms: C12_15  and  C13_16 
REMARK    4  A    between atoms: C20_25  and  O4_26 
ROOT
HETATM    1  C5  UNL     1      22.487   1.064  52.051  1.00  0.00     0.017 A 
HETATM    2  C6  UNL     1      22.073  -0.044  52.810  1.00  0.00     0.075 A 
HETATM    3  C7  UNL     1      22.955  -0.854  53.491  1.00  0.00     0.038 A 
HETATM    4  C8  UNL     1      24.275  -0.554  53.414  1.00  0.00     0.021 A 
HETATM    5  C9  UNL     1      24.656   0.543  52.658  1.00  0.00     0.049 A 
HETATM    6  C10 UNL     1      26.002   0.854  52.575  1.00  0.00     0.187 A 
HETATM    7  O2  UNL     1      26.833   0.138  53.184  1.00  0.00    -0.287 OA
HETATM    8  C11 UNL     1      26.323   1.947  51.815  1.00  0.00     0.093 A 
HETATM    9  C12 UNL     1      25.474   2.774  51.124  1.00  0.00     0.091 A 
HETATM   10  O3  UNL     1      24.222   2.402  51.260  1.00  0.00    -0.308 OA
HETATM   11  C19 UNL     1      23.807   1.394  51.951  1.00  0.00     0.099 A 
ENDROOT
BRANCH   1  12
HETATM   12  C4  UNL     1      21.391   1.762  51.448  1.00  0.00     0.056 C 
HETATM   13  C3  UNL     1      21.243   3.078  52.246  1.00  0.00     0.042 C 
HETATM   14  C2  UNL     1      20.549   4.114  51.365  1.00  0.00     0.272 C 
HETATM   15  N1  UNL     1      19.537   3.342  50.669  1.00  0.00     0.086 N 
HETATM   16  C1  UNL     1      18.354   4.080  50.362  1.00  0.00     0.310 C 
HETATM   17  C21 UNL     1      20.203   2.794  49.508  1.00  0.00     0.304 C 
HETATM   18  C20 UNL     1      21.443   2.062  49.982  1.00  0.00     0.155 C 
BRANCH  18  19
HETATM   19  O4  UNL     1      21.495   0.875  49.282  1.00  0.00    -0.393 OA
HETATM   20  H18 UNL     1      20.868   0.232  49.701  1.00  0.00     0.210 HD
ENDBRANCH  18  19
ENDBRANCH   1  12
BRANCH   2  21
HETATM   21  O1  UNL     1      20.725  -0.432  52.949  1.00  0.00    -0.360 OA
HETATM   22  H9  UNL     1      20.536  -1.338  53.369  1.00  0.00     0.217 HD
ENDBRANCH   2  21
BRANCH   9  23
HETATM   23  C13 UNL     1      25.849   3.921  50.323  1.00  0.00     0.020 A 
HETATM   24  C14 UNL     1      26.936   3.818  49.483  1.00  0.00     0.016 A 
HETATM   25  C15 UNL     1      27.368   4.821  48.642  1.00  0.00     0.001 A 
HETATM   26  C16 UNL     1      26.699   6.032  48.604  1.00  0.00     0.002 A 
HETATM   27  C17 UNL     1      25.603   6.176  49.432  1.00  0.00     0.025 A 
HETATM   28  C18 UNL     1      25.229   5.129  50.245  1.00  0.00     0.047 A 
HETATM   29 CL1  UNL     1      23.811   5.459  51.173  1.00  0.00    -0.083 Cl
ENDBRANCH   9  23
TORSDOF 4
ENDMDL
MODEL 9
REMARK VINA RESULT:      -8.4      2.834      5.396
REMARK  4 active torsions:
REMARK  status: ('A' for Active; 'I' for Inactive)
REMARK    1  A    between atoms: C4_5  and  C5_6 
REMARK    2  A    between atoms: C6_7  and  O1_8 
REMARK    3  A    between atoms: C12_15  and  C13_16 
REMARK    4  A    between atoms: C20_25  and  O4_26 
ROOT
HETATM    1  C5  UNL     1      23.732   3.585  49.873  1.00  0.00     0.017 A 
HETATM    2  C6  UNL     1      24.515   4.504  49.154  1.00  0.00     0.075 A 
HETATM    3  C7  UNL     1      25.883   4.590  49.293  1.00  0.00     0.038 A 
HETATM    4  C8  UNL     1      26.483   3.743  50.166  1.00  0.00     0.021 A 
HETATM    5  C9  UNL     1      25.687   2.848  50.864  1.00  0.00     0.049 A 
HETATM    6  C10 UNL     1      26.293   1.982  51.757  1.00  0.00     0.187 A 
HETATM    7  O2  UNL     1      27.537   2.032  51.907  1.00  0.00    -0.287 OA
HETATM    8  C11 UNL     1      25.461   1.120  52.420  1.00  0.00     0.093 A 
HETATM    9  C12 UNL     1      24.098   1.007  52.308  1.00  0.00     0.091 A 
HETATM   10  O3  UNL     1      23.614   1.865  51.441  1.00  0.00    -0.308 OA
HETATM   11  C19 UNL     1      24.302   2.720  50.761  1.00  0.00     0.099 A 
ENDROOT
BRANCH   1  12
HETATM   12  C4  UNL     1      22.339   3.672  49.551  1.00  0.00     0.056 C 
HETATM   13  C3  UNL     1      22.071   2.528  48.545  1.00  0.00     0.042 C 
HETATM   14  C2  UNL     1      20.589   2.163  48.598  1.00  0.00     0.272 C 
HETATM   15  N1  UNL     1      19.929   3.449  48.725  1.00  0.00     0.086 N 
HETATM   16  C1  UNL     1      18.641   3.503  48.111  1.00  0.00     0.310 C 
HETATM   17  C21 UNL     1      19.914   3.733  50.143  1.00  0.00     0.304 C 
HETATM   18  C20 UNL     1      21.335   3.618  50.659  1.00  0.00     0.155 C 
BRANCH  18  19
HETATM   19  O4  UNL     1      21.539   4.690  51.503  1.00  0.00    -0.393 OA
HETATM   20  H18 UNL     1      21.315   4.412  52.428  1.00  0.00     0.210 HD
ENDBRANCH  18  19
ENDBRANCH   1  12
BRANCH   2  21
HETATM   21  O1  UNL     1      23.981   5.421  48.226  1.00  0.00    -0.360 OA
HETATM   22  H9  UNL     1      23.380   5.054  47.493  1.00  0.00     0.217 HD
ENDBRANCH   2  21
BRANCH   9  23
HETATM   23  C13 UNL     1      23.247   0.085  53.030  1.00  0.00     0.020 A 
HETATM   24  C14 UNL     1      23.667  -0.388  54.254  1.00  0.00     0.016 A 
HETATM   25  C15 UNL     1      22.932  -1.235  55.055  1.00  0.00     0.001 A 
HETATM   26  C16 UNL     1      21.684  -1.669  54.646  1.00  0.00     0.002 A 
HETATM   27  C17 UNL     1      21.226  -1.219  53.423  1.00  0.00     0.025 A 
HETATM   28  C18 UNL     1      22.015  -0.372  52.678  1.00  0.00     0.047 A 
HETATM   29 CL1  UNL     1      21.270   0.135  51.205  1.00  0.00    -0.083 Cl
ENDBRANCH   9  23
TORSDOF 4
ENDMDL
