MODEL 1
REMARK VINA RESULT:      -9.4      0.000      0.000
REMARK  5 active torsions:
REMARK  status: ('A' for Active; 'I' for Inactive)
REMARK    1  A    between atoms: O1_2  and  C2_3 
REMARK    2  A    between atoms: C7_8  and  N1_9 
REMARK       I    between atoms: N1_9  and  C8_10 
REMARK    3  A    between atoms: C8_10  and  C9_12 
REMARK    4  A    between atoms: C10_13  and  C11_14 
REMARK    5  A    between atoms: C11_14  and  N2_15 
ROOT
HETATM    1  C2  UNL     1      26.128   1.884  52.303  1.00  0.00     0.094 A 
HETATM    2  C3  UNL     1      25.590   0.829  53.036  1.00  0.00     0.051 A 
HETATM    3  C4  UNL     1      24.241   0.699  53.310  1.00  0.00     0.114 A 
HETATM    4  C5  UNL     1      23.663   1.723  52.744  1.00  0.00    -0.026 A 
HETATM    5  C6  UNL     1      23.956   2.759  52.061  1.00  0.00     0.039 A 
HETATM    6  C7  UNL     1      25.300   2.866  51.809  1.00  0.00     0.068 A 
HETATM    7  C16 UNL     1      22.710   0.976  53.075  1.00  0.00     0.076 A 
HETATM    8  C17 UNL     1      22.552  -0.116  52.245  1.00  0.00     0.047 A 
HETATM    9  C18 UNL     1      22.204   0.819  51.469  1.00  0.00     0.167 A 
HETATM   10  F1  UNL     1      22.736   1.229  50.334  1.00  0.00    -0.234 F 
HETATM   11  C19 UNL     1      20.950   1.365  52.130  1.00  0.00     0.050 C 
HETATM   12 CL1  UNL     1      20.313   2.689  51.216  1.00  0.00    -0.086 Cl
HETATM   13  C20 UNL     1      20.426   0.857  53.269  1.00  0.00    -0.000 C 
HETATM   14  C21 UNL     1      20.424  -0.093  54.392  1.00  0.00     0.057 C 
HETATM   15  C22 UNL     1      21.629  -0.855  54.772  1.00  0.00    -0.004 C 
HETATM   16  C23 UNL     1      22.940  -0.913  54.627  1.00  0.00     0.108 C 
HETATM   17  N3  UNL     1      24.202  -0.418  54.090  1.00  0.00    -0.281 NA
ENDROOT
BRANCH   6  18
HETATM   18  N1  UNL     1      25.776   3.968  51.062  1.00  0.00    -0.321 N 
HETATM   19  C8  UNL     1      25.608   4.386  49.753  1.00  0.00     0.245 C 
HETATM   20  O2  UNL     1      24.877   3.638  49.058  1.00  0.00    -0.268 OA
HETATM   21  H6  UNL     1      26.386   4.611  51.607  1.00  0.00     0.169 HD
BRANCH  19  22
HETATM   22  C9  UNL     1      26.191   5.573  49.153  1.00  0.00     0.072 C 
HETATM   23  C10 UNL     1      27.374   5.895  48.623  1.00  0.00     0.008 C 
BRANCH  23  24
HETATM   24  C11 UNL     1      28.737   5.445  48.282  1.00  0.00     0.300 C 
BRANCH  24  25
HETATM   25  N2  UNL     1      29.608   6.568  47.968  1.00  0.00     0.096 N 
HETATM   26  C12 UNL     1      28.992   7.758  48.517  1.00  0.00     0.299 C 
HETATM   27  C13 UNL     1      29.928   8.907  48.706  1.00  0.00     0.198 C 
HETATM   28  O3  UNL     1      31.002   8.447  49.492  1.00  0.00    -0.388 OA
HETATM   29  C14 UNL     1      31.725   7.599  48.664  1.00  0.00     0.198 C 
HETATM   30  C15 UNL     1      30.933   6.326  48.437  1.00  0.00     0.299 C 
ENDBRANCH  24  25
ENDBRANCH  23  24
ENDBRANCH  19  22
ENDBRANCH   6  18
BRANCH   1  31
HETATM   31  O1  UNL     1      27.511   2.022  52.020  1.00  0.00    -0.354 OA
HETATM   32  C1  UNL     1      28.418   2.197  53.105  1.00  0.00     0.210 C 
ENDBRANCH   1  31
TORSDOF 5
ENDMDL
MODEL 2
REMARK VINA RESULT:      -9.3      3.714      7.891
REMARK  5 active torsions:
REMARK  status: ('A' for Active; 'I' for Inactive)
REMARK    1  A    between atoms: O1_2  and  C2_3 
REMARK    2  A    between atoms: C7_8  and  N1_9 
REMARK       I    between atoms: N1_9  and  C8_10 
REMARK    3  A    between atoms: C8_10  and  C9_12 
REMARK    4  A    between atoms: C10_13  and  C11_14 
REMARK    5  A    between atoms: C11_14  and  N2_15 
ROOT
HETATM    1  C2  UNL     1      21.604   4.097  52.109  1.00  0.00     0.094 A 
HETATM    2  C3  UNL     1      21.677   5.385  51.585  1.00  0.00     0.051 A 
HETATM    3  C4  UNL     1      22.829   5.925  51.043  1.00  0.00     0.114 A 
HETATM    4  C5  UNL     1      23.737   4.991  51.137  1.00  0.00    -0.026 A 
HETATM    5  C6  UNL     1      23.875   3.799  51.566  1.00  0.00     0.039 A 
HETATM    6  C7  UNL     1      22.719   3.291  52.102  1.00  0.00     0.068 A 
HETATM    7  C16 UNL     1      24.261   5.858  50.394  1.00  0.00     0.076 A 
HETATM    8  C17 UNL     1      23.769   5.849  49.104  1.00  0.00     0.047 A 
HETATM    9  C18 UNL     1      24.405   4.756  49.119  1.00  0.00     0.167 A 
HETATM   10  F1  UNL     1      23.978   3.517  48.973  1.00  0.00    -0.234 F 
HETATM   11  C19 UNL     1      25.847   5.200  49.300  1.00  0.00     0.050 C 
HETATM   12 CL1  UNL     1      26.898   3.828  49.365  1.00  0.00    -0.086 Cl
HETATM   13  C20 UNL     1      26.222   6.497  49.386  1.00  0.00    -0.000 C 
HETATM   14  C21 UNL     1      25.932   7.939  49.406  1.00  0.00     0.057 C 
HETATM   15  C22 UNL     1      24.576   8.459  49.666  1.00  0.00    -0.004 C 
HETATM   16  C23 UNL     1      23.386   8.138  50.139  1.00  0.00     0.108 C 
HETATM   17  N3  UNL     1      22.446   7.195  50.733  1.00  0.00    -0.281 NA
ENDROOT
BRANCH   6  18
HETATM   18  N1  UNL     1      22.720   1.975  52.622  1.00  0.00    -0.321 N 
HETATM   19  C8  UNL     1      22.359   0.741  52.111  1.00  0.00     0.245 C 
HETATM   20  O2  UNL     1      21.935   0.770  50.929  1.00  0.00    -0.268 OA
HETATM   21  H6  UNL     1      23.066   1.912  53.601  1.00  0.00     0.169 HD
BRANCH  19  22
HETATM   22  C9  UNL     1      22.432  -0.529  52.813  1.00  0.00     0.072 C 
HETATM   23  C10 UNL     1      23.197  -1.046  53.779  1.00  0.00     0.008 C 
BRANCH  23  24
HETATM   24  C11 UNL     1      24.320  -0.832  54.710  1.00  0.00     0.300 C 
BRANCH  24  25
HETATM   25  N2  UNL     1      25.478  -0.270  54.030  1.00  0.00     0.096 N 
HETATM   26  C12 UNL     1      26.388   0.206  55.050  1.00  0.00     0.299 C 
HETATM   27  C13 UNL     1      27.798   0.384  54.588  1.00  0.00     0.198 C 
HETATM   28  O3  UNL     1      28.212  -0.840  54.027  1.00  0.00    -0.388 OA
HETATM   29  C14 UNL     1      27.511  -0.952  52.834  1.00  0.00     0.198 C 
HETATM   30  C15 UNL     1      26.050  -1.222  53.134  1.00  0.00     0.299 C 
ENDBRANCH  24  25
ENDBRANCH  23  24
ENDBRANCH  19  22
ENDBRANCH   6  18
BRANCH   1  31
HETATM   31  O1  UNL     1      20.425   3.540  52.667  1.00  0.00    -0.354 OA
HETATM   32  C1  UNL     1      19.355   3.186  51.795  1.00  0.00     0.210 C 
ENDBRANCH   1  31
TORSDOF 5
ENDMDL
MODEL 3
REMARK VINA RESULT:      -9.1      2.368      3.435
REMARK  5 active torsions:
REMARK  status: ('A' for Active; 'I' for Inactive)
REMARK    1  A    between atoms: O1_2  and  C2_3 
REMARK    2  A    between atoms: C7_8  and  N1_9 
REMARK       I    between atoms: N1_9  and  C8_10 
REMARK    3  A    between atoms: C8_10  and  C9_12 
REMARK    4  A    between atoms: C10_13  and  C11_14 
REMARK    5  A    between atoms: C11_14  and  N2_15 
ROOT
HETATM    1  C2  UNL     1      26.218   1.714  52.331  1.00  0.00     0.094 A 
HETATM    2  C3  UNL     1      25.633   0.685  53.065  1.00  0.00     0.051 A 
HETATM    3  C4  UNL     1      24.279   0.619  53.341  1.00  0.00     0.114 A 
HETATM    4  C5  UNL     1      23.749   1.669  52.777  1.00  0.00    -0.026 A 
HETATM    5  C6  UNL     1      24.089   2.691  52.093  1.00  0.00     0.039 A 
HETATM    6  C7  UNL     1      25.437   2.734  51.839  1.00  0.00     0.068 A 
HETATM    7  C16 UNL     1      22.762   0.968  53.109  1.00  0.00     0.076 A 
HETATM    8  C17 UNL     1      22.552  -0.116  52.279  1.00  0.00     0.047 A 
HETATM    9  C18 UNL     1      22.247   0.835  51.503  1.00  0.00     0.167 A 
HETATM   10  F1  UNL     1      22.795   1.220  50.368  1.00  0.00    -0.234 F 
HETATM   11  C19 UNL     1      21.021   1.439  52.166  1.00  0.00     0.050 C 
HETATM   12 CL1  UNL     1      20.446   2.792  51.254  1.00  0.00    -0.086 Cl
HETATM   13  C20 UNL     1      20.475   0.956  53.306  1.00  0.00    -0.000 C 
HETATM   14  C21 UNL     1      20.431   0.008  54.430  1.00  0.00     0.057 C 
HETATM   15  C22 UNL     1      21.600  -0.810  54.807  1.00  0.00    -0.004 C 
HETATM   16  C23 UNL     1      22.906  -0.931  54.660  1.00  0.00     0.108 C 
HETATM   17  N3  UNL     1      24.189  -0.495  54.121  1.00  0.00    -0.281 NA
ENDROOT
BRANCH   6  18
HETATM   18  N1  UNL     1      25.963   3.813  51.091  1.00  0.00    -0.321 N 
HETATM   19  C8  UNL     1      25.895   4.181  49.758  1.00  0.00     0.245 C 
HETATM   20  O2  UNL     1      25.226   3.401  49.036  1.00  0.00    -0.268 OA
HETATM   21  H6  UNL     1      26.523   4.481  51.658  1.00  0.00     0.169 HD
BRANCH  19  22
HETATM   22  C9  UNL     1      26.516   5.351  49.163  1.00  0.00     0.072 C 
HETATM   23  C10 UNL     1      26.432   6.673  49.339  1.00  0.00     0.008 C 
BRANCH  23  24
HETATM   24  C11 UNL     1      25.808   7.780  50.087  1.00  0.00     0.300 C 
BRANCH  24  25
HETATM   25  N2  UNL     1      24.360   7.639  50.141  1.00  0.00     0.096 N 
HETATM   26  C12 UNL     1      23.921   7.193  48.836  1.00  0.00     0.299 C 
HETATM   27  C13 UNL     1      22.569   6.558  48.822  1.00  0.00     0.198 C 
HETATM   28  O3  UNL     1      22.586   5.516  49.768  1.00  0.00    -0.388 OA
HETATM   29  C14 UNL     1      22.615   6.144  51.006  1.00  0.00     0.198 C 
HETATM   30  C15 UNL     1      23.976   6.780  51.213  1.00  0.00     0.299 C 
ENDBRANCH  24  25
ENDBRANCH  23  24
ENDBRANCH  19  22
ENDBRANCH   6  18
BRANCH   1  31
HETATM   31  O1  UNL     1      27.605   1.787  52.046  1.00  0.00    -0.354 OA
HETATM   32  C1  UNL     1      28.504   2.122  53.099  1.00  0.00     0.210 C 
ENDBRANCH   1  31
TORSDOF 5
ENDMDL
MODEL 4
REMARK VINA RESULT:      -9.0      5.065      9.603
REMARK  5 active torsions:
REMARK  status: ('A' for Active; 'I' for Inactive)
REMARK    1  A    between atoms: O1_2  and  C2_3 
REMARK    2  A    between atoms: C7_8  and  N1_9 
REMARK       I    between atoms: N1_9  and  C8_10 
REMARK    3  A    between atoms: C8_10  and  C9_12 
REMARK    4  A    between atoms: C10_13  and  C11_14 
REMARK    5  A    between atoms: C11_14  and  N2_15 
ROOT
HETATM    1  C2  UNL     1      21.079   0.196  53.371  1.00  0.00     0.094 A 
HETATM    2  C3  UNL     1      22.272  -0.269  53.919  1.00  0.00     0.051 A 
HETATM    3  C4  UNL     1      23.516  -0.003  53.376  1.00  0.00     0.114 A 
HETATM    4  C5  UNL     1      23.294   0.735  52.323  1.00  0.00    -0.026 A 
HETATM    5  C6  UNL     1      22.325   1.247  51.672  1.00  0.00     0.039 A 
HETATM    6  C7  UNL     1      21.103   0.964  52.230  1.00  0.00     0.068 A 
HETATM    7  C16 UNL     1      24.537   0.799  52.487  1.00  0.00     0.076 A 
HETATM    8  C17 UNL     1      24.914   1.633  53.522  1.00  0.00     0.047 A 
HETATM    9  C18 UNL     1      24.478   2.478  52.688  1.00  0.00     0.167 A 
HETATM   10  F1  UNL     1      23.467   3.320  52.774  1.00  0.00    -0.234 F 
HETATM   11  C19 UNL     1      25.449   2.345  51.527  1.00  0.00     0.050 C 
HETATM   12 CL1  UNL     1      25.011   3.425  50.248  1.00  0.00    -0.086 Cl
HETATM   13  C20 UNL     1      26.503   1.498  51.529  1.00  0.00    -0.000 C 
HETATM   14  C21 UNL     1      27.344   0.466  52.155  1.00  0.00     0.057 C 
HETATM   15  C22 UNL     1      26.870  -0.342  53.295  1.00  0.00    -0.004 C 
HETATM   16  C23 UNL     1      25.792  -0.711  53.962  1.00  0.00     0.108 C 
HETATM   17  N3  UNL     1      24.353  -0.702  54.193  1.00  0.00    -0.281 NA
ENDROOT
BRANCH   6  18
HETATM   18  N1  UNL     1      19.932   1.465  51.615  1.00  0.00    -0.321 N 
HETATM   19  C8  UNL     1      19.230   2.654  51.711  1.00  0.00     0.245 C 
HETATM   20  O2  UNL     1      19.722   3.485  52.514  1.00  0.00    -0.268 OA
HETATM   21  H6  UNL     1      19.497   0.802  50.942  1.00  0.00     0.169 HD
BRANCH  19  22
HETATM   22  C9  UNL     1      18.020   2.993  50.984  1.00  0.00     0.072 C 
HETATM   23  C10 UNL     1      16.903   3.676  51.250  1.00  0.00     0.008 C 
BRANCH  23  24
HETATM   24  C11 UNL     1      16.142   4.458  52.242  1.00  0.00     0.300 C 
BRANCH  24  25
HETATM   25  N2  UNL     1      14.876   3.819  52.570  1.00  0.00     0.096 N 
HETATM   26  C12 UNL     1      14.342   4.494  53.735  1.00  0.00     0.299 C 
HETATM   27  C13 UNL     1      12.874   4.305  53.940  1.00  0.00     0.198 C 
HETATM   28  O3  UNL     1      12.232   4.697  52.750  1.00  0.00    -0.388 OA
HETATM   29  C14 UNL     1      12.540   3.710  51.824  1.00  0.00     0.198 C 
HETATM   30  C15 UNL     1      14.003   3.819  51.443  1.00  0.00     0.299 C 
ENDBRANCH  24  25
ENDBRANCH  23  24
ENDBRANCH  19  22
ENDBRANCH   6  18
BRANCH   1  31
HETATM   31  O1  UNL     1      19.801  -0.074  53.923  1.00  0.00    -0.354 OA
HETATM   32  C1  UNL     1      19.179  -1.322  53.633  1.00  0.00     0.210 C 
ENDBRANCH   1  31
TORSDOF 5
ENDMDL
MODEL 5
REMARK VINA RESULT:      -9.0      2.927      7.938
REMARK  5 active torsions:
REMARK  status: ('A' for Active; 'I' for Inactive)
REMARK    1  A    between atoms: O1_2  and  C2_3 
REMARK    2  A    between atoms: C7_8  and  N1_9 
REMARK       I    between atoms: N1_9  and  C8_10 
REMARK    3  A    between atoms: C8_10  and  C9_12 
REMARK    4  A    between atoms: C10_13  and  C11_14 
REMARK    5  A    between atoms: C11_14  and  N2_15 
ROOT
HETATM    1  C2  UNL     1      26.066   3.610  50.048  1.00  0.00     0.094 A 
HETATM    2  C3  UNL     1      26.683   4.657  49.368  1.00  0.00     0.051 A 
HETATM    3  C4  UNL     1      26.019   5.801  48.963  1.00  0.00     0.114 A 
HETATM    4  C5  UNL     1      24.784   5.655  49.359  1.00  0.00    -0.026 A 
HETATM    5  C6  UNL     1      24.043   4.812  49.965  1.00  0.00     0.039 A 
HETATM    6  C7  UNL     1      24.726   3.686  50.350  1.00  0.00     0.068 A 
HETATM    7  C16 UNL     1      24.852   6.856  49.002  1.00  0.00     0.076 A 
HETATM    8  C17 UNL     1      25.500   7.667  49.914  1.00  0.00     0.047 A 
HETATM    9  C18 UNL     1      24.443   7.396  50.552  1.00  0.00     0.167 A 
HETATM   10  F1  UNL     1      24.273   6.755  51.692  1.00  0.00    -0.234 F 
HETATM   11  C19 UNL     1      23.358   8.045  49.708  1.00  0.00     0.050 C 
HETATM   12 CL1  UNL     1      21.801   7.772  50.412  1.00  0.00    -0.086 Cl
HETATM   13  C20 UNL     1      23.610   8.739  48.575  1.00  0.00    -0.000 C 
HETATM   14  C21 UNL     1      24.520   9.286  47.557  1.00  0.00     0.057 C 
HETATM   15  C22 UNL     1      25.896   8.780  47.387  1.00  0.00    -0.004 C 
HETATM   16  C23 UNL     1      26.704   7.778  47.679  1.00  0.00     0.108 C 
HETATM   17  N3  UNL     1      26.989   6.488  48.298  1.00  0.00    -0.281 NA
ENDROOT
BRANCH   6  18
HETATM   18  N1  UNL     1      24.032   2.659  51.032  1.00  0.00    -0.321 N 
HETATM   19  C8  UNL     1      23.728   2.425  52.362  1.00  0.00     0.245 C 
HETATM   20  O2  UNL     1      24.149   3.303  53.154  1.00  0.00    -0.268 OA
HETATM   21  H6  UNL     1      23.668   1.913  50.406  1.00  0.00     0.169 HD
BRANCH  19  22
HETATM   22  C9  UNL     1      22.989   1.288  52.882  1.00  0.00     0.072 C 
HETATM   23  C10 UNL     1      23.299   0.160  53.527  1.00  0.00     0.008 C 
BRANCH  23  24
HETATM   24  C11 UNL     1      24.367  -0.675  54.109  1.00  0.00     0.300 C 
BRANCH  24  25
HETATM   25  N2  UNL     1      25.687  -0.214  53.703  1.00  0.00     0.096 N 
HETATM   26  C12 UNL     1      26.395   0.177  54.904  1.00  0.00     0.299 C 
HETATM   27  C13 UNL     1      27.880   0.233  54.756  1.00  0.00     0.198 C 
HETATM   28  O3  UNL     1      28.300  -1.020  54.269  1.00  0.00    -0.388 OA
HETATM   29  C14 UNL     1      27.864  -1.066  52.952  1.00  0.00     0.198 C 
HETATM   30  C15 UNL     1      26.355  -1.209  52.929  1.00  0.00     0.299 C 
ENDBRANCH  24  25
ENDBRANCH  23  24
ENDBRANCH  19  22
ENDBRANCH   6  18
BRANCH   1  31
HETATM   31  O1  UNL     1      26.742   2.435  50.464  1.00  0.00    -0.354 OA
HETATM   32  C1  UNL     1      27.271   2.380  51.785  1.00  0.00     0.210 C 
ENDBRANCH   1  31
TORSDOF 5
ENDMDL
MODEL 6
REMARK VINA RESULT:      -8.9      2.415      3.689
REMARK  5 active torsions:
REMARK  status: ('A' for Active; 'I' for Inactive)
REMARK    1  A    between atoms: O1_2  and  C2_3 
REMARK    2  A    between atoms: C7_8  and  N1_9 
REMARK       I    between atoms: N1_9  and  C8_10 
REMARK    3  A    between atoms: C8_10  and  C9_12 
REMARK    4  A    between atoms: C10_13  and  C11_14 
REMARK    5  A    between atoms: C11_14  and  N2_15 
ROOT
HETATM    1  C2  UNL     1      23.356   3.803  49.066  1.00  0.00     0.094 A 
HETATM    2  C3  UNL     1      22.455   2.895  49.614  1.00  0.00     0.051 A 
HETATM    3  C4  UNL     1      22.791   1.988  50.602  1.00  0.00     0.114 A 
HETATM    4  C5  UNL     1      24.052   2.198  50.864  1.00  0.00    -0.026 A 
HETATM    5  C6  UNL     1      25.019   2.942  50.493  1.00  0.00     0.039 A 
HETATM    6  C7  UNL     1      24.659   3.828  49.509  1.00  0.00     0.068 A 
HETATM    7  C16 UNL     1      23.670   1.435  51.785  1.00  0.00     0.076 A 
HETATM    8  C17 UNL     1      22.920   2.072  52.754  1.00  0.00     0.047 A 
HETATM    9  C18 UNL     1      24.058   2.579  52.968  1.00  0.00     0.167 A 
HETATM   10  F1  UNL     1      24.465   3.831  52.884  1.00  0.00    -0.234 F 
HETATM   11  C19 UNL     1      24.886   1.386  53.417  1.00  0.00     0.050 C 
HETATM   12 CL1  UNL     1      26.512   1.872  53.750  1.00  0.00    -0.086 Cl
HETATM   13  C20 UNL     1      24.386   0.135  53.536  1.00  0.00    -0.000 C 
HETATM   14  C21 UNL     1      23.295  -0.847  53.444  1.00  0.00     0.057 C 
HETATM   15  C22 UNL     1      22.072  -0.583  52.662  1.00  0.00    -0.004 C 
HETATM   16  C23 UNL     1      21.553   0.191  51.728  1.00  0.00     0.108 C 
HETATM   17  N3  UNL     1      21.635   1.285  50.767  1.00  0.00    -0.281 NA
ENDROOT
BRANCH   6  18
HETATM   18  N1  UNL     1      25.630   4.718  48.994  1.00  0.00    -0.321 N 
HETATM   19  C8  UNL     1      26.046   5.991  49.343  1.00  0.00     0.245 C 
HETATM   20  O2  UNL     1      25.445   6.483  50.330  1.00  0.00    -0.268 OA
HETATM   21  H6  UNL     1      26.149   4.343  48.174  1.00  0.00     0.169 HD
BRANCH  19  22
HETATM   22  C9  UNL     1      27.082   6.763  48.679  1.00  0.00     0.072 C 
HETATM   23  C10 UNL     1      28.325   6.527  48.249  1.00  0.00     0.008 C 
BRANCH  23  24
HETATM   24  C11 UNL     1      29.418   5.546  48.115  1.00  0.00     0.300 C 
BRANCH  24  25
HETATM   25  N2  UNL     1      30.617   5.982  48.816  1.00  0.00     0.096 N 
HETATM   26  C12 UNL     1      31.736   5.269  48.239  1.00  0.00     0.299 C 
HETATM   27  C13 UNL     1      33.067   5.900  48.490  1.00  0.00     0.198 C 
HETATM   28  O3  UNL     1      32.989   7.233  48.041  1.00  0.00    -0.388 OA
HETATM   29  C14 UNL     1      32.168   7.880  48.953  1.00  0.00     0.198 C 
HETATM   30  C15 UNL     1      30.741   7.402  48.770  1.00  0.00     0.299 C 
ENDBRANCH  24  25
ENDBRANCH  23  24
ENDBRANCH  19  22
ENDBRANCH   6  18
BRANCH   1  31
HETATM   31  O1  UNL     1      23.017   4.735  48.051  1.00  0.00    -0.354 OA
HETATM   32  C1  UNL     1      22.152   4.317  46.999  1.00  0.00     0.210 C 
ENDBRANCH   1  31
TORSDOF 5
ENDMDL
MODEL 7
REMARK VINA RESULT:      -8.5      4.378      6.057
REMARK  5 active torsions:
REMARK  status: ('A' for Active; 'I' for Inactive)
REMARK    1  A    between atoms: O1_2  and  C2_3 
REMARK    2  A    between atoms: C7_8  and  N1_9 
REMARK       I    between atoms: N1_9  and  C8_10 
REMARK    3  A    between atoms: C8_10  and  C9_12 
REMARK    4  A    between atoms: C10_13  and  C11_14 
REMARK    5  A    between atoms: C11_14  and  N2_15 
ROOT
HETATM    1  C2  UNL     1      21.014   1.635  52.120  1.00  0.00     0.094 A 
HETATM    2  C3  UNL     1      21.814   0.787  52.881  1.00  0.00     0.051 A 
HETATM    3  C4  UNL     1      23.174   0.634  52.679  1.00  0.00     0.114 A 
HETATM    4  C5  UNL     1      23.477   1.426  51.688  1.00  0.00    -0.026 A 
HETATM    5  C6  UNL     1      22.922   2.247  50.884  1.00  0.00     0.039 A 
HETATM    6  C7  UNL     1      21.574   2.376  51.104  1.00  0.00     0.068 A 
HETATM    7  C16 UNL     1      24.589   1.069  52.147  1.00  0.00     0.076 A 
HETATM    8  C17 UNL     1      24.930   1.707  53.324  1.00  0.00     0.047 A 
HETATM    9  C18 UNL     1      25.016   2.666  52.505  1.00  0.00     0.167 A 
HETATM   10  F1  UNL     1      24.337   3.795  52.438  1.00  0.00    -0.234 F 
HETATM   11  C19 UNL     1      26.159   2.243  51.598  1.00  0.00     0.050 C 
HETATM   12 CL1  UNL     1      26.432   3.434  50.374  1.00  0.00    -0.086 Cl
HETATM   13  C20 UNL     1      26.852   1.092  51.760  1.00  0.00    -0.000 C 
HETATM   14  C21 UNL     1      27.131  -0.175  52.454  1.00  0.00     0.057 C 
HETATM   15  C22 UNL     1      26.148  -0.803  53.357  1.00  0.00    -0.004 C 
HETATM   16  C23 UNL     1      24.876  -0.805  53.708  1.00  0.00     0.108 C 
HETATM   17  N3  UNL     1      23.505  -0.322  53.592  1.00  0.00    -0.281 NA
ENDROOT
BRANCH   6  18
HETATM   18  N1  UNL     1      20.823   3.252  50.287  1.00  0.00    -0.321 N 
HETATM   19  C8  UNL     1      20.202   3.121  49.057  1.00  0.00     0.245 C 
HETATM   20  O2  UNL     1      20.316   1.986  48.534  1.00  0.00    -0.268 OA
HETATM   21  H6  UNL     1      20.707   4.204  50.689  1.00  0.00     0.169 HD
BRANCH  19  22
HETATM   22  C9  UNL     1      19.460   4.158  48.360  1.00  0.00     0.072 C 
HETATM   23  C10 UNL     1      19.774   5.247  47.652  1.00  0.00     0.008 C 
BRANCH  23  24
HETATM   24  C11 UNL     1      20.849   6.103  47.116  1.00  0.00     0.300 C 
BRANCH  24  25
HETATM   25  N2  UNL     1      21.686   6.639  48.180  1.00  0.00     0.096 N 
HETATM   26  C12 UNL     1      20.815   6.967  49.289  1.00  0.00     0.299 C 
HETATM   27  C13 UNL     1      21.510   7.087  50.607  1.00  0.00     0.198 C 
HETATM   28  O3  UNL     1      22.219   5.888  50.816  1.00  0.00    -0.388 OA
HETATM   29  C14 UNL     1      23.272   5.922  49.911  1.00  0.00     0.198 C 
HETATM   30  C15 UNL     1      22.733   5.728  48.508  1.00  0.00     0.299 C 
ENDBRANCH  24  25
ENDBRANCH  23  24
ENDBRANCH  19  22
ENDBRANCH   6  18
BRANCH   1  31
HETATM   31  O1  UNL     1      19.620   1.795  52.323  1.00  0.00    -0.354 OA
HETATM   32  C1  UNL     1      18.738   0.779  51.853  1.00  0.00     0.210 C 
ENDBRANCH   1  31
TORSDOF 5
ENDMDL
MODEL 8
REMARK VINA RESULT:      -8.3      2.827      8.090
REMARK  5 active torsions:
REMARK  status: ('A' for Active; 'I' for Inactive)
REMARK    1  A    between atoms: O1_2  and  C2_3 
REMARK    2  A    between atoms: C7_8  and  N1_9 
REMARK       I    between atoms: N1_9  and  C8_10 
REMARK    3  A    between atoms: C8_10  and  C9_12 
REMARK    4  A    between atoms: C10_13  and  C11_14 
REMARK    5  A    between atoms: C11_14  and  N2_15 
ROOT
HETATM    1  C2  UNL     1      26.118   2.606  50.680  1.00  0.00     0.094 A 
HETATM    2  C3  UNL     1      26.791   3.635  50.027  1.00  0.00     0.051 A 
HETATM    3  C4  UNL     1      26.153   4.705  49.427  1.00  0.00     0.114 A 
HETATM    4  C5  UNL     1      24.878   4.515  49.626  1.00  0.00    -0.026 A 
HETATM    5  C6  UNL     1      24.085   3.677  50.169  1.00  0.00     0.039 A 
HETATM    6  C7  UNL     1      24.744   2.624  50.751  1.00  0.00     0.068 A 
HETATM    7  C16 UNL     1      24.949   5.689  49.187  1.00  0.00     0.076 A 
HETATM    8  C17 UNL     1      25.397   6.601  50.123  1.00  0.00     0.047 A 
HETATM    9  C18 UNL     1      24.261   6.316  50.599  1.00  0.00     0.167 A 
HETATM   10  F1  UNL     1      23.932   5.752  51.745  1.00  0.00    -0.234 F 
HETATM   11  C19 UNL     1      23.305   6.837  49.539  1.00  0.00     0.050 C 
HETATM   12 CL1  UNL     1      21.666   6.525  49.999  1.00  0.00    -0.086 Cl
HETATM   13  C20 UNL     1      23.712   7.459  48.409  1.00  0.00    -0.000 C 
HETATM   14  C21 UNL     1      24.754   7.983  47.513  1.00  0.00     0.057 C 
HETATM   15  C22 UNL     1      26.160   7.547  47.613  1.00  0.00    -0.004 C 
HETATM   16  C23 UNL     1      26.953   6.619  48.114  1.00  0.00     0.108 C 
HETATM   17  N3  UNL     1      27.189   5.397  48.875  1.00  0.00    -0.281 NA
ENDROOT
BRANCH   6  18
HETATM   18  N1  UNL     1      23.993   1.611  51.393  1.00  0.00    -0.321 N 
HETATM   19  C8  UNL     1      23.703   1.322  52.715  1.00  0.00     0.245 C 
HETATM   20  O2  UNL     1      24.204   2.121  53.544  1.00  0.00    -0.268 OA
HETATM   21  H6  UNL     1      23.562   0.930  50.735  1.00  0.00     0.169 HD
BRANCH  19  22
HETATM   22  C9  UNL     1      22.896   0.212  53.189  1.00  0.00     0.072 C 
HETATM   23  C10 UNL     1      21.618   0.037  53.537  1.00  0.00     0.008 C 
BRANCH  23  24
HETATM   24  C11 UNL     1      20.288   0.654  53.697  1.00  0.00     0.300 C 
BRANCH  24  25
HETATM   25  N2  UNL     1      19.815   1.235  52.449  1.00  0.00     0.096 N 
HETATM   26  C12 UNL     1      20.363   2.572  52.362  1.00  0.00     0.299 C 
HETATM   27  C13 UNL     1      20.381   3.145  50.982  1.00  0.00     0.198 C 
HETATM   28  O3  UNL     1      21.064   2.229  50.158  1.00  0.00    -0.388 OA
HETATM   29  C14 UNL     1      20.208   1.145  50.027  1.00  0.00     0.198 C 
HETATM   30  C15 UNL     1      20.143   0.396  51.343  1.00  0.00     0.299 C 
ENDBRANCH  24  25
ENDBRANCH  23  24
ENDBRANCH  19  22
ENDBRANCH   6  18
BRANCH   1  31
HETATM   31  O1  UNL     1      26.767   1.506  51.296  1.00  0.00    -0.354 OA
HETATM   32  C1  UNL     1      27.474   1.722  52.515  1.00  0.00     0.210 C 
ENDBRANCH   1  31
TORSDOF 5
ENDMDL
MODEL 9
REMARK VINA RESULT:      -8.3      3.471      6.207
REMARK  5 active torsions:
REMARK  status: ('A' for Active; 'I' for Inactive)
REMARK    1  A    between atoms: O1_2  and  C2_3 
REMARK    2  A    between atoms: C7_8  and  N1_9 
REMARK       I    between atoms: N1_9  and  C8_10 
REMARK    3  A    between atoms: C8_10  and  C9_12 
REMARK    4  A    between atoms: C10_13  and  C11_14 
REMARK    5  A    between atoms: C11_14  and  N2_15 
ROOT
HETATM    1  C2  UNL     1      24.398   2.850  51.031  1.00  0.00     0.094 A 
HETATM    2  C3  UNL     1      25.080   1.898  51.784  1.00  0.00     0.051 A 
HETATM    3  C4  UNL     1      24.477   1.112  52.750  1.00  0.00     0.114 A 
HETATM    4  C5  UNL     1      23.220   1.462  52.758  1.00  0.00    -0.026 A 
HETATM    5  C6  UNL     1      22.426   2.276  52.182  1.00  0.00     0.039 A 
HETATM    6  C7  UNL     1      23.051   3.045  51.233  1.00  0.00     0.068 A 
HETATM    7  C16 UNL     1      23.255   0.422  53.461  1.00  0.00     0.076 A 
HETATM    8  C17 UNL     1      23.371  -0.739  52.721  1.00  0.00     0.047 A 
HETATM    9  C18 UNL     1      22.196  -0.384  52.416  1.00  0.00     0.167 A 
HETATM   10  F1  UNL     1      21.682  -0.046  51.250  1.00  0.00    -0.234 F 
HETATM   11  C19 UNL     1      21.454  -0.485  53.738  1.00  0.00     0.050 C 
HETATM   12 CL1  UNL     1      19.800  -0.016  53.538  1.00  0.00    -0.086 Cl
HETATM   13  C20 UNL     1      22.033  -0.895  54.889  1.00  0.00    -0.000 C 
HETATM   14  C21 UNL     1      23.185  -1.369  55.672  1.00  0.00     0.057 C 
HETATM   15  C22 UNL     1      24.572  -1.208  55.195  1.00  0.00    -0.004 C 
HETATM   16  C23 UNL     1      25.330  -0.561  54.330  1.00  0.00     0.108 C 
HETATM   17  N3  UNL     1      25.525   0.400  53.251  1.00  0.00    -0.281 NA
ENDROOT
BRANCH   6  18
HETATM   18  N1  UNL     1      22.295   3.998  50.511  1.00  0.00    -0.321 N 
HETATM   19  C8  UNL     1      21.842   5.276  50.790  1.00  0.00     0.245 C 
HETATM   20  O2  UNL     1      22.160   5.704  51.927  1.00  0.00    -0.268 OA
HETATM   21  H6  UNL     1      22.014   3.677  49.563  1.00  0.00     0.169 HD
BRANCH  19  22
HETATM   22  C9  UNL     1      21.061   6.118  49.902  1.00  0.00     0.072 C 
HETATM   23  C10 UNL     1      19.814   6.105  49.421  1.00  0.00     0.008 C 
BRANCH  23  24
HETATM   24  C11 UNL     1      18.513   5.412  49.386  1.00  0.00     0.300 C 
BRANCH  24  25
HETATM   25  N2  UNL     1      18.640   4.062  48.855  1.00  0.00     0.096 N 
HETATM   26  C12 UNL     1      19.656   4.099  47.824  1.00  0.00     0.299 C 
HETATM   27  C13 UNL     1      20.249   2.768  47.494  1.00  0.00     0.198 C 
HETATM   28  O3  UNL     1      20.724   2.211  48.697  1.00  0.00    -0.388 OA
HETATM   29  C14 UNL     1      19.587   1.868  49.416  1.00  0.00     0.198 C 
HETATM   30  C15 UNL     1      18.902   3.130  49.902  1.00  0.00     0.299 C 
ENDBRANCH  24  25
ENDBRANCH  23  24
ENDBRANCH  19  22
ENDBRANCH   6  18
BRANCH   1  31
HETATM   31  O1  UNL     1      25.012   3.658  50.041  1.00  0.00    -0.354 OA
HETATM   32  C1  UNL     1      26.410   3.515  49.810  1.00  0.00     0.210 C 
ENDBRANCH   1  31
TORSDOF 5
ENDMDL
