MODEL 1
REMARK VINA RESULT:      -8.1      0.000      0.000
REMARK  9 active torsions:
REMARK  status: ('A' for Active; 'I' for Inactive)
REMARK    1  A    between atoms: C2_2  and  C3_3 
REMARK    2  A    between atoms: C2_2  and  C6_7 
REMARK    3  A    between atoms: C3_3  and  N1_4 
REMARK    4  A    between atoms: C10_11  and  O1_12 
REMARK    5  A    between atoms: O1_12  and  S1_13 
REMARK    6  A    between atoms: S1_13  and  C11_16 
REMARK    7  A    between atoms: C14_19  and  C15_20 
REMARK    8  A    between atoms: C15_20  and  O5_22 
REMARK    9  A    between atoms: C16_23  and  O6_24 
ROOT
HETATM    1  S1  UNL     1      22.973   3.237  50.264  1.00  0.00     0.303 S 
HETATM    2  O2  UNL     1      22.672   1.952  49.547  1.00  0.00    -0.193 OA
HETATM    3  O3  UNL     1      21.885   4.241  49.983  1.00  0.00    -0.193 OA
ENDROOT
BRANCH   1   4
HETATM    4  O1  UNL     1      23.048   2.952  51.925  1.00  0.00    -0.229 OA
BRANCH   4   5
HETATM    5  C10 UNL     1      23.464   1.758  52.491  1.00  0.00     0.090 A 
HETATM    6  C9  UNL     1      22.408   1.003  52.986  1.00  0.00     0.038 A 
HETATM    7  C8  UNL     1      22.661  -0.219  53.582  1.00  0.00     0.004 A 
HETATM    8  C7  UNL     1      23.971  -0.636  53.660  1.00  0.00     0.012 A 
HETATM    9  C6  UNL     1      25.028   0.103  53.174  1.00  0.00    -0.026 A 
HETATM   10  C18 UNL     1      24.766   1.319  52.580  1.00  0.00     0.050 A 
BRANCH   9  11
HETATM   11  C2  UNL     1      26.359  -0.424  53.303  1.00  0.00    -0.040 C 
HETATM   12  C1  UNL     1      26.690  -1.467  52.570  1.00  0.00     0.021 C 
BRANCH  11  13
HETATM   13  C3  UNL     1      27.349   0.149  54.213  1.00  0.00     0.154 C 
BRANCH  13  14
HETATM   14  N1  UNL     1      28.448   0.813  53.616  1.00  0.00    -0.417 N 
HETATM   15  C4  UNL     1      29.717   0.182  53.681  1.00  0.00     0.142 C 
HETATM   16  C5  UNL     1      28.430   2.235  53.609  1.00  0.00     0.142 C 
ENDBRANCH  13  14
ENDBRANCH  11  13
ENDBRANCH   9  11
ENDBRANCH   4   5
ENDBRANCH   1   4
BRANCH   1  17
HETATM   17  C11 UNL     1      24.484   3.951  49.736  1.00  0.00     0.089 A 
HETATM   18  C12 UNL     1      25.688   3.261  49.765  1.00  0.00     0.027 A 
HETATM   19  C13 UNL     1      26.848   3.901  49.328  1.00  0.00     0.022 A 
HETATM   20  C14 UNL     1      26.830   5.202  48.867  1.00  0.00     0.070 A 
HETATM   21  C16 UNL     1      25.622   5.900  48.835  1.00  0.00     0.084 A 
HETATM   22  C17 UNL     1      24.479   5.261  49.269  1.00  0.00     0.063 A 
BRANCH  20  23
HETATM   23  C15 UNL     1      28.087   5.781  48.435  1.00  0.00     0.178 C 
HETATM   24  O4  UNL     1      28.243   6.653  47.532  1.00  0.00    -0.646 OA
BRANCH  23  25
HETATM   25  O5  UNL     1      29.313   5.429  48.990  1.00  0.00    -0.773 OA
HETATM   26  H16 UNL     1      29.538   4.475  49.296  1.00  0.00     0.167 HD
ENDBRANCH  23  25
ENDBRANCH  20  23
BRANCH  21  27
HETATM   27  O6  UNL     1      25.612   7.209  48.371  1.00  0.00    -0.360 OA
HETATM   28  H17 UNL     1      25.529   7.956  49.049  1.00  0.00     0.217 HD
ENDBRANCH  21  27
ENDBRANCH   1  17
TORSDOF 9
ENDMDL
MODEL 2
REMARK VINA RESULT:      -7.8      1.688      2.132
REMARK  9 active torsions:
REMARK  status: ('A' for Active; 'I' for Inactive)
REMARK    1  A    between atoms: C2_2  and  C3_3 
REMARK    2  A    between atoms: C2_2  and  C6_7 
REMARK    3  A    between atoms: C3_3  and  N1_4 
REMARK    4  A    between atoms: C10_11  and  O1_12 
REMARK    5  A    between atoms: O1_12  and  S1_13 
REMARK    6  A    between atoms: S1_13  and  C11_16 
REMARK    7  A    between atoms: C14_19  and  C15_20 
REMARK    8  A    between atoms: C15_20  and  O5_22 
REMARK    9  A    between atoms: C16_23  and  O6_24 
ROOT
HETATM    1  S1  UNL     1      21.773   2.668  50.525  1.00  0.00     0.303 S 
HETATM    2  O2  UNL     1      21.985   1.525  49.575  1.00  0.00    -0.193 OA
HETATM    3  O3  UNL     1      20.408   3.269  50.297  1.00  0.00    -0.193 OA
ENDROOT
BRANCH   1   4
HETATM    4  O1  UNL     1      21.872   2.109  52.113  1.00  0.00    -0.229 OA
BRANCH   4   5
HETATM    5  C10 UNL     1      22.861   1.256  52.576  1.00  0.00     0.090 A 
HETATM    6  C9  UNL     1      22.378   0.310  53.470  1.00  0.00     0.038 A 
HETATM    7  C8  UNL     1      23.245  -0.615  54.023  1.00  0.00     0.004 A 
HETATM    8  C7  UNL     1      24.570  -0.554  53.653  1.00  0.00     0.012 A 
HETATM    9  C6  UNL     1      25.063   0.380  52.767  1.00  0.00    -0.026 A 
HETATM   10  C18 UNL     1      24.191   1.298  52.221  1.00  0.00     0.050 A 
BRANCH   9  11
HETATM   11  C2  UNL     1      26.464   0.356  52.446  1.00  0.00    -0.040 C 
HETATM   12  C1  UNL     1      26.968   1.376  51.782  1.00  0.00     0.021 C 
BRANCH  11  13
HETATM   13  C3  UNL     1      27.341  -0.750  52.825  1.00  0.00     0.154 C 
BRANCH  13  14
HETATM   14  N1  UNL     1      28.478  -0.420  53.601  1.00  0.00    -0.417 N 
HETATM   15  C4  UNL     1      29.634  -1.230  53.460  1.00  0.00     0.142 C 
HETATM   16  C5  UNL     1      28.253   0.174  54.874  1.00  0.00     0.142 C 
ENDBRANCH  13  14
ENDBRANCH  11  13
ENDBRANCH   9  11
ENDBRANCH   4   5
ENDBRANCH   1   4
BRANCH   1  17
HETATM   17  C11 UNL     1      22.946   3.949  50.292  1.00  0.00     0.089 A 
HETATM   18  C12 UNL     1      23.674   4.092  49.120  1.00  0.00     0.027 A 
HETATM   19  C13 UNL     1      24.591   5.138  49.013  1.00  0.00     0.022 A 
HETATM   20  C14 UNL     1      24.794   6.034  50.043  1.00  0.00     0.070 A 
HETATM   21  C16 UNL     1      24.065   5.894  51.225  1.00  0.00     0.084 A 
HETATM   22  C17 UNL     1      23.160   4.857  51.323  1.00  0.00     0.063 A 
BRANCH  20  23
HETATM   23  C15 UNL     1      25.769   7.087  49.838  1.00  0.00     0.178 C 
HETATM   24  O4  UNL     1      26.137   7.567  48.728  1.00  0.00    -0.646 OA
BRANCH  23  25
HETATM   25  O5  UNL     1      26.436   7.714  50.885  1.00  0.00    -0.773 OA
HETATM   26  H16 UNL     1      26.710   8.704  50.865  1.00  0.00     0.167 HD
ENDBRANCH  23  25
ENDBRANCH  20  23
BRANCH  21  27
HETATM   27  O6  UNL     1      24.276   6.799  52.258  1.00  0.00    -0.360 OA
HETATM   28  H17 UNL     1      23.508   7.400  52.530  1.00  0.00     0.217 HD
ENDBRANCH  21  27
ENDBRANCH   1  17
TORSDOF 9
ENDMDL
MODEL 3
REMARK VINA RESULT:      -7.8      1.466      2.348
REMARK  9 active torsions:
REMARK  status: ('A' for Active; 'I' for Inactive)
REMARK    1  A    between atoms: C2_2  and  C3_3 
REMARK    2  A    between atoms: C2_2  and  C6_7 
REMARK    3  A    between atoms: C3_3  and  N1_4 
REMARK    4  A    between atoms: C10_11  and  O1_12 
REMARK    5  A    between atoms: O1_12  and  S1_13 
REMARK    6  A    between atoms: S1_13  and  C11_16 
REMARK    7  A    between atoms: C14_19  and  C15_20 
REMARK    8  A    between atoms: C15_20  and  O5_22 
REMARK    9  A    between atoms: C16_23  and  O6_24 
ROOT
HETATM    1  S1  UNL     1      22.021   3.103  50.844  1.00  0.00     0.303 S 
HETATM    2  O2  UNL     1      20.861   3.546  50.001  1.00  0.00    -0.193 OA
HETATM    3  O3  UNL     1      21.828   3.579  52.262  1.00  0.00    -0.193 OA
ENDROOT
BRANCH   1   4
HETATM    4  O1  UNL     1      22.117   1.419  50.834  1.00  0.00    -0.229 OA
BRANCH   4   5
HETATM    5  C10 UNL     1      22.261   0.642  51.972  1.00  0.00     0.090 A 
HETATM    6  C9  UNL     1      21.055   0.127  52.426  1.00  0.00     0.038 A 
HETATM    7  C8  UNL     1      21.032  -0.671  53.556  1.00  0.00     0.004 A 
HETATM    8  C7  UNL     1      22.230  -0.920  54.188  1.00  0.00     0.012 A 
HETATM    9  C6  UNL     1      23.435  -0.415  53.748  1.00  0.00    -0.026 A 
HETATM   10  C18 UNL     1      23.446   0.379  52.621  1.00  0.00     0.050 A 
BRANCH   9  11
HETATM   11  C2  UNL     1      24.628  -0.738  54.480  1.00  0.00    -0.040 C 
HETATM   12  C1  UNL     1      24.502  -1.176  55.716  1.00  0.00     0.021 C 
BRANCH  11  13
HETATM   13  C3  UNL     1      25.967  -0.598  53.907  1.00  0.00     0.154 C 
BRANCH  13  14
HETATM   14  N1  UNL     1      26.768   0.450  54.420  1.00  0.00    -0.417 N 
HETATM   15  C4  UNL     1      26.485   1.771  53.988  1.00  0.00     0.142 C 
HETATM   16  C5  UNL     1      28.121   0.146  54.735  1.00  0.00     0.142 C 
ENDBRANCH  13  14
ENDBRANCH  11  13
ENDBRANCH   9  11
ENDBRANCH   4   5
ENDBRANCH   1   4
BRANCH   1  17
HETATM   17  C11 UNL     1      23.541   3.768  50.279  1.00  0.00     0.089 A 
HETATM   18  C12 UNL     1      23.610   4.763  49.314  1.00  0.00     0.027 A 
HETATM   19  C13 UNL     1      24.859   5.238  48.916  1.00  0.00     0.022 A 
HETATM   20  C14 UNL     1      26.030   4.746  49.457  1.00  0.00     0.070 A 
HETATM   21  C16 UNL     1      25.967   3.746  50.428  1.00  0.00     0.084 A 
HETATM   22  C17 UNL     1      24.727   3.280  50.816  1.00  0.00     0.063 A 
BRANCH  20  23
HETATM   23  C15 UNL     1      27.280   5.303  48.980  1.00  0.00     0.178 C 
HETATM   24  O4  UNL     1      28.229   4.668  48.437  1.00  0.00    -0.646 OA
BRANCH  23  25
HETATM   25  O5  UNL     1      27.588   6.657  49.068  1.00  0.00    -0.773 OA
HETATM   26  H16 UNL     1      27.493   7.308  48.280  1.00  0.00     0.167 HD
ENDBRANCH  23  25
ENDBRANCH  20  23
BRANCH  21  27
HETATM   27  O6  UNL     1      27.148   3.254  50.967  1.00  0.00    -0.360 OA
HETATM   28  H17 UNL     1      27.956   3.180  50.361  1.00  0.00     0.217 HD
ENDBRANCH  21  27
ENDBRANCH   1  17
TORSDOF 9
ENDMDL
MODEL 4
REMARK VINA RESULT:      -7.7      4.257      7.058
REMARK  9 active torsions:
REMARK  status: ('A' for Active; 'I' for Inactive)
REMARK    1  A    between atoms: C2_2  and  C3_3 
REMARK    2  A    between atoms: C2_2  and  C6_7 
REMARK    3  A    between atoms: C3_3  and  N1_4 
REMARK    4  A    between atoms: C10_11  and  O1_12 
REMARK    5  A    between atoms: O1_12  and  S1_13 
REMARK    6  A    between atoms: S1_13  and  C11_16 
REMARK    7  A    between atoms: C14_19  and  C15_20 
REMARK    8  A    between atoms: C15_20  and  O5_22 
REMARK    9  A    between atoms: C16_23  and  O6_24 
ROOT
HETATM    1  S1  UNL     1      24.162   1.732  52.178  1.00  0.00     0.303 S 
HETATM    2  O2  UNL     1      23.497   1.297  50.905  1.00  0.00    -0.193 OA
HETATM    3  O3  UNL     1      24.598   3.171  52.056  1.00  0.00    -0.193 OA
ENDROOT
BRANCH   1   4
HETATM    4  O1  UNL     1      23.075   1.591  53.461  1.00  0.00    -0.229 OA
BRANCH   4   5
HETATM    5  C10 UNL     1      22.112   0.600  53.557  1.00  0.00     0.090 A 
HETATM    6  C9  UNL     1      22.526  -0.475  54.333  1.00  0.00     0.038 A 
HETATM    7  C8  UNL     1      21.675  -1.548  54.526  1.00  0.00     0.004 A 
HETATM    8  C7  UNL     1      20.435  -1.499  53.927  1.00  0.00     0.012 A 
HETATM    9  C6  UNL     1      20.012  -0.439  53.155  1.00  0.00    -0.026 A 
HETATM   10  C18 UNL     1      20.867   0.626  52.969  1.00  0.00     0.050 A 
BRANCH   9  11
HETATM   11  C2  UNL     1      18.697  -0.486  52.577  1.00  0.00    -0.040 C 
HETATM   12  C1  UNL     1      17.784  -1.231  53.165  1.00  0.00     0.021 C 
BRANCH  11  13
HETATM   13  C3  UNL     1      18.340   0.258  51.370  1.00  0.00     0.154 C 
BRANCH  13  14
HETATM   14  N1  UNL     1      17.544   1.415  51.550  1.00  0.00    -0.417 N 
HETATM   15  C4  UNL     1      16.188   1.356  51.139  1.00  0.00     0.142 C 
HETATM   16  C5  UNL     1      18.193   2.677  51.465  1.00  0.00     0.142 C 
ENDBRANCH  13  14
ENDBRANCH  11  13
ENDBRANCH   9  11
ENDBRANCH   4   5
ENDBRANCH   1   4
BRANCH   1  17
HETATM   17  C11 UNL     1      25.595   0.787  52.533  1.00  0.00     0.089 A 
HETATM   18  C12 UNL     1      25.567  -0.594  52.657  1.00  0.00     0.027 A 
HETATM   19  C13 UNL     1      26.751  -1.274  52.943  1.00  0.00     0.022 A 
HETATM   20  C14 UNL     1      27.950  -0.610  53.104  1.00  0.00     0.070 A 
HETATM   21  C16 UNL     1      27.984   0.781  52.981  1.00  0.00     0.084 A 
HETATM   22  C17 UNL     1      26.808   1.447  52.699  1.00  0.00     0.063 A 
BRANCH  20  23
HETATM   23  C15 UNL     1      29.127  -1.403  53.399  1.00  0.00     0.178 C 
HETATM   24  O4  UNL     1      30.263  -0.966  53.743  1.00  0.00    -0.646 OA
BRANCH  23  25
HETATM   25  O5  UNL     1      29.138  -2.792  53.336  1.00  0.00    -0.773 OA
HETATM   26  H16 UNL     1      29.016  -3.316  52.461  1.00  0.00     0.167 HD
ENDBRANCH  23  25
ENDBRANCH  20  23
BRANCH  21  27
HETATM   27  O6  UNL     1      29.193   1.443  53.146  1.00  0.00    -0.360 OA
HETATM   28  H17 UNL     1      29.180   2.363  53.569  1.00  0.00     0.217 HD
ENDBRANCH  21  27
ENDBRANCH   1  17
TORSDOF 9
ENDMDL
MODEL 5
REMARK VINA RESULT:      -7.7      3.731      7.459
REMARK  9 active torsions:
REMARK  status: ('A' for Active; 'I' for Inactive)
REMARK    1  A    between atoms: C2_2  and  C3_3 
REMARK    2  A    between atoms: C2_2  and  C6_7 
REMARK    3  A    between atoms: C3_3  and  N1_4 
REMARK    4  A    between atoms: C10_11  and  O1_12 
REMARK    5  A    between atoms: O1_12  and  S1_13 
REMARK    6  A    between atoms: S1_13  and  C11_16 
REMARK    7  A    between atoms: C14_19  and  C15_20 
REMARK    8  A    between atoms: C15_20  and  O5_22 
REMARK    9  A    between atoms: C16_23  and  O6_24 
ROOT
HETATM    1  S1  UNL     1      24.340   1.905  52.694  1.00  0.00     0.303 S 
HETATM    2  O2  UNL     1      24.462   3.221  53.405  1.00  0.00    -0.193 OA
HETATM    3  O3  UNL     1      23.155   1.145  53.235  1.00  0.00    -0.193 OA
ENDROOT
BRANCH   1   4
HETATM    4  O1  UNL     1      24.118   2.174  51.043  1.00  0.00    -0.229 OA
BRANCH   4   5
HETATM    5  C10 UNL     1      24.733   3.192  50.332  1.00  0.00     0.090 A 
HETATM    6  C9  UNL     1      26.102   3.001  50.198  1.00  0.00     0.038 A 
HETATM    7  C8  UNL     1      26.859   3.933  49.512  1.00  0.00     0.004 A 
HETATM    8  C7  UNL     1      26.208   5.027  48.986  1.00  0.00     0.012 A 
HETATM    9  C6  UNL     1      24.851   5.229  49.112  1.00  0.00    -0.026 A 
HETATM   10  C18 UNL     1      24.104   4.294  49.797  1.00  0.00     0.050 A 
BRANCH   9  11
HETATM   11  C2  UNL     1      24.269   6.403  48.523  1.00  0.00    -0.040 C 
HETATM   12  C1  UNL     1      25.060   7.233  47.875  1.00  0.00     0.021 C 
BRANCH  11  13
HETATM   13  C3  UNL     1      22.842   6.708  48.618  1.00  0.00     0.154 C 
BRANCH  13  14
HETATM   14  N1  UNL     1      22.453   7.613  49.634  1.00  0.00    -0.417 N 
HETATM   15  C4  UNL     1      21.787   7.087  50.770  1.00  0.00     0.142 C 
HETATM   16  C5  UNL     1      22.115   8.937  49.240  1.00  0.00     0.142 C 
ENDBRANCH  13  14
ENDBRANCH  11  13
ENDBRANCH   9  11
ENDBRANCH   4   5
ENDBRANCH   1   4
BRANCH   1  17
HETATM   17  C11 UNL     1      25.752   0.893  52.926  1.00  0.00     0.089 A 
HETATM   18  C12 UNL     1      25.926  -0.312  52.261  1.00  0.00     0.027 A 
HETATM   19  C13 UNL     1      27.077  -1.061  52.502  1.00  0.00     0.022 A 
HETATM   20  C14 UNL     1      28.049  -0.636  53.386  1.00  0.00     0.070 A 
HETATM   21  C16 UNL     1      27.879   0.576  54.058  1.00  0.00     0.084 A 
HETATM   22  C17 UNL     1      26.737   1.311  53.815  1.00  0.00     0.063 A 
BRANCH  20  23
HETATM   23  C15 UNL     1      29.210  -1.483  53.570  1.00  0.00     0.178 C 
HETATM   24  O4  UNL     1      30.372  -1.107  53.899  1.00  0.00    -0.646 OA
BRANCH  23  25
HETATM   25  O5  UNL     1      29.174  -2.863  53.400  1.00  0.00    -0.773 OA
HETATM   26  H16 UNL     1      29.019  -3.314  52.491  1.00  0.00     0.167 HD
ENDBRANCH  23  25
ENDBRANCH  20  23
BRANCH  21  27
HETATM   27  O6  UNL     1      28.859   0.997  54.946  1.00  0.00    -0.360 OA
HETATM   28  H17 UNL     1      29.131   1.972  54.932  1.00  0.00     0.217 HD
ENDBRANCH  21  27
ENDBRANCH   1  17
TORSDOF 9
ENDMDL
MODEL 6
REMARK VINA RESULT:      -7.7      3.225      6.702
REMARK  9 active torsions:
REMARK  status: ('A' for Active; 'I' for Inactive)
REMARK    1  A    between atoms: C2_2  and  C3_3 
REMARK    2  A    between atoms: C2_2  and  C6_7 
REMARK    3  A    between atoms: C3_3  and  N1_4 
REMARK    4  A    between atoms: C10_11  and  O1_12 
REMARK    5  A    between atoms: O1_12  and  S1_13 
REMARK    6  A    between atoms: S1_13  and  C11_16 
REMARK    7  A    between atoms: C14_19  and  C15_20 
REMARK    8  A    between atoms: C15_20  and  O5_22 
REMARK    9  A    between atoms: C16_23  and  O6_24 
ROOT
HETATM    1  S1  UNL     1      24.118   2.205  52.346  1.00  0.00     0.303 S 
HETATM    2  O2  UNL     1      24.041   3.553  53.001  1.00  0.00    -0.193 OA
HETATM    3  O3  UNL     1      23.013   1.323  52.873  1.00  0.00    -0.193 OA
ENDROOT
BRANCH   1   4
HETATM    4  O1  UNL     1      23.942   2.376  50.678  1.00  0.00    -0.229 OA
BRANCH   4   5
HETATM    5  C10 UNL     1      24.207   3.546  49.984  1.00  0.00     0.090 A 
HETATM    6  C9  UNL     1      23.052   4.215  49.601  1.00  0.00     0.038 A 
HETATM    7  C8  UNL     1      23.150   5.402  48.899  1.00  0.00     0.004 A 
HETATM    8  C7  UNL     1      24.411   5.873  48.607  1.00  0.00     0.012 A 
HETATM    9  C6  UNL     1      25.565   5.219  48.981  1.00  0.00    -0.026 A 
HETATM   10  C18 UNL     1      25.457   4.036  49.681  1.00  0.00     0.050 A 
BRANCH   9  11
HETATM   11  C2  UNL     1      26.833   5.797  48.629  1.00  0.00    -0.040 C 
HETATM   12  C1  UNL     1      27.896   5.020  48.638  1.00  0.00     0.021 C 
BRANCH  11  13
HETATM   13  C3  UNL     1      26.983   7.206  48.265  1.00  0.00     0.154 C 
BRANCH  13  14
HETATM   14  N1  UNL     1      27.736   8.012  49.152  1.00  0.00    -0.417 N 
HETATM   15  C4  UNL     1      27.026   8.857  50.043  1.00  0.00     0.142 C 
HETATM   16  C5  UNL     1      29.009   8.463  48.707  1.00  0.00     0.142 C 
ENDBRANCH  13  14
ENDBRANCH  11  13
ENDBRANCH   9  11
ENDBRANCH   4   5
ENDBRANCH   1   4
BRANCH   1  17
HETATM   17  C11 UNL     1      25.633   1.391  52.684  1.00  0.00     0.089 A 
HETATM   18  C12 UNL     1      25.733   0.011  52.790  1.00  0.00     0.027 A 
HETATM   19  C13 UNL     1      26.975  -0.561  53.063  1.00  0.00     0.022 A 
HETATM   20  C14 UNL     1      28.109   0.209  53.230  1.00  0.00     0.070 A 
HETATM   21  C16 UNL     1      28.014   1.598  53.124  1.00  0.00     0.084 A 
HETATM   22  C17 UNL     1      26.781   2.156  52.855  1.00  0.00     0.063 A 
BRANCH  20  23
HETATM   23  C15 UNL     1      29.355  -0.477  53.510  1.00  0.00     0.178 C 
HETATM   24  O4  UNL     1      29.485  -1.674  53.894  1.00  0.00    -0.646 OA
BRANCH  23  25
HETATM   25  O5  UNL     1      30.599   0.132  53.382  1.00  0.00    -0.773 OA
HETATM   26  H16 UNL     1      30.853   0.730  52.586  1.00  0.00     0.167 HD
ENDBRANCH  23  25
ENDBRANCH  20  23
BRANCH  21  27
HETATM   27  O6  UNL     1      29.158   2.366  53.294  1.00  0.00    -0.360 OA
HETATM   28  H17 UNL     1      29.111   3.160  53.921  1.00  0.00     0.217 HD
ENDBRANCH  21  27
ENDBRANCH   1  17
TORSDOF 9
ENDMDL
MODEL 7
REMARK VINA RESULT:      -7.6      4.415      7.071
REMARK  9 active torsions:
REMARK  status: ('A' for Active; 'I' for Inactive)
REMARK    1  A    between atoms: C2_2  and  C3_3 
REMARK    2  A    between atoms: C2_2  and  C6_7 
REMARK    3  A    between atoms: C3_3  and  N1_4 
REMARK    4  A    between atoms: C10_11  and  O1_12 
REMARK    5  A    between atoms: O1_12  and  S1_13 
REMARK    6  A    between atoms: S1_13  and  C11_16 
REMARK    7  A    between atoms: C14_19  and  C15_20 
REMARK    8  A    between atoms: C15_20  and  O5_22 
REMARK    9  A    between atoms: C16_23  and  O6_24 
ROOT
HETATM    1  S1  UNL     1      22.549  -1.007  54.207  1.00  0.00     0.303 S 
HETATM    2  O2  UNL     1      22.629  -1.823  55.464  1.00  0.00    -0.193 OA
HETATM    3  O3  UNL     1      22.419  -1.924  53.016  1.00  0.00    -0.193 OA
ENDROOT
BRANCH   1   4
HETATM    4  O1  UNL     1      21.202   0.005  54.275  1.00  0.00    -0.229 OA
BRANCH   4   5
HETATM    5  C10 UNL     1      20.156  -0.030  53.366  1.00  0.00     0.090 A 
HETATM    6  C9  UNL     1      19.205  -0.992  53.681  1.00  0.00     0.038 A 
HETATM    7  C8  UNL     1      18.098  -1.152  52.868  1.00  0.00     0.004 A 
HETATM    8  C7  UNL     1      17.989  -0.335  51.764  1.00  0.00     0.012 A 
HETATM    9  C6  UNL     1      18.925   0.624  51.441  1.00  0.00    -0.026 A 
HETATM   10  C18 UNL     1      20.025   0.775  52.257  1.00  0.00     0.050 A 
BRANCH   9  11
HETATM   11  C2  UNL     1      18.715   1.427  50.267  1.00  0.00    -0.040 C 
HETATM   12  C1  UNL     1      17.576   1.297  49.619  1.00  0.00     0.021 C 
BRANCH  11  13
HETATM   13  C3  UNL     1      19.713   2.373  49.771  1.00  0.00     0.154 C 
BRANCH  13  14
HETATM   14  N1  UNL     1      20.381   2.021  48.574  1.00  0.00    -0.417 N 
HETATM   15  C4  UNL     1      21.541   1.211  48.677  1.00  0.00     0.142 C 
HETATM   16  C5  UNL     1      20.330   2.948  47.497  1.00  0.00     0.142 C 
ENDBRANCH  13  14
ENDBRANCH  11  13
ENDBRANCH   9  11
ENDBRANCH   4   5
ENDBRANCH   1   4
BRANCH   1  17
HETATM   17  C11 UNL     1      23.986  -0.036  53.955  1.00  0.00     0.089 A 
HETATM   18  C12 UNL     1      23.971   1.147  53.230  1.00  0.00     0.027 A 
HETATM   19  C13 UNL     1      25.158   1.862  53.073  1.00  0.00     0.022 A 
HETATM   20  C14 UNL     1      26.347   1.426  53.620  1.00  0.00     0.070 A 
HETATM   21  C16 UNL     1      26.368   0.237  54.351  1.00  0.00     0.084 A 
HETATM   22  C17 UNL     1      25.190  -0.466  54.501  1.00  0.00     0.063 A 
BRANCH  20  23
HETATM   23  C15 UNL     1      27.528   2.238  53.403  1.00  0.00     0.178 C 
HETATM   24  O4  UNL     1      28.384   2.571  54.273  1.00  0.00    -0.646 OA
BRANCH  23  25
HETATM   25  O5  UNL     1      27.867   2.762  52.160  1.00  0.00    -0.773 OA
HETATM   26  H16 UNL     1      27.207   2.819  51.375  1.00  0.00     0.167 HD
ENDBRANCH  23  25
ENDBRANCH  20  23
BRANCH  21  27
HETATM   27  O6  UNL     1      27.568  -0.198  54.898  1.00  0.00    -0.360 OA
HETATM   28  H17 UNL     1      28.131   0.471  55.409  1.00  0.00     0.217 HD
ENDBRANCH  21  27
ENDBRANCH   1  17
TORSDOF 9
ENDMDL
MODEL 8
REMARK VINA RESULT:      -7.6      5.445      8.228
REMARK  9 active torsions:
REMARK  status: ('A' for Active; 'I' for Inactive)
REMARK    1  A    between atoms: C2_2  and  C3_3 
REMARK    2  A    between atoms: C2_2  and  C6_7 
REMARK    3  A    between atoms: C3_3  and  N1_4 
REMARK    4  A    between atoms: C10_11  and  O1_12 
REMARK    5  A    between atoms: O1_12  and  S1_13 
REMARK    6  A    between atoms: S1_13  and  C11_16 
REMARK    7  A    between atoms: C14_19  and  C15_20 
REMARK    8  A    between atoms: C15_20  and  O5_22 
REMARK    9  A    between atoms: C16_23  and  O6_24 
ROOT
HETATM    1  S1  UNL     1      22.658  -0.867  54.138  1.00  0.00     0.303 S 
HETATM    2  O2  UNL     1      22.635  -1.613  55.440  1.00  0.00    -0.193 OA
HETATM    3  O3  UNL     1      22.578  -1.844  52.993  1.00  0.00    -0.193 OA
ENDROOT
BRANCH   1   4
HETATM    4  O1  UNL     1      21.339   0.181  54.065  1.00  0.00    -0.229 OA
BRANCH   4   5
HETATM    5  C10 UNL     1      20.251   0.004  53.225  1.00  0.00     0.090 A 
HETATM    6  C9  UNL     1      20.372   0.709  52.035  1.00  0.00     0.038 A 
HETATM    7  C8  UNL     1      19.366   0.635  51.090  1.00  0.00     0.004 A 
HETATM    8  C7  UNL     1      18.271  -0.149  51.378  1.00  0.00     0.012 A 
HETATM    9  C6  UNL     1      18.138  -0.855  52.555  1.00  0.00    -0.026 A 
HETATM   10  C18 UNL     1      19.147  -0.775  53.491  1.00  0.00     0.050 A 
BRANCH   9  11
HETATM   11  C2  UNL     1      16.956  -1.647  52.757  1.00  0.00    -0.040 C 
HETATM   12  C1  UNL     1      17.096  -2.865  53.236  1.00  0.00     0.021 C 
BRANCH  11  13
HETATM   13  C3  UNL     1      15.614  -1.152  52.450  1.00  0.00     0.154 C 
BRANCH  13  14
HETATM   14  N1  UNL     1      14.849  -1.918  51.538  1.00  0.00    -0.417 N 
HETATM   15  C4  UNL     1      15.025  -1.668  50.153  1.00  0.00     0.142 C 
HETATM   16  C5  UNL     1      13.562  -2.348  51.961  1.00  0.00     0.142 C 
ENDBRANCH  13  14
ENDBRANCH  11  13
ENDBRANCH   9  11
ENDBRANCH   4   5
ENDBRANCH   1   4
BRANCH   1  17
HETATM   17  C11 UNL     1      24.135   0.054  53.929  1.00  0.00     0.089 A 
HETATM   18  C12 UNL     1      24.187   1.225  53.188  1.00  0.00     0.027 A 
HETATM   19  C13 UNL     1      25.402   1.899  53.068  1.00  0.00     0.022 A 
HETATM   20  C14 UNL     1      26.555   1.432  53.667  1.00  0.00     0.070 A 
HETATM   21  C16 UNL     1      26.508   0.254  54.414  1.00  0.00     0.084 A 
HETATM   22  C17 UNL     1      25.302  -0.408  54.528  1.00  0.00     0.063 A 
BRANCH  20  23
HETATM   23  C15 UNL     1      27.770   2.202  53.484  1.00  0.00     0.178 C 
HETATM   24  O4  UNL     1      28.651   2.436  54.360  1.00  0.00    -0.646 OA
BRANCH  23  25
HETATM   25  O5  UNL     1      28.116   2.792  52.274  1.00  0.00    -0.773 OA
HETATM   26  H16 UNL     1      29.062   2.748  51.877  1.00  0.00     0.167 HD
ENDBRANCH  23  25
ENDBRANCH  20  23
BRANCH  21  27
HETATM   27  O6  UNL     1      27.671  -0.211  55.013  1.00  0.00    -0.360 OA
HETATM   28  H17 UNL     1      28.521   0.326  54.889  1.00  0.00     0.217 HD
ENDBRANCH  21  27
ENDBRANCH   1  17
TORSDOF 9
ENDMDL
MODEL 9
REMARK VINA RESULT:      -7.6      3.205      7.065
REMARK  9 active torsions:
REMARK  status: ('A' for Active; 'I' for Inactive)
REMARK    1  A    between atoms: C2_2  and  C3_3 
REMARK    2  A    between atoms: C2_2  and  C6_7 
REMARK    3  A    between atoms: C3_3  and  N1_4 
REMARK    4  A    between atoms: C10_11  and  O1_12 
REMARK    5  A    between atoms: O1_12  and  S1_13 
REMARK    6  A    between atoms: S1_13  and  C11_16 
REMARK    7  A    between atoms: C14_19  and  C15_20 
REMARK    8  A    between atoms: C15_20  and  O5_22 
REMARK    9  A    between atoms: C16_23  and  O6_24 
ROOT
HETATM    1  S1  UNL     1      21.751   2.132  50.774  1.00  0.00     0.303 S 
HETATM    2  O2  UNL     1      21.140   3.391  50.230  1.00  0.00    -0.193 OA
HETATM    3  O3  UNL     1      22.396   1.357  49.653  1.00  0.00    -0.193 OA
ENDROOT
BRANCH   1   4
HETATM    4  O1  UNL     1      22.923   2.524  51.922  1.00  0.00    -0.229 OA
BRANCH   4   5
HETATM    5  C10 UNL     1      24.242   2.105  51.860  1.00  0.00     0.090 A 
HETATM    6  C9  UNL     1      25.010   2.880  51.000  1.00  0.00     0.038 A 
HETATM    7  C8  UNL     1      26.351   2.588  50.828  1.00  0.00     0.004 A 
HETATM    8  C7  UNL     1      26.871   1.523  51.530  1.00  0.00     0.012 A 
HETATM    9  C6  UNL     1      26.120   0.746  52.386  1.00  0.00    -0.026 A 
HETATM   10  C18 UNL     1      24.785   1.045  52.551  1.00  0.00     0.050 A 
BRANCH   9  11
HETATM   11  C2  UNL     1      26.760  -0.342  53.073  1.00  0.00    -0.040 C 
HETATM   12  C1  UNL     1      26.737  -1.533  52.512  1.00  0.00     0.021 C 
BRANCH  11  13
HETATM   13  C3  UNL     1      27.430  -0.175  54.362  1.00  0.00     0.154 C 
BRANCH  13  14
HETATM   14  N1  UNL     1      28.807   0.151  54.323  1.00  0.00    -0.417 N 
HETATM   15  C4  UNL     1      29.162   1.524  54.292  1.00  0.00     0.142 C 
HETATM   16  C5  UNL     1      29.678  -0.759  53.663  1.00  0.00     0.142 C 
ENDBRANCH  13  14
ENDBRANCH  11  13
ENDBRANCH   9  11
ENDBRANCH   4   5
ENDBRANCH   1   4
BRANCH   1  17
HETATM   17  C11 UNL     1      20.556   1.081  51.509  1.00  0.00     0.089 A 
HETATM   18  C12 UNL     1      19.304   0.867  50.950  1.00  0.00     0.027 A 
HETATM   19  C13 UNL     1      18.409   0.016  51.598  1.00  0.00     0.022 A 
HETATM   20  C14 UNL     1      18.734  -0.620  52.779  1.00  0.00     0.070 A 
HETATM   21  C16 UNL     1      19.992  -0.408  53.345  1.00  0.00     0.084 A 
HETATM   22  C17 UNL     1      20.873   0.436  52.699  1.00  0.00     0.063 A 
BRANCH  20  23
HETATM   23  C15 UNL     1      17.736  -1.485  53.377  1.00  0.00     0.178 C 
HETATM   24  O4  UNL     1      17.928  -2.644  53.844  1.00  0.00    -0.646 OA
BRANCH  23  25
HETATM   25  O5  UNL     1      16.401  -1.120  53.509  1.00  0.00    -0.773 OA
HETATM   26  H16 UNL     1      16.096  -0.264  53.987  1.00  0.00     0.167 HD
ENDBRANCH  23  25
ENDBRANCH  20  23
BRANCH  21  27
HETATM   27  O6  UNL     1      20.313  -1.049  54.534  1.00  0.00    -0.360 OA
HETATM   28  H17 UNL     1      19.612  -1.642  54.962  1.00  0.00     0.217 HD
ENDBRANCH  21  27
ENDBRANCH   1  17
TORSDOF 9
ENDMDL
