MODEL 1
REMARK VINA RESULT:      -8.2      0.000      0.000
REMARK  1 active torsions:
REMARK  status: ('A' for Active; 'I' for Inactive)
REMARK    1  A    between atoms: N1_2  and  C3_4 
ROOT
HETATM    1  C3  UNL     1      32.028   8.491  44.688  1.00  0.00     0.359 C 
HETATM    2  C4  UNL     1      31.920   7.364  45.700  1.00  0.00     0.075 C 
HETATM    3  C5  UNL     1      32.116   7.794  47.128  1.00  0.00     0.041 C 
HETATM    4  C6  UNL     1      31.123   7.023  47.968  1.00  0.00     0.128 C 
HETATM    5  N2  UNL     1      31.215   5.596  47.807  1.00  0.00    -0.400 N 
HETATM    6  C7  UNL     1      32.273   4.672  48.162  1.00  0.00     0.072 C 
HETATM    7  C8  UNL     1      33.603   4.907  48.051  1.00  0.00     0.041 A 
HETATM    8  C9  UNL     1      34.482   3.746  47.889  1.00  0.00     0.080 A 
HETATM    9  C10 UNL     1      34.833   3.697  46.413  1.00  0.00     0.036 A 
HETATM   10  O1  UNL     1      33.813   4.447  46.647  1.00  0.00     0.000 OA
HETATM   11  N3  UNL     1      35.240   3.593  45.015  1.00  0.00    -0.325 N 
HETATM   12  C11 UNL     1      34.451   4.227  44.071  1.00  0.00     0.256 C 
HETATM   13  O2  UNL     1      33.222   4.464  44.149  1.00  0.00    -0.267 OA
HETATM   14  C12 UNL     1      34.293   4.875  42.823  1.00  0.00     0.040 C 
HETATM   15  C13 UNL     1      33.759   4.344  41.736  1.00  0.00     0.017 C 
HETATM   16  C14 UNL     1      33.687   5.005  40.400  1.00  0.00    -0.001 C 
HETATM   17  C15 UNL     1      33.815   6.341  40.229  1.00  0.00    -0.001 C 
HETATM   18  C16 UNL     1      34.473   7.435  40.980  1.00  0.00     0.113 C 
HETATM   19  C17 UNL     1      35.702   6.806  41.739  1.00  0.00     0.070 C 
HETATM   20  C18 UNL     1      34.745   6.302  42.830  1.00  0.00    -0.025 C 
HETATM   21  C19 UNL     1      34.604   7.492  43.399  1.00  0.00     0.096 C 
HETATM   22  N4  UNL     1      33.719   7.753  42.244  1.00  0.00    -0.360 N 
HETATM   23  C20 UNL     1      32.366   8.230  42.355  1.00  0.00     0.296 C 
HETATM   24  O3  UNL     1      31.664   8.002  43.468  1.00  0.00    -0.337 OA
HETATM   25  C21 UNL     1      34.125   6.304  48.079  1.00  0.00    -0.036 A 
HETATM   26  C22 UNL     1      35.405   6.456  48.555  1.00  0.00     0.009 A 
HETATM   27  C23 UNL     1      36.071   7.655  48.656  1.00  0.00     0.001 A 
HETATM   28  C24 UNL     1      35.438   8.797  48.262  1.00  0.00     0.001 A 
HETATM   29  C25 UNL     1      34.169   8.678  47.787  1.00  0.00     0.008 A 
HETATM   30  C26 UNL     1      33.466   7.476  47.672  1.00  0.00    -0.045 A 
HETATM   31  H13 UNL     1      30.412   5.042  47.365  1.00  0.00     0.158 HD
HETATM   32  H17 UNL     1      35.837   3.132  45.680  1.00  0.00     0.169 HD
ENDROOT
BRANCH   1  33
HETATM   33  N1  UNL     1      31.033   9.475  45.160  1.00  0.00     0.108 N 
HETATM   34  C1  UNL     1      29.706   9.198  44.726  1.00  0.00     0.312 C 
HETATM   35  C2  UNL     1      31.449  10.828  44.958  1.00  0.00     0.312 C 
ENDBRANCH   1  33
TORSDOF 1
ENDMDL
MODEL 2
REMARK VINA RESULT:      -8.2      1.931      5.192
REMARK  1 active torsions:
REMARK  status: ('A' for Active; 'I' for Inactive)
REMARK    1  A    between atoms: N1_2  and  C3_4 
ROOT
HETATM    1  C3  UNL     1      32.955   7.307  43.936  1.00  0.00     0.359 C 
HETATM    2  C4  UNL     1      31.569   7.711  44.408  1.00  0.00     0.075 C 
HETATM    3  C5  UNL     1      31.300   9.189  44.344  1.00  0.00     0.041 C 
HETATM    4  C6  UNL     1      29.874   9.366  43.874  1.00  0.00     0.128 C 
HETATM    5  N2  UNL     1      28.909   8.667  44.682  1.00  0.00    -0.400 N 
HETATM    6  C7  UNL     1      28.508   8.868  46.059  1.00  0.00     0.072 C 
HETATM    7  C8  UNL     1      29.330   9.200  47.085  1.00  0.00     0.041 A 
HETATM    8  C9  UNL     1      28.916   8.805  48.435  1.00  0.00     0.080 A 
HETATM    9  C10 UNL     1      29.739   7.576  48.776  1.00  0.00     0.036 A 
HETATM   10  O1  UNL     1      29.744   7.832  47.514  1.00  0.00     0.000 OA
HETATM   11  N3  UNL     1      30.509   6.408  49.192  1.00  0.00    -0.325 N 
HETATM   12  C11 UNL     1      31.090   5.638  48.199  1.00  0.00     0.256 C 
HETATM   13  O2  UNL     1      30.687   5.495  47.020  1.00  0.00    -0.267 OA
HETATM   14  C12 UNL     1      32.106   4.765  47.745  1.00  0.00     0.040 C 
HETATM   15  C13 UNL     1      31.986   3.461  47.567  1.00  0.00     0.017 C 
HETATM   16  C14 UNL     1      33.092   2.537  47.180  1.00  0.00    -0.001 C 
HETATM   17  C15 UNL     1      34.245   2.962  46.612  1.00  0.00    -0.001 C 
HETATM   18  C16 UNL     1      35.008   4.231  46.613  1.00  0.00     0.113 C 
HETATM   19  C17 UNL     1      34.714   4.951  47.985  1.00  0.00     0.070 C 
HETATM   20  C18 UNL     1      33.386   5.465  47.407  1.00  0.00    -0.025 C 
HETATM   21  C19 UNL     1      33.955   6.413  46.675  1.00  0.00     0.096 C 
HETATM   22  N4  UNL     1      34.311   5.283  45.790  1.00  0.00    -0.360 N 
HETATM   23  C20 UNL     1      34.019   5.235  44.383  1.00  0.00     0.296 C 
HETATM   24  O3  UNL     1      33.004   5.945  43.884  1.00  0.00    -0.337 OA
HETATM   25  C21 UNL     1      30.608   9.923  46.823  1.00  0.00    -0.036 A 
HETATM   26  C22 UNL     1      31.064  10.723  47.842  1.00  0.00     0.009 A 
HETATM   27  C23 UNL     1      32.221  11.466  47.803  1.00  0.00     0.001 A 
HETATM   28  C24 UNL     1      32.994  11.426  46.681  1.00  0.00     0.001 A 
HETATM   29  C25 UNL     1      32.568  10.642  45.655  1.00  0.00     0.008 A 
HETATM   30  C26 UNL     1      31.398   9.876  45.662  1.00  0.00    -0.045 A 
HETATM   31  H13 UNL     1      28.343   7.853  44.277  1.00  0.00     0.158 HD
HETATM   32  H17 UNL     1      30.106   6.954  49.935  1.00  0.00     0.169 HD
ENDROOT
BRANCH   1  33
HETATM   33  N1  UNL     1      33.034   7.872  42.575  1.00  0.00     0.108 N 
HETATM   34  C1  UNL     1      32.528   7.005  41.566  1.00  0.00     0.312 C 
HETATM   35  C2  UNL     1      34.315   8.436  42.280  1.00  0.00     0.312 C 
ENDBRANCH   1  33
TORSDOF 1
ENDMDL
MODEL 3
REMARK VINA RESULT:      -8.1      9.289     11.735
REMARK  1 active torsions:
REMARK  status: ('A' for Active; 'I' for Inactive)
REMARK    1  A    between atoms: N1_2  and  C3_4 
ROOT
HETATM    1  C3  UNL     1      22.477   7.521  48.160  1.00  0.00     0.359 C 
HETATM    2  C4  UNL     1      22.670   6.744  49.452  1.00  0.00     0.075 C 
HETATM    3  C5  UNL     1      24.013   6.944  50.098  1.00  0.00     0.041 C 
HETATM    4  C6  UNL     1      23.786   7.018  51.591  1.00  0.00     0.128 C 
HETATM    5  N2  UNL     1      23.083   5.881  52.125  1.00  0.00    -0.400 N 
HETATM    6  C7  UNL     1      23.476   4.491  52.227  1.00  0.00     0.072 C 
HETATM    7  C8  UNL     1      24.177   3.794  51.300  1.00  0.00     0.041 A 
HETATM    8  C9  UNL     1      23.993   2.340  51.268  1.00  0.00     0.080 A 
HETATM    9  C10 UNL     1      23.061   2.068  50.100  1.00  0.00     0.036 A 
HETATM   10  O1  UNL     1      23.045   3.305  50.460  1.00  0.00     0.000 OA
HETATM   11  N3  UNL     1      22.192   1.719  48.980  1.00  0.00    -0.325 N 
HETATM   12  C11 UNL     1      21.373   2.712  48.473  1.00  0.00     0.256 C 
HETATM   13  O2  UNL     1      20.908   3.699  49.092  1.00  0.00    -0.267 OA
HETATM   14  C12 UNL     1      20.659   3.301  47.403  1.00  0.00     0.040 C 
HETATM   15  C13 UNL     1      19.350   3.249  47.223  1.00  0.00     0.017 C 
HETATM   16  C14 UNL     1      18.620   3.790  46.040  1.00  0.00    -0.001 C 
HETATM   17  C15 UNL     1      19.150   4.713  45.203  1.00  0.00    -0.001 C 
HETATM   18  C16 UNL     1      20.523   5.108  44.814  1.00  0.00     0.113 C 
HETATM   19  C17 UNL     1      21.432   3.827  44.950  1.00  0.00     0.070 C 
HETATM   20  C18 UNL     1      21.525   4.080  46.463  1.00  0.00    -0.025 C 
HETATM   21  C19 UNL     1      22.399   5.070  46.347  1.00  0.00     0.096 C 
HETATM   22  N4  UNL     1      21.211   5.846  45.932  1.00  0.00    -0.360 N 
HETATM   23  C20 UNL     1      20.813   7.095  46.525  1.00  0.00     0.296 C 
HETATM   24  O3  UNL     1      21.175   7.387  47.777  1.00  0.00    -0.337 OA
HETATM   25  C21 UNL     1      25.082   4.503  50.350  1.00  0.00    -0.036 A 
HETATM   26  C22 UNL     1      26.153   3.779  49.888  1.00  0.00     0.009 A 
HETATM   27  C23 UNL     1      27.098   4.245  49.003  1.00  0.00     0.001 A 
HETATM   28  C24 UNL     1      26.989   5.520  48.533  1.00  0.00     0.001 A 
HETATM   29  C25 UNL     1      25.939   6.263  48.974  1.00  0.00     0.008 A 
HETATM   30  C26 UNL     1      24.963   5.819  49.872  1.00  0.00    -0.045 A 
HETATM   31  H13 UNL     1      22.102   5.990  52.542  1.00  0.00     0.158 HD
HETATM   32  H17 UNL     1      22.784   0.980  49.323  1.00  0.00     0.169 HD
ENDROOT
BRANCH   1  33
HETATM   33  N1  UNL     1      22.753   8.917  48.553  1.00  0.00     0.108 N 
HETATM   34  C1  UNL     1      21.604   9.615  49.022  1.00  0.00     0.312 C 
HETATM   35  C2  UNL     1      23.518   9.629  47.576  1.00  0.00     0.312 C 
ENDBRANCH   1  33
TORSDOF 1
ENDMDL
MODEL 4
REMARK VINA RESULT:      -8.0      2.635      6.024
REMARK  1 active torsions:
REMARK  status: ('A' for Active; 'I' for Inactive)
REMARK    1  A    between atoms: N1_2  and  C3_4 
ROOT
HETATM    1  C3  UNL     1      31.462   9.984  44.926  1.00  0.00     0.359 C 
HETATM    2  C4  UNL     1      32.560   9.485  45.850  1.00  0.00     0.075 C 
HETATM    3  C5  UNL     1      33.657   8.727  45.155  1.00  0.00     0.041 C 
HETATM    4  C6  UNL     1      34.962   9.134  45.802  1.00  0.00     0.128 C 
HETATM    5  N2  UNL     1      34.983   8.946  47.228  1.00  0.00    -0.400 N 
HETATM    6  C7  UNL     1      34.938   7.734  48.021  1.00  0.00     0.072 C 
HETATM    7  C8  UNL     1      34.192   6.635  47.750  1.00  0.00     0.041 A 
HETATM    8  C9  UNL     1      33.811   5.784  48.880  1.00  0.00     0.080 A 
HETATM    9  C10 UNL     1      32.364   6.127  49.185  1.00  0.00     0.036 A 
HETATM   10  O1  UNL     1      32.933   7.019  48.452  1.00  0.00     0.000 OA
HETATM   11  N3  UNL     1      30.967   6.377  49.527  1.00  0.00    -0.325 N 
HETATM   12  C11 UNL     1      30.415   7.578  49.116  1.00  0.00     0.256 C 
HETATM   13  O2  UNL     1      31.017   8.662  48.925  1.00  0.00    -0.267 OA
HETATM   14  C12 UNL     1      29.303   8.358  48.718  1.00  0.00     0.040 C 
HETATM   15  C13 UNL     1      28.675   9.249  49.465  1.00  0.00     0.017 C 
HETATM   16  C14 UNL     1      27.444   9.994  49.067  1.00  0.00    -0.001 C 
HETATM   17  C15 UNL     1      27.043  10.124  47.780  1.00  0.00    -0.001 C 
HETATM   18  C16 UNL     1      27.239   9.343  46.537  1.00  0.00     0.113 C 
HETATM   19  C17 UNL     1      27.426   7.836  46.959  1.00  0.00     0.070 C 
HETATM   20  C18 UNL     1      28.895   8.133  47.295  1.00  0.00    -0.025 C 
HETATM   21  C19 UNL     1      29.287   8.152  46.028  1.00  0.00     0.096 C 
HETATM   22  N4  UNL     1      28.649   9.486  46.026  1.00  0.00    -0.360 N 
HETATM   23  C20 UNL     1      29.302  10.694  45.599  1.00  0.00     0.296 C 
HETATM   24  O3  UNL     1      30.633  10.790  45.649  1.00  0.00    -0.337 OA
HETATM   25  C21 UNL     1      33.775   6.335  46.350  1.00  0.00    -0.036 A 
HETATM   26  C22 UNL     1      33.579   5.009  46.054  1.00  0.00     0.009 A 
HETATM   27  C23 UNL     1      33.187   4.524  44.828  1.00  0.00     0.001 A 
HETATM   28  C24 UNL     1      32.970   5.404  43.808  1.00  0.00     0.001 A 
HETATM   29  C25 UNL     1      33.158   6.725  44.071  1.00  0.00     0.008 A 
HETATM   30  C26 UNL     1      33.555   7.249  45.305  1.00  0.00    -0.045 A 
HETATM   31  H13 UNL     1      35.047   9.785  47.891  1.00  0.00     0.158 HD
HETATM   32  H17 UNL     1      31.340   5.493  49.830  1.00  0.00     0.169 HD
ENDROOT
BRANCH   1  33
HETATM   33  N1  UNL     1      32.194  10.777  43.919  1.00  0.00     0.108 N 
HETATM   34  C1  UNL     1      32.435  12.122  44.317  1.00  0.00     0.312 C 
HETATM   35  C2  UNL     1      31.653  10.640  42.602  1.00  0.00     0.312 C 
ENDBRANCH   1  33
TORSDOF 1
ENDMDL
MODEL 5
REMARK VINA RESULT:      -7.8      4.701      7.926
REMARK  1 active torsions:
REMARK  status: ('A' for Active; 'I' for Inactive)
REMARK    1  A    between atoms: N1_2  and  C3_4 
ROOT
HETATM    1  C3  UNL     1      27.643  11.345  47.563  1.00  0.00     0.359 C 
HETATM    2  C4  UNL     1      28.698  10.502  48.258  1.00  0.00     0.075 C 
HETATM    3  C5  UNL     1      30.075  10.622  47.667  1.00  0.00     0.041 C 
HETATM    4  C6  UNL     1      31.057  10.633  48.816  1.00  0.00     0.128 C 
HETATM    5  N2  UNL     1      30.933   9.497  49.691  1.00  0.00    -0.400 N 
HETATM    6  C7  UNL     1      31.185   8.090  49.455  1.00  0.00     0.072 C 
HETATM    7  C8  UNL     1      30.902   7.414  48.314  1.00  0.00     0.041 A 
HETATM    8  C9  UNL     1      30.671   5.971  48.427  1.00  0.00     0.080 A 
HETATM    9  C10 UNL     1      29.165   5.789  48.366  1.00  0.00     0.036 A 
HETATM   10  O1  UNL     1      29.499   7.006  48.618  1.00  0.00     0.000 OA
HETATM   11  N3  UNL     1      27.731   5.524  48.288  1.00  0.00    -0.325 N 
HETATM   12  C11 UNL     1      26.872   6.569  48.580  1.00  0.00     0.256 C 
HETATM   13  O2  UNL     1      27.094   7.541  49.341  1.00  0.00    -0.267 OA
HETATM   14  C12 UNL     1      25.633   7.234  48.423  1.00  0.00     0.040 C 
HETATM   15  C13 UNL     1      24.639   7.236  49.295  1.00  0.00     0.017 C 
HETATM   16  C14 UNL     1      23.301   7.859  49.076  1.00  0.00    -0.001 C 
HETATM   17  C15 UNL     1      23.071   8.801  48.132  1.00  0.00    -0.001 C 
HETATM   18  C16 UNL     1      23.697   9.165  46.840  1.00  0.00     0.113 C 
HETATM   19  C17 UNL     1      24.318   7.849  46.236  1.00  0.00     0.070 C 
HETATM   20  C18 UNL     1      25.536   8.025  47.157  1.00  0.00    -0.025 C 
HETATM   21  C19 UNL     1      26.077   8.989  46.424  1.00  0.00     0.096 C 
HETATM   22  N4  UNL     1      25.034   9.825  47.054  1.00  0.00    -0.360 N 
HETATM   23  C20 UNL     1      25.296  11.057  47.749  1.00  0.00     0.296 C 
HETATM   24  O3  UNL     1      26.494  11.276  48.296  1.00  0.00    -0.337 OA
HETATM   25  C21 UNL     1      30.818   8.136  47.012  1.00  0.00    -0.036 A 
HETATM   26  C22 UNL     1      31.126   7.397  45.896  1.00  0.00     0.009 A 
HETATM   27  C23 UNL     1      31.103   7.871  44.605  1.00  0.00     0.001 A 
HETATM   28  C24 UNL     1      30.753   9.171  44.385  1.00  0.00     0.001 A 
HETATM   29  C25 UNL     1      30.444   9.928  45.472  1.00  0.00     0.008 A 
HETATM   30  C26 UNL     1      30.457   9.476  46.795  1.00  0.00    -0.045 A 
HETATM   31  H13 UNL     1      30.614   9.621  50.706  1.00  0.00     0.158 HD
HETATM   32  H17 UNL     1      28.332   4.750  48.062  1.00  0.00     0.169 HD
ENDROOT
BRANCH   1  33
HETATM   33  N1  UNL     1      28.202  12.710  47.618  1.00  0.00     0.108 N 
HETATM   34  C1  UNL     1      27.960  13.377  48.852  1.00  0.00     0.312 C 
HETATM   35  C2  UNL     1      27.891  13.486  46.457  1.00  0.00     0.312 C 
ENDBRANCH   1  33
TORSDOF 1
ENDMDL
MODEL 6
REMARK VINA RESULT:      -7.3     14.205     16.933
REMARK  1 active torsions:
REMARK  status: ('A' for Active; 'I' for Inactive)
REMARK    1  A    between atoms: N1_2  and  C3_4 
ROOT
HETATM    1  C3  UNL     1      18.373   4.018  48.493  1.00  0.00     0.359 C 
HETATM    2  C4  UNL     1      17.745   2.642  48.634  1.00  0.00     0.075 C 
HETATM    3  C5  UNL     1      16.250   2.658  48.800  1.00  0.00     0.041 C 
HETATM    4  C6  UNL     1      15.698   1.500  47.999  1.00  0.00     0.128 C 
HETATM    5  N2  UNL     1      16.276   0.230  48.348  1.00  0.00    -0.400 N 
HETATM    6  C7  UNL     1      16.191  -0.542  49.571  1.00  0.00     0.072 C 
HETATM    7  C8  UNL     1      16.199  -0.039  50.830  1.00  0.00     0.041 A 
HETATM    8  C9  UNL     1      16.683  -0.913  51.902  1.00  0.00     0.080 A 
HETATM    9  C10 UNL     1      18.099  -0.455  52.201  1.00  0.00     0.036 A 
HETATM   10  O1  UNL     1      17.672  -0.014  51.069  1.00  0.00     0.000 OA
HETATM   11  N3  UNL     1      19.456  -0.061  52.569  1.00  0.00    -0.325 N 
HETATM   12  C11 UNL     1      20.183   0.664  51.641  1.00  0.00     0.256 C 
HETATM   13  O2  UNL     1      20.064   0.632  50.393  1.00  0.00    -0.267 OA
HETATM   14  C12 UNL     1      21.184   1.611  51.319  1.00  0.00     0.040 C 
HETATM   15  C13 UNL     1      22.390   1.336  50.853  1.00  0.00     0.017 C 
HETATM   16  C14 UNL     1      23.470   2.337  50.610  1.00  0.00    -0.001 C 
HETATM   17  C15 UNL     1      23.232   3.663  50.482  1.00  0.00    -0.001 C 
HETATM   18  C16 UNL     1      22.176   4.589  50.953  1.00  0.00     0.113 C 
HETATM   19  C17 UNL     1      21.614   4.006  52.305  1.00  0.00     0.070 C 
HETATM   20  C18 UNL     1      20.743   3.030  51.498  1.00  0.00    -0.025 C 
HETATM   21  C19 UNL     1      19.849   3.949  51.161  1.00  0.00     0.096 C 
HETATM   22  N4  UNL     1      20.890   4.370  50.200  1.00  0.00    -0.360 N 
HETATM   23  C20 UNL     1      20.670   4.528  48.788  1.00  0.00     0.296 C 
HETATM   24  O3  UNL     1      19.690   3.853  48.182  1.00  0.00    -0.337 OA
HETATM   25  C21 UNL     1      15.746   1.359  51.085  1.00  0.00    -0.036 A 
HETATM   26  C22 UNL     1      15.220   1.601  52.330  1.00  0.00     0.009 A 
HETATM   27  C23 UNL     1      14.753   2.820  52.766  1.00  0.00     0.001 A 
HETATM   28  C24 UNL     1      14.801   3.886  51.918  1.00  0.00     0.001 A 
HETATM   29  C25 UNL     1      15.316   3.677  50.677  1.00  0.00     0.008 A 
HETATM   30  C26 UNL     1      15.798   2.453  50.204  1.00  0.00    -0.045 A 
HETATM   31  H13 UNL     1      16.879  -0.310  47.646  1.00  0.00     0.158 HD
HETATM   32  H17 UNL     1      18.946  -0.578  53.265  1.00  0.00     0.169 HD
ENDROOT
BRANCH   1  33
HETATM   33  N1  UNL     1      17.649   4.612  47.352  1.00  0.00     0.108 N 
HETATM   34  C1  UNL     1      18.178   4.238  46.084  1.00  0.00     0.312 C 
HETATM   35  C2  UNL     1      17.423   6.016  47.506  1.00  0.00     0.312 C 
ENDBRANCH   1  33
TORSDOF 1
ENDMDL
MODEL 7
REMARK VINA RESULT:      -7.3      3.312      7.000
REMARK  1 active torsions:
REMARK  status: ('A' for Active; 'I' for Inactive)
REMARK    1  A    between atoms: N1_2  and  C3_4 
ROOT
HETATM    1  C3  UNL     1      30.916   9.803  44.887  1.00  0.00     0.359 C 
HETATM    2  C4  UNL     1      29.405   9.825  45.043  1.00  0.00     0.075 C 
HETATM    3  C5  UNL     1      28.803  11.202  45.032  1.00  0.00     0.041 C 
HETATM    4  C6  UNL     1      27.512  11.121  44.249  1.00  0.00     0.128 C 
HETATM    5  N2  UNL     1      26.598  10.126  44.745  1.00  0.00    -0.400 N 
HETATM    6  C7  UNL     1      25.874  10.049  45.997  1.00  0.00     0.072 C 
HETATM    7  C8  UNL     1      26.349  10.415  47.213  1.00  0.00     0.041 A 
HETATM    8  C9  UNL     1      25.765   9.764  48.389  1.00  0.00     0.080 A 
HETATM    9  C10 UNL     1      26.772   8.713  48.820  1.00  0.00     0.036 A 
HETATM   10  O1  UNL     1      26.985   9.128  47.620  1.00  0.00     0.000 OA
HETATM   11  N3  UNL     1      27.697   7.698  49.317  1.00  0.00    -0.325 N 
HETATM   12  C11 UNL     1      28.648   7.214  48.436  1.00  0.00     0.256 C 
HETATM   13  O2  UNL     1      28.555   7.143  47.187  1.00  0.00    -0.267 OA
HETATM   14  C12 UNL     1      29.921   6.655  48.172  1.00  0.00     0.040 C 
HETATM   15  C13 UNL     1      30.165   5.392  47.869  1.00  0.00     0.017 C 
HETATM   16  C14 UNL     1      31.520   4.795  47.688  1.00  0.00    -0.001 C 
HETATM   17  C15 UNL     1      32.628   5.535  47.448  1.00  0.00    -0.001 C 
HETATM   18  C16 UNL     1      33.038   6.929  47.731  1.00  0.00     0.113 C 
HETATM   19  C17 UNL     1      32.289   7.378  49.043  1.00  0.00     0.070 C 
HETATM   20  C18 UNL     1      31.032   7.658  48.206  1.00  0.00    -0.025 C 
HETATM   21  C19 UNL     1      31.494   8.797  47.708  1.00  0.00     0.096 C 
HETATM   22  N4  UNL     1      32.297   7.901  46.849  1.00  0.00    -0.360 N 
HETATM   23  C20 UNL     1      32.335   7.977  45.413  1.00  0.00     0.296 C 
HETATM   24  O3  UNL     1      31.308   8.504  44.743  1.00  0.00    -0.337 OA
HETATM   25  C21 UNL     1      27.436  11.431  47.322  1.00  0.00    -0.036 A 
HETATM   26  C22 UNL     1      27.453  12.170  48.479  1.00  0.00     0.009 A 
HETATM   27  C23 UNL     1      28.373  13.148  48.777  1.00  0.00     0.001 A 
HETATM   28  C24 UNL     1      29.355  13.428  47.873  1.00  0.00     0.001 A 
HETATM   29  C25 UNL     1      29.363  12.713  46.717  1.00  0.00     0.008 A 
HETATM   30  C26 UNL     1      28.444  11.714  46.384  1.00  0.00    -0.045 A 
HETATM   31  H13 UNL     1      26.349   9.268  44.154  1.00  0.00     0.158 HD
HETATM   32  H17 UNL     1      27.023   8.039  49.982  1.00  0.00     0.169 HD
ENDROOT
BRANCH   1  33
HETATM   33  N1  UNL     1      31.144  10.547  43.633  1.00  0.00     0.108 N 
HETATM   34  C1  UNL     1      31.023   9.745  42.463  1.00  0.00     0.312 C 
HETATM   35  C2  UNL     1      32.323  11.357  43.673  1.00  0.00     0.312 C 
ENDBRANCH   1  33
TORSDOF 1
ENDMDL
MODEL 8
REMARK VINA RESULT:      -7.1      7.184     10.818
REMARK  1 active torsions:
REMARK  status: ('A' for Active; 'I' for Inactive)
REMARK    1  A    between atoms: N1_2  and  C3_4 
ROOT
HETATM    1  C3  UNL     1      22.343   9.017  47.859  1.00  0.00     0.359 C 
HETATM    2  C4  UNL     1      23.736   9.564  48.121  1.00  0.00     0.075 C 
HETATM    3  C5  UNL     1      24.303  10.379  46.991  1.00  0.00     0.041 C 
HETATM    4  C6  UNL     1      25.040  11.546  47.607  1.00  0.00     0.128 C 
HETATM    5  N2  UNL     1      26.045  11.156  48.561  1.00  0.00    -0.400 N 
HETATM    6  C7  UNL     1      27.286  10.432  48.381  1.00  0.00     0.072 C 
HETATM    7  C8  UNL     1      27.481   9.385  47.543  1.00  0.00     0.041 A 
HETATM    8  C9  UNL     1      28.544   8.436  47.886  1.00  0.00     0.080 A 
HETATM    9  C10 UNL     1      27.842   7.232  48.489  1.00  0.00     0.036 A 
HETATM   10  O1  UNL     1      27.083   8.271  48.453  1.00  0.00     0.000 OA
HETATM   11  N3  UNL     1      27.246   6.026  49.055  1.00  0.00    -0.325 N 
HETATM   12  C11 UNL     1      25.968   6.130  49.578  1.00  0.00     0.256 C 
HETATM   13  O2  UNL     1      25.434   7.152  50.072  1.00  0.00    -0.267 OA
HETATM   14  C12 UNL     1      24.711   5.565  49.898  1.00  0.00     0.040 C 
HETATM   15  C13 UNL     1      24.307   5.206  51.104  1.00  0.00     0.017 C 
HETATM   16  C14 UNL     1      23.017   4.522  51.413  1.00  0.00    -0.001 C 
HETATM   17  C15 UNL     1      21.960   4.521  50.567  1.00  0.00    -0.001 C 
HETATM   18  C16 UNL     1      21.790   4.659  49.103  1.00  0.00     0.113 C 
HETATM   19  C17 UNL     1      23.101   4.104  48.427  1.00  0.00     0.070 C 
HETATM   20  C18 UNL     1      23.795   5.443  48.720  1.00  0.00    -0.025 C 
HETATM   21  C19 UNL     1      23.188   6.090  47.735  1.00  0.00     0.096 C 
HETATM   22  N4  UNL     1      22.036   6.078  48.662  1.00  0.00    -0.360 N 
HETATM   23  C20 UNL     1      21.302   7.252  49.053  1.00  0.00     0.296 C 
HETATM   24  O3  UNL     1      21.886   8.452  49.014  1.00  0.00    -0.337 OA
HETATM   25  C21 UNL     1      26.623   9.218  46.335  1.00  0.00    -0.036 A 
HETATM   26  C22 UNL     1      27.202   8.566  45.273  1.00  0.00     0.009 A 
HETATM   27  C23 UNL     1      26.580   8.305  44.075  1.00  0.00     0.001 A 
HETATM   28  C24 UNL     1      25.292   8.714  43.896  1.00  0.00     0.001 A 
HETATM   29  C25 UNL     1      24.692   9.364  44.929  1.00  0.00     0.008 A 
HETATM   30  C26 UNL     1      25.295   9.644  46.159  1.00  0.00    -0.045 A 
HETATM   31  H13 UNL     1      25.942  11.405  49.597  1.00  0.00     0.158 HD
HETATM   32  H17 UNL     1      28.170   5.919  48.673  1.00  0.00     0.169 HD
ENDROOT
BRANCH   1  33
HETATM   33  N1  UNL     1      21.555  10.223  47.535  1.00  0.00     0.108 N 
HETATM   34  C1  UNL     1      21.014  10.877  48.678  1.00  0.00     0.312 C 
HETATM   35  C2  UNL     1      20.613  10.005  46.480  1.00  0.00     0.312 C 
ENDBRANCH   1  33
TORSDOF 1
ENDMDL
MODEL 9
REMARK VINA RESULT:      -7.1     10.331     13.915
REMARK  1 active torsions:
REMARK  status: ('A' for Active; 'I' for Inactive)
REMARK    1  A    between atoms: N1_2  and  C3_4 
ROOT
HETATM    1  C3  UNL     1      23.872   5.416  49.613  1.00  0.00     0.359 C 
HETATM    2  C4  UNL     1      23.122   5.557  48.299  1.00  0.00     0.075 C 
HETATM    3  C5  UNL     1      22.892   6.979  47.868  1.00  0.00     0.041 C 
HETATM    4  C6  UNL     1      23.089   7.030  46.369  1.00  0.00     0.128 C 
HETATM    5  N2  UNL     1      22.267   6.097  45.646  1.00  0.00    -0.400 N 
HETATM    6  C7  UNL     1      20.829   6.037  45.481  1.00  0.00     0.072 C 
HETATM    7  C8  UNL     1      19.907   6.321  46.434  1.00  0.00     0.041 A 
HETATM    8  C9  UNL     1      18.595   5.679  46.315  1.00  0.00     0.080 A 
HETATM    9  C10 UNL     1      18.603   4.535  47.312  1.00  0.00     0.036 A 
HETATM   10  O1  UNL     1      19.788   4.972  47.062  1.00  0.00     0.000 OA
HETATM   11  N3  UNL     1      18.518   3.431  48.264  1.00  0.00    -0.325 N 
HETATM   12  C11 UNL     1      19.707   2.902  48.735  1.00  0.00     0.256 C 
HETATM   13  O2  UNL     1      20.813   2.882  48.144  1.00  0.00    -0.267 OA
HETATM   14  C12 UNL     1      20.460   2.250  49.740  1.00  0.00     0.040 C 
HETATM   15  C13 UNL     1      20.833   0.982  49.729  1.00  0.00     0.017 C 
HETATM   16  C14 UNL     1      21.543   0.282  50.840  1.00  0.00    -0.001 C 
HETATM   17  C15 UNL     1      22.209   0.937  51.819  1.00  0.00    -0.001 C 
HETATM   18  C16 UNL     1      22.117   2.282  52.431  1.00  0.00     0.113 C 
HETATM   19  C17 UNL     1      20.615   2.745  52.314  1.00  0.00     0.070 C 
HETATM   20  C18 UNL     1      20.877   3.156  50.857  1.00  0.00    -0.025 C 
HETATM   21  C19 UNL     1      21.520   4.270  51.180  1.00  0.00     0.096 C 
HETATM   22  N4  UNL     1      22.628   3.341  51.489  1.00  0.00    -0.360 N 
HETATM   23  C20 UNL     1      23.958   3.463  50.955  1.00  0.00     0.296 C 
HETATM   24  O3  UNL     1      24.160   4.095  49.797  1.00  0.00    -0.337 OA
HETATM   25  C21 UNL     1      20.246   7.239  47.559  1.00  0.00    -0.036 A 
HETATM   26  C22 UNL     1      19.194   7.934  48.104  1.00  0.00     0.009 A 
HETATM   27  C23 UNL     1      19.293   8.823  49.149  1.00  0.00     0.001 A 
HETATM   28  C24 UNL     1      20.515   9.052  49.707  1.00  0.00     0.001 A 
HETATM   29  C25 UNL     1      21.576   8.379  49.188  1.00  0.00     0.008 A 
HETATM   30  C26 UNL     1      21.510   7.471  48.128  1.00  0.00    -0.045 A 
HETATM   31  H13 UNL     1      22.706   5.283  45.107  1.00  0.00     0.158 HD
HETATM   32  H17 UNL     1      17.639   3.804  47.946  1.00  0.00     0.169 HD
ENDROOT
BRANCH   1  33
HETATM   33  N1  UNL     1      25.113   6.182  49.384  1.00  0.00     0.108 N 
HETATM   34  C1  UNL     1      26.209   5.380  48.957  1.00  0.00     0.312 C 
HETATM   35  C2  UNL     1      25.420   7.077  50.458  1.00  0.00     0.312 C 
ENDBRANCH   1  33
TORSDOF 1
ENDMDL
