MODEL 1
REMARK VINA RESULT:      -7.7      0.000      0.000
REMARK  4 active torsions:
REMARK  status: ('A' for Active; 'I' for Inactive)
REMARK    1  A    between atoms: C3_3  and  O1_4 
REMARK    2  A    between atoms: C7_8  and  N1_9 
REMARK    3  A    between atoms: N1_9  and  C8_10 
REMARK    4  A    between atoms: C8_10  and  C9_11 
ROOT
HETATM    1  C1  UNL     1      23.210  -0.819  53.840  1.00  0.00     0.028 C 
HETATM    2  C2  UNL     1      24.069  -0.009  53.245  1.00  0.00     0.018 A 
HETATM    3  C3  UNL     1      25.498  -0.198  53.033  1.00  0.00     0.081 A 
HETATM    4  C5  UNL     1      26.018   0.840  52.395  1.00  0.00     0.055 A 
HETATM    5  C6  UNL     1      24.942   1.803  52.141  1.00  0.00     0.042 A 
HETATM    6  C7  UNL     1      25.021   3.037  51.500  1.00  0.00     0.137 A 
HETATM    7  N2  UNL     1      23.882   3.731  51.395  1.00  0.00    -0.224 NA
HETATM    8  C15 UNL     1      22.736   3.242  51.890  1.00  0.00     0.236 A 
HETATM    9  N3  UNL     1      22.681   2.039  52.510  1.00  0.00    -0.240 NA
HETATM   10  C16 UNL     1      23.780   1.284  52.654  1.00  0.00     0.084 A 
ENDROOT
BRANCH   6  11
HETATM   11  N1  UNL     1      26.255   3.542  50.979  1.00  0.00    -0.370 N 
HETATM   12  H7  UNL     1      26.880   4.054  51.659  1.00  0.00     0.161 HD
BRANCH  11  13
HETATM   13  C8  UNL     1      26.603   3.347  49.587  1.00  0.00     0.160 C 
BRANCH  13  14
HETATM   14  C9  UNL     1      26.895   4.701  49.017  1.00  0.00    -0.041 A 
HETATM   15  C10 UNL     1      28.148   5.006  48.531  1.00  0.00     0.009 A 
HETATM   16  C11 UNL     1      28.544   6.206  47.986  1.00  0.00     0.001 A 
HETATM   17  C12 UNL     1      27.579   7.205  47.921  1.00  0.00     0.000 A 
HETATM   18  C13 UNL     1      26.290   6.949  48.400  1.00  0.00     0.001 A 
HETATM   19  C14 UNL     1      25.939   5.712  48.946  1.00  0.00     0.009 A 
ENDBRANCH  13  14
ENDBRANCH  11  13
ENDBRANCH   6  11
BRANCH   3  20
HETATM   20  O1  UNL     1      26.180  -1.350  53.467  1.00  0.00    -0.355 OA
HETATM   21  C4  UNL     1      26.940  -2.100  52.540  1.00  0.00     0.210 C 
ENDBRANCH   3  20
TORSDOF 4
ENDMDL
MODEL 2
REMARK VINA RESULT:      -7.5      3.275      4.931
REMARK  4 active torsions:
REMARK  status: ('A' for Active; 'I' for Inactive)
REMARK    1  A    between atoms: C3_3  and  O1_4 
REMARK    2  A    between atoms: C7_8  and  N1_9 
REMARK    3  A    between atoms: N1_9  and  C8_10 
REMARK    4  A    between atoms: C8_10  and  C9_11 
ROOT
HETATM    1  C1  UNL     1      19.938   0.763  52.292  1.00  0.00     0.028 C 
HETATM    2  C2  UNL     1      21.224   0.985  52.509  1.00  0.00     0.018 A 
HETATM    3  C3  UNL     1      22.249   0.042  52.932  1.00  0.00     0.081 A 
HETATM    4  C5  UNL     1      23.424   0.644  53.040  1.00  0.00     0.055 A 
HETATM    5  C6  UNL     1      23.245   2.056  52.688  1.00  0.00     0.042 A 
HETATM    6  C7  UNL     1      24.201   3.067  52.660  1.00  0.00     0.137 A 
HETATM    7  N2  UNL     1      23.777   4.284  52.300  1.00  0.00    -0.224 NA
HETATM    8  C15 UNL     1      22.490   4.493  51.987  1.00  0.00     0.236 A 
HETATM    9  N3  UNL     1      21.575   3.495  52.021  1.00  0.00    -0.240 NA
HETATM   10  C16 UNL     1      21.924   2.248  52.371  1.00  0.00     0.084 A 
ENDROOT
BRANCH   6  11
HETATM   11  N1  UNL     1      25.571   2.823  52.998  1.00  0.00    -0.370 N 
HETATM   12  H7  UNL     1      25.838   2.958  54.011  1.00  0.00     0.161 HD
BRANCH  11  13
HETATM   13  C8  UNL     1      26.520   2.415  51.984  1.00  0.00     0.160 C 
BRANCH  13  14
HETATM   14  C9  UNL     1      27.357   1.327  52.583  1.00  0.00    -0.041 A 
HETATM   15  C10 UNL     1      26.990   0.004  52.456  1.00  0.00     0.009 A 
HETATM   16  C11 UNL     1      27.668  -1.084  52.958  1.00  0.00     0.001 A 
HETATM   17  C12 UNL     1      28.838  -0.815  53.660  1.00  0.00     0.000 A 
HETATM   18  C13 UNL     1      29.256   0.510  53.819  1.00  0.00     0.001 A 
HETATM   19  C14 UNL     1      28.531   1.580  53.290  1.00  0.00     0.009 A 
ENDBRANCH  13  14
ENDBRANCH  11  13
ENDBRANCH   6  11
BRANCH   3  20
HETATM   20  O1  UNL     1      21.972  -1.317  53.178  1.00  0.00    -0.355 OA
HETATM   21  C4  UNL     1      21.647  -1.735  54.489  1.00  0.00     0.210 C 
ENDBRANCH   3  20
TORSDOF 4
ENDMDL
MODEL 3
REMARK VINA RESULT:      -7.5      4.738      6.192
REMARK  4 active torsions:
REMARK  status: ('A' for Active; 'I' for Inactive)
REMARK    1  A    between atoms: C3_3  and  O1_4 
REMARK    2  A    between atoms: C7_8  and  N1_9 
REMARK    3  A    between atoms: N1_9  and  C8_10 
REMARK    4  A    between atoms: C8_10  and  C9_11 
ROOT
HETATM    1  C1  UNL     1      18.957  -0.841  53.397  1.00  0.00     0.028 C 
HETATM    2  C2  UNL     1      20.191  -0.508  53.060  1.00  0.00     0.018 A 
HETATM    3  C3  UNL     1      20.650   0.191  51.868  1.00  0.00     0.081 A 
HETATM    4  C5  UNL     1      21.966   0.340  51.890  1.00  0.00     0.055 A 
HETATM    5  C6  UNL     1      22.472  -0.266  53.126  1.00  0.00     0.042 A 
HETATM    6  C7  UNL     1      23.788  -0.347  53.572  1.00  0.00     0.137 A 
HETATM    7  N2  UNL     1      23.986  -0.956  54.747  1.00  0.00    -0.224 NA
HETATM    8  C15 UNL     1      22.953  -1.456  55.439  1.00  0.00     0.236 A 
HETATM    9  N3  UNL     1      21.679  -1.367  54.986  1.00  0.00    -0.240 NA
HETATM   10  C16 UNL     1      21.401  -0.770  53.818  1.00  0.00     0.084 A 
ENDROOT
BRANCH   6  11
HETATM   11  N1  UNL     1      24.878   0.194  52.817  1.00  0.00    -0.370 N 
HETATM   12  H7  UNL     1      24.968  -0.136  51.818  1.00  0.00     0.161 HD
BRANCH  11  13
HETATM   13  C8  UNL     1      25.795   1.140  53.418  1.00  0.00     0.160 C 
BRANCH  13  14
HETATM   14  C9  UNL     1      27.140   0.480  53.455  1.00  0.00    -0.041 A 
HETATM   15  C10 UNL     1      27.290  -0.837  53.079  1.00  0.00     0.009 A 
HETATM   16  C11 UNL     1      28.464  -1.555  53.069  1.00  0.00     0.001 A 
HETATM   17  C12 UNL     1      29.608  -0.878  53.479  1.00  0.00     0.000 A 
HETATM   18  C13 UNL     1      29.512   0.460  53.871  1.00  0.00     0.001 A 
HETATM   19  C14 UNL     1      28.294   1.145  53.865  1.00  0.00     0.009 A 
ENDBRANCH  13  14
ENDBRANCH  11  13
ENDBRANCH   6  11
BRANCH   3  20
HETATM   20  O1  UNL     1      19.768   0.627  50.861  1.00  0.00    -0.355 OA
HETATM   21  C4  UNL     1      20.285   1.278  49.717  1.00  0.00     0.210 C 
ENDBRANCH   3  20
TORSDOF 4
ENDMDL
MODEL 4
REMARK VINA RESULT:      -7.4      1.885      3.154
REMARK  4 active torsions:
REMARK  status: ('A' for Active; 'I' for Inactive)
REMARK    1  A    between atoms: C3_3  and  O1_4 
REMARK    2  A    between atoms: C7_8  and  N1_9 
REMARK    3  A    between atoms: N1_9  and  C8_10 
REMARK    4  A    between atoms: C8_10  and  C9_11 
ROOT
HETATM    1  C1  UNL     1      23.258  -0.803  54.105  1.00  0.00     0.028 C 
HETATM    2  C2  UNL     1      23.755   0.186  53.380  1.00  0.00     0.018 A 
HETATM    3  C3  UNL     1      23.041   1.197  52.613  1.00  0.00     0.081 A 
HETATM    4  C5  UNL     1      23.891   2.021  52.018  1.00  0.00     0.055 A 
HETATM    5  C6  UNL     1      25.252   1.595  52.361  1.00  0.00     0.042 A 
HETATM    6  C7  UNL     1      26.460   2.161  51.963  1.00  0.00     0.137 A 
HETATM    7  N2  UNL     1      27.574   1.577  52.419  1.00  0.00    -0.224 NA
HETATM    8  C15 UNL     1      27.504   0.502  53.216  1.00  0.00     0.236 A 
HETATM    9  N3  UNL     1      26.317  -0.033  53.592  1.00  0.00    -0.240 NA
HETATM   10  C16 UNL     1      25.158   0.496  53.176  1.00  0.00     0.084 A 
ENDROOT
BRANCH   6  11
HETATM   11  N1  UNL     1      26.513   3.310  51.110  1.00  0.00    -0.370 N 
HETATM   12  H7  UNL     1      26.549   4.251  51.588  1.00  0.00     0.161 HD
BRANCH  11  13
HETATM   13  C8  UNL     1      26.515   3.160  49.670  1.00  0.00     0.160 C 
BRANCH  13  14
HETATM   14  C9  UNL     1      26.708   4.527  49.089  1.00  0.00    -0.041 A 
HETATM   15  C10 UNL     1      25.645   5.394  48.959  1.00  0.00     0.009 A 
HETATM   16  C11 UNL     1      25.688   6.670  48.444  1.00  0.00     0.001 A 
HETATM   17  C12 UNL     1      26.932   7.122  48.015  1.00  0.00     0.000 A 
HETATM   18  C13 UNL     1      28.045   6.283  48.124  1.00  0.00     0.001 A 
HETATM   19  C14 UNL     1      27.947   4.995  48.655  1.00  0.00     0.009 A 
ENDBRANCH  13  14
ENDBRANCH  11  13
ENDBRANCH   6  11
BRANCH   3  20
HETATM   20  O1  UNL     1      21.635   1.246  52.551  1.00  0.00    -0.355 OA
HETATM   21  C4  UNL     1      20.997   2.447  52.163  1.00  0.00     0.210 C 
ENDBRANCH   3  20
TORSDOF 4
ENDMDL
MODEL 5
REMARK VINA RESULT:      -7.4      1.890      2.978
REMARK  4 active torsions:
REMARK  status: ('A' for Active; 'I' for Inactive)
REMARK    1  A    between atoms: C3_3  and  O1_4 
REMARK    2  A    between atoms: C7_8  and  N1_9 
REMARK    3  A    between atoms: N1_9  and  C8_10 
REMARK    4  A    between atoms: C8_10  and  C9_11 
ROOT
HETATM    1  C1  UNL     1      26.213  -0.157  55.102  1.00  0.00     0.028 C 
HETATM    2  C2  UNL     1      25.695   0.677  54.217  1.00  0.00     0.018 A 
HETATM    3  C3  UNL     1      26.218   1.958  53.761  1.00  0.00     0.081 A 
HETATM    4  C5  UNL     1      25.410   2.501  52.862  1.00  0.00     0.055 A 
HETATM    5  C6  UNL     1      24.275   1.593  52.664  1.00  0.00     0.042 A 
HETATM    6  C7  UNL     1      23.182   1.750  51.817  1.00  0.00     0.137 A 
HETATM    7  N2  UNL     1      22.274   0.767  51.821  1.00  0.00    -0.224 NA
HETATM    8  C15 UNL     1      22.433  -0.305  52.611  1.00  0.00     0.236 A 
HETATM    9  N3  UNL     1      23.504  -0.438  53.428  1.00  0.00    -0.240 NA
HETATM   10  C16 UNL     1      24.456   0.505  53.480  1.00  0.00     0.084 A 
ENDROOT
BRANCH   6  11
HETATM   11  N1  UNL     1      23.030   2.903  50.981  1.00  0.00    -0.370 N 
HETATM   12  H7  UNL     1      22.681   3.782  51.450  1.00  0.00     0.161 HD
BRANCH  11  13
HETATM   13  C8  UNL     1      23.347   2.837  49.569  1.00  0.00     0.160 C 
BRANCH  13  14
HETATM   14  C9  UNL     1      24.531   3.727  49.346  1.00  0.00    -0.041 A 
HETATM   15  C10 UNL     1      24.364   5.049  48.998  1.00  0.00     0.009 A 
HETATM   16  C11 UNL     1      25.364   5.966  48.766  1.00  0.00     0.001 A 
HETATM   17  C12 UNL     1      26.670   5.506  48.897  1.00  0.00     0.000 A 
HETATM   18  C13 UNL     1      26.897   4.172  49.249  1.00  0.00     0.001 A 
HETATM   19  C14 UNL     1      25.845   3.280  49.473  1.00  0.00     0.009 A 
ENDBRANCH  13  14
ENDBRANCH  11  13
ENDBRANCH   6  11
BRANCH   3  20
HETATM   20  O1  UNL     1      27.425   2.496  54.244  1.00  0.00    -0.355 OA
HETATM   21  C4  UNL     1      28.625   2.267  53.529  1.00  0.00     0.210 C 
ENDBRANCH   3  20
TORSDOF 4
ENDMDL
MODEL 6
REMARK VINA RESULT:      -7.3      4.789      6.082
REMARK  4 active torsions:
REMARK  status: ('A' for Active; 'I' for Inactive)
REMARK    1  A    between atoms: C3_3  and  O1_4 
REMARK    2  A    between atoms: C7_8  and  N1_9 
REMARK    3  A    between atoms: N1_9  and  C8_10 
REMARK    4  A    between atoms: C8_10  and  C9_11 
ROOT
HETATM    1  C1  UNL     1      19.336   0.375  51.645  1.00  0.00     0.028 C 
HETATM    2  C2  UNL     1      20.632   0.418  51.902  1.00  0.00     0.018 A 
HETATM    3  C3  UNL     1      21.677   1.134  51.184  1.00  0.00     0.081 A 
HETATM    4  C5  UNL     1      22.858   0.930  51.749  1.00  0.00     0.055 A 
HETATM    5  C6  UNL     1      22.663   0.045  52.902  1.00  0.00     0.042 A 
HETATM    6  C7  UNL     1      23.620  -0.439  53.790  1.00  0.00     0.137 A 
HETATM    7  N2  UNL     1      23.179  -1.239  54.768  1.00  0.00    -0.224 NA
HETATM    8  C15 UNL     1      21.877  -1.544  54.866  1.00  0.00     0.236 A 
HETATM    9  N3  UNL     1      20.963  -1.062  53.990  1.00  0.00    -0.240 NA
HETATM   10  C16 UNL     1      21.327  -0.255  52.984  1.00  0.00     0.084 A 
ENDROOT
BRANCH   6  11
HETATM   11  N1  UNL     1      25.006  -0.101  53.669  1.00  0.00    -0.370 N 
HETATM   12  H7  UNL     1      25.316   0.793  54.138  1.00  0.00     0.161 HD
BRANCH  11  13
HETATM   13  C8  UNL     1      25.912  -0.958  52.934  1.00  0.00     0.160 C 
BRANCH  13  14
HETATM   14  C9  UNL     1      27.302  -0.502  53.257  1.00  0.00    -0.041 A 
HETATM   15  C10 UNL     1      28.366  -1.375  53.186  1.00  0.00     0.009 A 
HETATM   16  C11 UNL     1      29.683  -1.083  53.457  1.00  0.00     0.001 A 
HETATM   17  C12 UNL     1      29.962   0.225  53.838  1.00  0.00     0.000 A 
HETATM   18  C13 UNL     1      28.920   1.153  53.926  1.00  0.00     0.001 A 
HETATM   19  C14 UNL     1      27.597   0.805  53.641  1.00  0.00     0.009 A 
ENDBRANCH  13  14
ENDBRANCH  11  13
ENDBRANCH   6  11
BRANCH   3  20
HETATM   20  O1  UNL     1      21.410   1.924  50.050  1.00  0.00    -0.355 OA
HETATM   21  C4  UNL     1      21.539   1.356  48.761  1.00  0.00     0.210 C 
ENDBRANCH   3  20
TORSDOF 4
ENDMDL
MODEL 7
REMARK VINA RESULT:      -7.2      1.722      2.745
REMARK  4 active torsions:
REMARK  status: ('A' for Active; 'I' for Inactive)
REMARK    1  A    between atoms: C3_3  and  O1_4 
REMARK    2  A    between atoms: C7_8  and  N1_9 
REMARK    3  A    between atoms: N1_9  and  C8_10 
REMARK    4  A    between atoms: C8_10  and  C9_11 
ROOT
HETATM    1  C1  UNL     1      23.025  -1.428  55.318  1.00  0.00     0.028 C 
HETATM    2  C2  UNL     1      23.299  -0.674  54.267  1.00  0.00     0.018 A 
HETATM    3  C3  UNL     1      24.601  -0.313  53.723  1.00  0.00     0.081 A 
HETATM    4  C5  UNL     1      24.464   0.461  52.657  1.00  0.00     0.055 A 
HETATM    5  C6  UNL     1      23.031   0.666  52.424  1.00  0.00     0.042 A 
HETATM    6  C7  UNL     1      22.417   1.408  51.419  1.00  0.00     0.137 A 
HETATM    7  N2  UNL     1      21.079   1.436  51.427  1.00  0.00    -0.224 NA
HETATM    8  C15 UNL     1      20.388   0.774  52.366  1.00  0.00     0.236 A 
HETATM    9  N3  UNL     1      21.006   0.057  53.335  1.00  0.00    -0.240 NA
HETATM   10  C16 UNL     1      22.343  -0.019  53.393  1.00  0.00     0.084 A 
ENDROOT
BRANCH   6  11
HETATM   11  N1  UNL     1      23.173   2.109  50.425  1.00  0.00    -0.370 N 
HETATM   12  H7  UNL     1      23.747   1.517  49.766  1.00  0.00     0.161 HD
BRANCH  11  13
HETATM   13  C8  UNL     1      23.134   3.554  50.351  1.00  0.00     0.160 C 
BRANCH  13  14
HETATM   14  C9  UNL     1      24.475   4.002  49.858  1.00  0.00    -0.041 A 
HETATM   15  C10 UNL     1      24.636   5.243  49.281  1.00  0.00     0.009 A 
HETATM   16  C11 UNL     1      25.809   5.771  48.790  1.00  0.00     0.001 A 
HETATM   17  C12 UNL     1      26.939   4.966  48.890  1.00  0.00     0.000 A 
HETATM   18  C13 UNL     1      26.833   3.697  49.467  1.00  0.00     0.001 A 
HETATM   19  C14 UNL     1      25.617   3.208  49.950  1.00  0.00     0.009 A 
ENDBRANCH  13  14
ENDBRANCH  11  13
ENDBRANCH   6  11
BRANCH   3  20
HETATM   20  O1  UNL     1      25.808  -0.757  54.294  1.00  0.00    -0.355 OA
HETATM   21  C4  UNL     1      26.634   0.164  54.980  1.00  0.00     0.210 C 
ENDBRANCH   3  20
TORSDOF 4
ENDMDL
MODEL 8
REMARK VINA RESULT:      -7.2      4.143      6.243
REMARK  4 active torsions:
REMARK  status: ('A' for Active; 'I' for Inactive)
REMARK    1  A    between atoms: C3_3  and  O1_4 
REMARK    2  A    between atoms: C7_8  and  N1_9 
REMARK    3  A    between atoms: N1_9  and  C8_10 
REMARK    4  A    between atoms: C8_10  and  C9_11 
ROOT
HETATM    1  C1  UNL     1      19.853   2.236  52.052  1.00  0.00     0.028 C 
HETATM    2  C2  UNL     1      21.089   1.856  52.329  1.00  0.00     0.018 A 
HETATM    3  C3  UNL     1      22.342   2.476  51.921  1.00  0.00     0.081 A 
HETATM    4  C5  UNL     1      23.377   1.800  52.399  1.00  0.00     0.055 A 
HETATM    5  C6  UNL     1      22.860   0.665  53.170  1.00  0.00     0.042 A 
HETATM    6  C7  UNL     1      23.579  -0.314  53.852  1.00  0.00     0.137 A 
HETATM    7  N2  UNL     1      22.863  -1.251  54.484  1.00  0.00    -0.224 NA
HETATM    8  C15 UNL     1      21.523  -1.226  54.449  1.00  0.00     0.236 A 
HETATM    9  N3  UNL     1      20.844  -0.264  53.780  1.00  0.00    -0.240 NA
HETATM   10  C16 UNL     1      21.490   0.709  53.122  1.00  0.00     0.084 A 
ENDROOT
BRANCH   6  11
HETATM   11  N1  UNL     1      25.010  -0.324  53.877  1.00  0.00    -0.370 N 
HETATM   12  H7  UNL     1      25.470   0.124  54.716  1.00  0.00     0.161 HD
BRANCH  11  13
HETATM   13  C8  UNL     1      25.764  -0.921  52.794  1.00  0.00     0.160 C 
BRANCH  13  14
HETATM   14  C9  UNL     1      27.213  -0.785  53.145  1.00  0.00    -0.041 A 
HETATM   15  C10 UNL     1      27.729   0.425  53.556  1.00  0.00     0.009 A 
HETATM   16  C11 UNL     1      29.036   0.681  53.904  1.00  0.00     0.001 A 
HETATM   17  C12 UNL     1      29.918  -0.393  53.832  1.00  0.00     0.000 A 
HETATM   18  C13 UNL     1      29.448  -1.643  53.421  1.00  0.00     0.001 A 
HETATM   19  C14 UNL     1      28.110  -1.851  53.077  1.00  0.00     0.009 A 
ENDBRANCH  13  14
ENDBRANCH  11  13
ENDBRANCH   6  11
BRANCH   3  20
HETATM   20  O1  UNL     1      22.388   3.637  51.126  1.00  0.00    -0.355 OA
HETATM   21  C4  UNL     1      22.742   4.872  51.718  1.00  0.00     0.210 C 
ENDBRANCH   3  20
TORSDOF 4
ENDMDL
MODEL 9
REMARK VINA RESULT:      -7.1      2.263      6.616
REMARK  4 active torsions:
REMARK  status: ('A' for Active; 'I' for Inactive)
REMARK    1  A    between atoms: C3_3  and  O1_4 
REMARK    2  A    between atoms: C7_8  and  N1_9 
REMARK    3  A    between atoms: N1_9  and  C8_10 
REMARK    4  A    between atoms: C8_10  and  C9_11 
ROOT
HETATM    1  C1  UNL     1      26.983   4.376  49.109  1.00  0.00     0.028 C 
HETATM    2  C2  UNL     1      26.023   3.768  49.784  1.00  0.00     0.018 A 
HETATM    3  C3  UNL     1      26.142   2.880  50.932  1.00  0.00     0.081 A 
HETATM    4  C5  UNL     1      24.948   2.468  51.332  1.00  0.00     0.055 A 
HETATM    5  C6  UNL     1      23.941   3.071  50.452  1.00  0.00     0.042 A 
HETATM    6  C7  UNL     1      22.558   2.922  50.495  1.00  0.00     0.137 A 
HETATM    7  N2  UNL     1      21.856   3.586  49.570  1.00  0.00    -0.224 NA
HETATM    8  C15 UNL     1      22.476   4.350  48.659  1.00  0.00     0.236 A 
HETATM    9  N3  UNL     1      23.824   4.481  48.636  1.00  0.00    -0.240 NA
HETATM   10  C16 UNL     1      24.596   3.847  49.530  1.00  0.00     0.084 A 
ENDROOT
BRANCH   6  11
HETATM   11  N1  UNL     1      21.914   2.102  51.476  1.00  0.00    -0.370 N 
HETATM   12  H7  UNL     1      21.576   2.589  52.349  1.00  0.00     0.161 HD
BRANCH  11  13
HETATM   13  C8  UNL     1      21.749   0.680  51.255  1.00  0.00     0.160 C 
BRANCH  13  14
HETATM   14  C9  UNL     1      21.998   0.003  52.568  1.00  0.00    -0.041 A 
HETATM   15  C10 UNL     1      23.278  -0.140  53.056  1.00  0.00     0.009 A 
HETATM   16  C11 UNL     1      23.639  -0.740  54.241  1.00  0.00     0.001 A 
HETATM   17  C12 UNL     1      22.604  -1.248  55.018  1.00  0.00     0.000 A 
HETATM   18  C13 UNL     1      21.285  -1.130  54.571  1.00  0.00     0.001 A 
HETATM   19  C14 UNL     1      20.971  -0.512  53.358  1.00  0.00     0.009 A 
ENDBRANCH  13  14
ENDBRANCH  11  13
ENDBRANCH   6  11
BRANCH   3  20
HETATM   20  O1  UNL     1      27.385   2.541  51.500  1.00  0.00    -0.355 OA
HETATM   21  C4  UNL     1      27.440   2.095  52.841  1.00  0.00     0.210 C 
ENDBRANCH   3  20
TORSDOF 4
ENDMDL
