MODEL 1
REMARK VINA RESULT:      -7.6      0.000      0.000
REMARK  1 active torsions:
REMARK  status: ('A' for Active; 'I' for Inactive)
REMARK    1  A    between atoms: N1_1  and  C1_2 
ROOT
HETATM    1  C1  UNL     1      24.929   2.785  52.078  1.00  0.00     0.022 C 
HETATM    2  C2  UNL     1      25.732   2.774  51.044  1.00  0.00     0.008 C 
HETATM    3  C3  UNL     1      26.379   3.459  49.949  1.00  0.00     0.056 C 
HETATM    4  C4  UNL     1      27.043   3.743  48.966  1.00  0.00     0.076 C 
HETATM    5  C5  UNL     1      26.721   5.013  49.003  1.00  0.00    -0.080 C 
HETATM    6  P1  UNL     1      26.390   6.404  49.058  1.00  0.00    -0.025 P 
HETATM    7  N2  UNL     1      26.204   7.133  49.080  1.00  0.00    -0.360 N 
HETATM    8  C6  UNL     1      26.894   7.615  47.868  1.00  0.00     0.103 A 
HETATM    9  C7  UNL     1      28.260   7.704  47.918  1.00  0.00     0.014 A 
HETATM   10  C8  UNL     1      28.996   8.215  46.828  1.00  0.00     0.000 A 
HETATM   11  C9  UNL     1      28.143   8.571  45.808  1.00  0.00     0.019 A 
HETATM   12  C10 UNL     1      26.789   8.533  45.635  1.00  0.00     0.010 A 
HETATM   13 BR1  UNL     1      25.844   9.090  44.088  1.00  0.00    -0.051 Br
HETATM   14  C11 UNL     1      26.177   8.025  46.734  1.00  0.00     0.033 A 
HETATM   15  C12 UNL     1      25.422   7.005  50.289  1.00  0.00     0.199 A 
HETATM   16  C13 UNL     1      24.318   7.621  50.760  1.00  0.00     0.087 C 
HETATM   17  N3  UNL     1      24.163   6.922  52.034  1.00  0.00    -0.415 N 
HETATM   18  C14 UNL     1      23.635   5.627  51.706  1.00  0.00     0.141 C 
HETATM   19  C15 UNL     1      23.352   4.711  52.788  1.00  0.00    -0.006 C 
HETATM   20  C16 UNL     1      23.963   3.549  52.820  1.00  0.00     0.026 C 
HETATM   21  H6  UNL     1      25.875   8.750  49.170  1.00  0.00     0.077 HD
HETATM   22  H13 UNL     1      24.303   7.041  53.052  1.00  0.00     0.153 HD
ENDROOT
BRANCH   1  23
HETATM   23  N1  UNL     1      24.827   1.487  52.729  1.00  0.00    -0.399 N 
HETATM   24  H1  UNL     1      24.174   0.833  53.208  1.00  0.00     0.156 HD
HETATM   25  H2  UNL     1      25.783   1.036  52.710  1.00  0.00     0.156 HD
ENDBRANCH   1  23
TORSDOF 1
ENDMDL
MODEL 2
REMARK VINA RESULT:      -7.6      4.339      5.958
REMARK  1 active torsions:
REMARK  status: ('A' for Active; 'I' for Inactive)
REMARK    1  A    between atoms: N1_1  and  C1_2 
ROOT
HETATM    1  C1  UNL     1      24.139  -0.858  54.734  1.00  0.00     0.022 C 
HETATM    2  C2  UNL     1      24.873  -0.196  53.876  1.00  0.00     0.008 C 
HETATM    3  C3  UNL     1      24.989   0.746  52.787  1.00  0.00     0.056 C 
HETATM    4  C4  UNL     1      25.400   1.467  51.892  1.00  0.00     0.076 C 
HETATM    5  C5  UNL     1      24.213   1.943  51.607  1.00  0.00    -0.080 C 
HETATM    6  P1  UNL     1      22.921   2.483  51.312  1.00  0.00    -0.025 P 
HETATM    7  N2  UNL     1      22.238   2.756  51.149  1.00  0.00    -0.360 N 
HETATM    8  C6  UNL     1      22.570   3.615  49.998  1.00  0.00     0.103 A 
HETATM    9  C7  UNL     1      23.248   4.777  50.257  1.00  0.00     0.014 A 
HETATM   10  C8  UNL     1      23.549   5.690  49.224  1.00  0.00     0.000 A 
HETATM   11  C9  UNL     1      23.068   5.220  48.023  1.00  0.00     0.019 A 
HETATM   12  C10 UNL     1      22.390   4.098  47.637  1.00  0.00     0.010 A 
HETATM   13 BR1  UNL     1      21.841   3.678  45.871  1.00  0.00    -0.051 Br
HETATM   14  C11 UNL     1      22.152   3.289  48.698  1.00  0.00     0.033 A 
HETATM   15  C12 UNL     1      21.578   2.027  52.209  1.00  0.00     0.199 A 
HETATM   16  C13 UNL     1      20.352   1.480  52.347  1.00  0.00     0.087 C 
HETATM   17  N3  UNL     1      20.473   0.927  53.695  1.00  0.00    -0.415 N 
HETATM   18  C14 UNL     1      21.285  -0.250  53.562  1.00  0.00     0.141 C 
HETATM   19  C15 UNL     1      21.556  -1.031  54.749  1.00  0.00    -0.006 C 
HETATM   20  C16 UNL     1      22.800  -1.210  55.126  1.00  0.00     0.026 C 
HETATM   21  H6  UNL     1      20.760   3.427  50.841  1.00  0.00     0.077 HD
HETATM   22  H13 UNL     1      20.184   1.095  54.674  1.00  0.00     0.153 HD
ENDROOT
BRANCH   1  23
HETATM   23  N1  UNL     1      24.926  -1.706  55.617  1.00  0.00    -0.399 N 
HETATM   24  H1  UNL     1      25.302  -2.668  55.748  1.00  0.00     0.156 HD
HETATM   25  H2  UNL     1      25.235  -1.122  56.442  1.00  0.00     0.156 HD
ENDBRANCH   1  23
TORSDOF 1
ENDMDL
MODEL 3
REMARK VINA RESULT:      -7.6      3.901      5.175
REMARK  1 active torsions:
REMARK  status: ('A' for Active; 'I' for Inactive)
REMARK    1  A    between atoms: N1_1  and  C1_2 
ROOT
HETATM    1  C1  UNL     1      26.433   0.116  53.708  1.00  0.00     0.022 C 
HETATM    2  C2  UNL     1      26.833   0.930  52.764  1.00  0.00     0.008 C 
HETATM    3  C3  UNL     1      26.536   1.864  51.703  1.00  0.00     0.056 C 
HETATM    4  C4  UNL     1      26.607   2.657  50.777  1.00  0.00     0.076 C 
HETATM    5  C5  UNL     1      25.310   2.833  50.709  1.00  0.00    -0.080 C 
HETATM    6  P1  UNL     1      23.896   3.044  50.650  1.00  0.00    -0.025 P 
HETATM    7  N2  UNL     1      23.151   3.144  50.612  1.00  0.00    -0.360 N 
HETATM    8  C6  UNL     1      23.070   4.050  49.451  1.00  0.00     0.103 A 
HETATM    9  C7  UNL     1      23.485   5.342  49.634  1.00  0.00     0.014 A 
HETATM   10  C8  UNL     1      23.381   6.294  48.598  1.00  0.00     0.000 A 
HETATM   11  C9  UNL     1      22.831   5.714  47.478  1.00  0.00     0.019 A 
HETATM   12  C10 UNL     1      22.384   4.460  47.170  1.00  0.00     0.010 A 
HETATM   13 BR1  UNL     1      21.661   3.908  45.506  1.00  0.00    -0.051 Br
HETATM   14  C11 UNL     1      22.528   3.624  48.228  1.00  0.00     0.033 A 
HETATM   15  C12 UNL     1      22.872   2.284  51.741  1.00  0.00     0.199 A 
HETATM   16  C13 UNL     1      21.852   1.460  52.061  1.00  0.00     0.087 C 
HETATM   17  N3  UNL     1      22.327   0.962  53.350  1.00  0.00    -0.415 N 
HETATM   18  C14 UNL     1      23.361   0.012  53.045  1.00  0.00     0.141 C 
HETATM   19  C15 UNL     1      24.006  -0.672  54.143  1.00  0.00    -0.006 C 
HETATM   20  C16 UNL     1      25.303  -0.544  54.303  1.00  0.00     0.026 C 
HETATM   21  H6  UNL     1      21.525   3.438  50.576  1.00  0.00     0.077 HD
HETATM   22  H13 UNL     1      22.175   1.062  54.369  1.00  0.00     0.153 HD
ENDROOT
BRANCH   1  23
HETATM   23  N1  UNL     1      27.537  -0.512  54.418  1.00  0.00    -0.399 N 
HETATM   24  H1  UNL     1      28.061  -1.402  54.544  1.00  0.00     0.156 HD
HETATM   25  H2  UNL     1      27.973   0.214  55.051  1.00  0.00     0.156 HD
ENDBRANCH   1  23
TORSDOF 1
ENDMDL
MODEL 4
REMARK VINA RESULT:      -7.4      4.513      5.914
REMARK  1 active torsions:
REMARK  status: ('A' for Active; 'I' for Inactive)
REMARK    1  A    between atoms: N1_1  and  C1_2 
ROOT
HETATM    1  C1  UNL     1      24.769  -0.668  54.713  1.00  0.00     0.022 C 
HETATM    2  C2  UNL     1      23.657  -0.418  54.069  1.00  0.00     0.008 C 
HETATM    3  C3  UNL     1      22.939   0.278  53.027  1.00  0.00     0.056 C 
HETATM    4  C4  UNL     1      22.081   0.706  52.271  1.00  0.00     0.076 C 
HETATM    5  C5  UNL     1      22.923   1.440  51.585  1.00  0.00    -0.080 C 
HETATM    6  P1  UNL     1      23.845   2.222  50.821  1.00  0.00    -0.025 P 
HETATM    7  N2  UNL     1      24.330   2.644  50.427  1.00  0.00    -0.360 N 
HETATM    8  C6  UNL     1      23.400   3.303  49.491  1.00  0.00     0.103 A 
HETATM    9  C7  UNL     1      22.869   2.535  48.490  1.00  0.00     0.014 A 
HETATM   10  C8  UNL     1      22.022   3.099  47.512  1.00  0.00     0.000 A 
HETATM   11  C9  UNL     1      21.859   4.445  47.747  1.00  0.00     0.019 A 
HETATM   12  C10 UNL     1      22.323   5.314  48.693  1.00  0.00     0.010 A 
HETATM   13 BR1  UNL     1      21.928   7.166  48.798  1.00  0.00    -0.051 Br
HETATM   14  C11 UNL     1      23.123   4.676  49.584  1.00  0.00     0.033 A 
HETATM   15  C12 UNL     1      25.485   2.198  51.173  1.00  0.00     0.199 A 
HETATM   16  C13 UNL     1      26.646   2.781  51.537  1.00  0.00     0.087 C 
HETATM   17  N3  UNL     1      27.265   1.676  52.267  1.00  0.00    -0.415 N 
HETATM   18  C14 UNL     1      26.583   1.613  53.530  1.00  0.00     0.141 C 
HETATM   19  C15 UNL     1      27.007   0.614  54.485  1.00  0.00    -0.006 C 
HETATM   20  C16 UNL     1      26.142  -0.283  54.901  1.00  0.00     0.026 C 
HETATM   21  H6  UNL     1      25.396   3.503  49.503  1.00  0.00     0.077 HD
HETATM   22  H13 UNL     1      27.999   0.952  52.181  1.00  0.00     0.153 HD
ENDROOT
BRANCH   1  23
HETATM   23  N1  UNL     1      24.600  -1.647  55.776  1.00  0.00    -0.399 N 
HETATM   24  H1  UNL     1      23.912  -2.065  56.435  1.00  0.00     0.156 HD
HETATM   25  H2  UNL     1      25.534  -2.110  55.946  1.00  0.00     0.156 HD
ENDBRANCH   1  23
TORSDOF 1
ENDMDL
MODEL 5
REMARK VINA RESULT:      -7.4      4.118      5.969
REMARK  1 active torsions:
REMARK  status: ('A' for Active; 'I' for Inactive)
REMARK    1  A    between atoms: N1_1  and  C1_2 
ROOT
HETATM    1  C1  UNL     1      26.129   7.924  50.005  1.00  0.00     0.022 C 
HETATM    2  C2  UNL     1      26.428   6.759  49.489  1.00  0.00     0.008 C 
HETATM    3  C3  UNL     1      27.379   5.868  48.866  1.00  0.00     0.056 C 
HETATM    4  C4  UNL     1      27.929   4.916  48.336  1.00  0.00     0.076 C 
HETATM    5  C5  UNL     1      29.091   5.517  48.254  1.00  0.00    -0.080 C 
HETATM    6  P1  UNL     1      30.365   6.162  48.187  1.00  0.00    -0.025 P 
HETATM    7  N2  UNL     1      31.032   6.509  48.141  1.00  0.00    -0.360 N 
HETATM    8  C6  UNL     1      31.811   5.478  47.430  1.00  0.00     0.103 A 
HETATM    9  C7  UNL     1      32.161   4.357  48.136  1.00  0.00     0.014 A 
HETATM   10  C8  UNL     1      32.961   3.351  47.555  1.00  0.00     0.000 A 
HETATM   11  C9  UNL     1      33.285   3.693  46.262  1.00  0.00     0.019 A 
HETATM   12  C10 UNL     1      33.005   4.759  45.455  1.00  0.00     0.010 A 
HETATM   13 BR1  UNL     1      33.583   4.986  43.663  1.00  0.00    -0.051 Br
HETATM   14  C11 UNL     1      32.233   5.665  46.104  1.00  0.00     0.033 A 
HETATM   15  C12 UNL     1      30.578   7.703  48.817  1.00  0.00     0.199 A 
HETATM   16  C13 UNL     1      30.889   9.012  48.715  1.00  0.00     0.087 C 
HETATM   17  N3  UNL     1      29.995   9.563  49.732  1.00  0.00    -0.415 N 
HETATM   18  C14 UNL     1      28.683   9.547  49.148  1.00  0.00     0.141 C 
HETATM   19  C15 UNL     1      27.582  10.066  49.928  1.00  0.00    -0.006 C 
HETATM   20  C16 UNL     1      26.572   9.277  50.213  1.00  0.00     0.026 C 
HETATM   21  H6  UNL     1      32.522   7.225  48.113  1.00  0.00     0.077 HD
HETATM   22  H13 UNL     1      29.991   9.943  50.694  1.00  0.00     0.153 HD
ENDROOT
BRANCH   1  23
HETATM   23  N1  UNL     1      24.757   7.997  50.484  1.00  0.00    -0.399 N 
HETATM   24  H1  UNL     1      23.791   7.642  50.330  1.00  0.00     0.156 HD
HETATM   25  H2  UNL     1      24.730   8.669  51.299  1.00  0.00     0.156 HD
ENDBRANCH   1  23
TORSDOF 1
ENDMDL
MODEL 6
REMARK VINA RESULT:      -7.4      6.812      9.283
REMARK  1 active torsions:
REMARK  status: ('A' for Active; 'I' for Inactive)
REMARK    1  A    between atoms: N1_1  and  C1_2 
ROOT
HETATM    1  C1  UNL     1      24.227  -0.921  54.831  1.00  0.00     0.022 C 
HETATM    2  C2  UNL     1      22.948  -1.192  54.903  1.00  0.00     0.008 C 
HETATM    3  C3  UNL     1      21.597  -1.009  54.427  1.00  0.00     0.056 C 
HETATM    4  C4  UNL     1      20.388  -1.057  54.266  1.00  0.00     0.076 C 
HETATM    5  C5  UNL     1      20.402  -0.253  53.231  1.00  0.00    -0.080 C 
HETATM    6  P1  UNL     1      20.420   0.604  52.086  1.00  0.00    -0.025 P 
HETATM    7  N2  UNL     1      20.429   1.067  51.492  1.00  0.00    -0.360 N 
HETATM    8  C6  UNL     1      18.984   1.170  51.219  1.00  0.00     0.103 A 
HETATM    9  C7  UNL     1      18.368   0.075  50.674  1.00  0.00     0.014 A 
HETATM   10  C8  UNL     1      17.003   0.108  50.321  1.00  0.00     0.000 A 
HETATM   11  C9  UNL     1      16.471   1.344  50.608  1.00  0.00     0.019 A 
HETATM   12  C10 UNL     1      16.966   2.498  51.144  1.00  0.00     0.010 A 
HETATM   13 BR1  UNL     1      15.992   4.097  51.450  1.00  0.00    -0.051 Br
HETATM   14  C11 UNL     1      18.281   2.363  51.450  1.00  0.00     0.033 A 
HETATM   15  C12 UNL     1      21.870   1.194  51.481  1.00  0.00     0.199 A 
HETATM   16  C13 UNL     1      22.719   2.188  51.148  1.00  0.00     0.087 C 
HETATM   17  N3  UNL     1      23.996   1.529  51.418  1.00  0.00    -0.415 N 
HETATM   18  C14 UNL     1      24.134   1.518  52.848  1.00  0.00     0.141 C 
HETATM   19  C15 UNL     1      25.333   0.941  53.414  1.00  0.00    -0.006 C 
HETATM   20  C16 UNL     1      25.227  -0.078  54.235  1.00  0.00     0.026 C 
HETATM   21  H6  UNL     1      20.447   2.009  50.134  1.00  0.00     0.077 HD
HETATM   22  H13 UNL     1      24.800   1.083  50.944  1.00  0.00     0.153 HD
ENDROOT
BRANCH   1  23
HETATM   23  N1  UNL     1      25.016  -1.650  55.813  1.00  0.00    -0.399 N 
HETATM   24  H1  UNL     1      25.931  -2.116  55.981  1.00  0.00     0.156 HD
HETATM   25  H2  UNL     1      24.439  -1.742  56.694  1.00  0.00     0.156 HD
ENDBRANCH   1  23
TORSDOF 1
ENDMDL
MODEL 7
REMARK VINA RESULT:      -7.3      4.599      6.739
REMARK  1 active torsions:
REMARK  status: ('A' for Active; 'I' for Inactive)
REMARK    1  A    between atoms: N1_1  and  C1_2 
ROOT
HETATM    1  C1  UNL     1      19.619  -1.096  53.490  1.00  0.00     0.022 C 
HETATM    2  C2  UNL     1      19.228  -0.152  52.672  1.00  0.00     0.008 C 
HETATM    3  C3  UNL     1      19.529   0.978  51.824  1.00  0.00     0.056 C 
HETATM    4  C4  UNL     1      19.462   1.932  51.065  1.00  0.00     0.076 C 
HETATM    5  C5  UNL     1      20.758   2.129  51.053  1.00  0.00    -0.080 C 
HETATM    6  P1  UNL     1      22.174   2.328  51.020  1.00  0.00    -0.025 P 
HETATM    7  N2  UNL     1      22.919   2.440  51.014  1.00  0.00    -0.360 N 
HETATM    8  C6  UNL     1      22.993   3.647  50.171  1.00  0.00     0.103 A 
HETATM    9  C7  UNL     1      22.754   3.493  48.831  1.00  0.00     0.014 A 
HETATM   10  C8  UNL     1      22.868   4.582  47.941  1.00  0.00     0.000 A 
HETATM   11  C9  UNL     1      23.234   5.717  48.629  1.00  0.00     0.019 A 
HETATM   12  C10 UNL     1      23.497   6.000  49.939  1.00  0.00     0.010 A 
HETATM   13 BR1  UNL     1      23.983   7.693  50.641  1.00  0.00    -0.051 Br
HETATM   14  C11 UNL     1      23.358   4.892  50.708  1.00  0.00     0.033 A 
HETATM   15  C12 UNL     1      23.203   1.299  51.855  1.00  0.00     0.199 A 
HETATM   16  C13 UNL     1      24.144   1.032  52.785  1.00  0.00     0.087 C 
HETATM   17  N3  UNL     1      23.742  -0.319  53.170  1.00  0.00    -0.415 N 
HETATM   18  C14 UNL     1      22.578  -0.159  53.997  1.00  0.00     0.141 C 
HETATM   19  C15 UNL     1      21.967  -1.346  54.552  1.00  0.00    -0.006 C 
HETATM   20  C16 UNL     1      20.716  -1.618  54.260  1.00  0.00     0.026 C 
HETATM   21  H6  UNL     1      24.557   2.640  50.923  1.00  0.00     0.077 HD
HETATM   22  H13 UNL     1      24.003  -1.313  53.049  1.00  0.00     0.153 HD
ENDROOT
BRANCH   1  23
HETATM   23  N1  UNL     1      18.523  -1.936  53.950  1.00  0.00    -0.399 N 
HETATM   24  H1  UNL     1      17.866  -2.692  53.669  1.00  0.00     0.156 HD
HETATM   25  H2  UNL     1      18.312  -1.679  54.953  1.00  0.00     0.156 HD
ENDBRANCH   1  23
TORSDOF 1
ENDMDL
MODEL 8
REMARK VINA RESULT:      -7.2      4.696      7.715
REMARK  1 active torsions:
REMARK  status: ('A' for Active; 'I' for Inactive)
REMARK    1  A    between atoms: N1_1  and  C1_2 
ROOT
HETATM    1  C1  UNL     1      21.916   4.989  46.427  1.00  0.00     0.022 C 
HETATM    2  C2  UNL     1      21.759   3.744  46.801  1.00  0.00     0.008 C 
HETATM    3  C3  UNL     1      21.983   2.682  47.754  1.00  0.00     0.056 C 
HETATM    4  C4  UNL     1      22.009   1.611  48.340  1.00  0.00     0.076 C 
HETATM    5  C5  UNL     1      22.662   2.089  49.371  1.00  0.00    -0.080 C 
HETATM    6  P1  UNL     1      23.351   2.615  50.509  1.00  0.00    -0.025 P 
HETATM    7  N2  UNL     1      23.726   2.891  51.101  1.00  0.00    -0.360 N 
HETATM    8  C6  UNL     1      23.906   1.659  51.891  1.00  0.00     0.103 A 
HETATM    9  C7  UNL     1      22.799   1.146  52.514  1.00  0.00     0.014 A 
HETATM   10  C8  UNL     1      22.892   0.008  53.343  1.00  0.00     0.000 A 
HETATM   11  C9  UNL     1      24.194  -0.435  53.392  1.00  0.00     0.019 A 
HETATM   12  C10 UNL     1      25.368  -0.023  52.828  1.00  0.00     0.010 A 
HETATM   13 BR1  UNL     1      27.065  -0.838  53.057  1.00  0.00    -0.051 Br
HETATM   14  C11 UNL     1      25.171   1.072  52.052  1.00  0.00     0.033 A 
HETATM   15  C12 UNL     1      23.736   4.246  50.597  1.00  0.00     0.199 A 
HETATM   16  C13 UNL     1      24.605   5.274  50.692  1.00  0.00     0.087 C 
HETATM   17  N3  UNL     1      23.890   6.281  49.911  1.00  0.00    -0.415 N 
HETATM   18  C14 UNL     1      24.062   5.903  48.536  1.00  0.00     0.141 C 
HETATM   19  C15 UNL     1      23.475   6.745  47.518  1.00  0.00    -0.006 C 
HETATM   20  C16 UNL     1      22.588   6.231  46.696  1.00  0.00     0.026 C 
HETATM   21  H6  UNL     1      24.471   3.502  52.444  1.00  0.00     0.077 HD
HETATM   22  H13 UNL     1      23.322   7.140  50.013  1.00  0.00     0.153 HD
ENDROOT
BRANCH   1  23
HETATM   23  N1  UNL     1      21.267   5.285  45.159  1.00  0.00    -0.399 N 
HETATM   24  H1  UNL     1      20.401   5.138  44.600  1.00  0.00     0.156 HD
HETATM   25  H2  UNL     1      21.928   5.875  44.583  1.00  0.00     0.156 HD
ENDBRANCH   1  23
TORSDOF 1
ENDMDL
MODEL 9
REMARK VINA RESULT:      -7.2      3.913      5.353
REMARK  1 active torsions:
REMARK  status: ('A' for Active; 'I' for Inactive)
REMARK    1  A    between atoms: N1_1  and  C1_2 
ROOT
HETATM    1  C1  UNL     1      26.438   5.693  49.345  1.00  0.00     0.022 C 
HETATM    2  C2  UNL     1      27.507   5.235  48.745  1.00  0.00     0.008 C 
HETATM    3  C3  UNL     1      28.854   5.429  48.260  1.00  0.00     0.056 C 
HETATM    4  C4  UNL     1      29.953   5.288  47.748  1.00  0.00     0.076 C 
HETATM    5  C5  UNL     1      30.359   6.491  48.072  1.00  0.00    -0.080 C 
HETATM    6  P1  UNL     1      30.811   7.795  48.448  1.00  0.00    -0.025 P 
HETATM    7  N2  UNL     1      31.043   8.487  48.635  1.00  0.00    -0.360 N 
HETATM    8  C6  UNL     1      32.373   8.496  47.999  1.00  0.00     0.103 A 
HETATM    9  C7  UNL     1      33.354   7.739  48.583  1.00  0.00     0.014 A 
HETATM   10  C8  UNL     1      34.671   7.739  48.079  1.00  0.00     0.000 A 
HETATM   11  C9  UNL     1      34.760   8.576  46.990  1.00  0.00     0.019 A 
HETATM   12  C10 UNL     1      33.875   9.371  46.319  1.00  0.00     0.010 A 
HETATM   13 BR1  UNL     1      34.262  10.443  44.803  1.00  0.00    -0.051 Br
HETATM   14  C11 UNL     1      32.641   9.299  46.879  1.00  0.00     0.033 A 
HETATM   15  C12 UNL     1      29.830   8.815  49.350  1.00  0.00     0.199 A 
HETATM   16  C13 UNL     1      29.137   9.956  49.545  1.00  0.00     0.087 C 
HETATM   17  N3  UNL     1      28.039   9.447  50.366  1.00  0.00    -0.415 N 
HETATM   18  C14 UNL     1      27.168   8.749  49.462  1.00  0.00     0.141 C 
HETATM   19  C15 UNL     1      25.964   8.153  49.997  1.00  0.00    -0.006 C 
HETATM   20  C16 UNL     1      25.783   6.858  49.876  1.00  0.00     0.026 C 
HETATM   21  H6  UNL     1      31.595   9.969  49.116  1.00  0.00     0.077 HD
HETATM   22  H13 UNL     1      27.695   9.420  51.341  1.00  0.00     0.153 HD
ENDROOT
BRANCH   1  23
HETATM   23  N1  UNL     1      25.379   4.699  49.450  1.00  0.00    -0.399 N 
HETATM   24  H1  UNL     1      24.486   4.371  49.028  1.00  0.00     0.156 HD
HETATM   25  H2  UNL     1      25.601   4.070  50.270  1.00  0.00     0.156 HD
ENDBRANCH   1  23
TORSDOF 1
ENDMDL
