MODEL 1
REMARK VINA RESULT:      -9.3      0.000      0.000
REMARK  6 active torsions:
REMARK  status: ('A' for Active; 'I' for Inactive)
REMARK    1  A    between atoms: N1_2  and  C3_4 
REMARK    2  A    between atoms: C3_4  and  C4_5 
REMARK    3  A    between atoms: C5_6  and  C6_7 
REMARK       I    between atoms: C6_7  and  N2_9 
REMARK    4  A    between atoms: N2_9  and  C7_10 
REMARK    5  A    between atoms: C14_19  and  N5_20 
REMARK    6  A    between atoms: N5_20  and  C15_21 
ROOT
HETATM    1  C7  UNL     1      24.276   3.006  49.797  1.00  0.00     0.035 A 
HETATM    2  C8  UNL     1      23.150   2.780  49.044  1.00  0.00     0.032 A 
HETATM    3  C9  UNL     1      22.115   1.953  49.415  1.00  0.00     0.035 A 
HETATM    4  C10 UNL     1      22.177   1.289  50.621  1.00  0.00     0.069 A 
HETATM    5  N3  UNL     1      21.195   0.472  51.026  1.00  0.00    -0.259 NA
HETATM    6  C11 UNL     1      21.218  -0.193  52.194  1.00  0.00     0.142 A 
HETATM    7  C12 UNL     1      22.338  -0.004  53.006  1.00  0.00     0.089 A 
HETATM    8  C13 UNL     1      22.437  -0.691  54.286  1.00  0.00     0.103 C 
HETATM    9  N4  UNL     1      22.523  -1.226  55.309  1.00  0.00    -0.191 NA
HETATM   10  C14 UNL     1      23.364   0.840  52.600  1.00  0.00     0.067 A 
HETATM   11  C21 UNL     1      23.299   1.503  51.394  1.00  0.00     0.023 A 
HETATM   12  C22 UNL     1      24.311   2.332  50.994  1.00  0.00     0.045 A 
ENDROOT
BRANCH  10  13
HETATM   13  N5  UNL     1      24.481   0.995  53.465  1.00  0.00    -0.354 N 
HETATM   14  H15 UNL     1      24.125   1.636  54.210  1.00  0.00     0.166 HD
BRANCH  13  15
HETATM   15  C15 UNL     1      25.768   0.453  53.394  1.00  0.00     0.034 A 
HETATM   16  C16 UNL     1      25.939  -0.799  52.860  1.00  0.00     0.032 A 
HETATM   17  C17 UNL     1      27.236  -1.280  52.816  1.00  0.00     0.046 A 
HETATM   18  C18 UNL     1      28.286  -0.511  53.295  1.00  0.00     0.138 A 
HETATM   19  F1  UNL     1      29.572  -0.978  53.255  1.00  0.00    -0.204 F 
HETATM   20  C19 UNL     1      28.086   0.758  53.832  1.00  0.00     0.074 A 
HETATM   21 CL1  UNL     1      29.391   1.751  54.443  1.00  0.00    -0.081 Cl
HETATM   22  C20 UNL     1      26.786   1.235  53.874  1.00  0.00     0.056 A 
ENDBRANCH  13  15
ENDBRANCH  10  13
BRANCH   1  23
HETATM   23  N2  UNL     1      25.366   3.839  49.464  1.00  0.00    -0.324 N 
HETATM   24  C6  UNL     1      25.404   5.251  49.379  1.00  0.00     0.245 C 
HETATM   25  O1  UNL     1      24.388   5.916  49.615  1.00  0.00    -0.268 OA
HETATM   26  H11 UNL     1      26.294   3.424  49.239  1.00  0.00     0.169 HD
BRANCH  24  27
HETATM   27  C5  UNL     1      26.578   6.035  49.027  1.00  0.00     0.072 C 
HETATM   28  C4  UNL     1      27.586   5.282  48.590  1.00  0.00     0.008 C 
BRANCH  28  29
HETATM   29  C3  UNL     1      28.903   5.772  48.159  1.00  0.00     0.299 C 
BRANCH  29  30
HETATM   30  N1  UNL     1      28.868   7.208  48.078  1.00  0.00     0.083 N 
HETATM   31  C1  UNL     1      29.989   7.778  48.759  1.00  0.00     0.309 C 
HETATM   32  C2  UNL     1      28.871   7.623  46.696  1.00  0.00     0.309 C 
ENDBRANCH  29  30
ENDBRANCH  28  29
ENDBRANCH  24  27
ENDBRANCH   1  23
TORSDOF 6
ENDMDL
MODEL 2
REMARK VINA RESULT:      -8.6      2.787      4.260
REMARK  6 active torsions:
REMARK  status: ('A' for Active; 'I' for Inactive)
REMARK    1  A    between atoms: N1_2  and  C3_4 
REMARK    2  A    between atoms: C3_4  and  C4_5 
REMARK    3  A    between atoms: C5_6  and  C6_7 
REMARK       I    between atoms: C6_7  and  N2_9 
REMARK    4  A    between atoms: N2_9  and  C7_10 
REMARK    5  A    between atoms: C14_19  and  N5_20 
REMARK    6  A    between atoms: N5_20  and  C15_21 
ROOT
HETATM    1  C7  UNL     1      27.367   5.263  48.788  1.00  0.00     0.035 A 
HETATM    2  C8  UNL     1      26.531   6.353  48.790  1.00  0.00     0.032 A 
HETATM    3  C9  UNL     1      25.297   6.389  49.397  1.00  0.00     0.035 A 
HETATM    4  C10 UNL     1      24.833   5.272  50.058  1.00  0.00     0.069 A 
HETATM    5  N3  UNL     1      23.638   5.257  50.663  1.00  0.00    -0.259 NA
HETATM    6  C11 UNL     1      23.150   4.189  51.317  1.00  0.00     0.142 A 
HETATM    7  C12 UNL     1      23.954   3.048  51.350  1.00  0.00     0.089 A 
HETATM    8  C13 UNL     1      23.496   1.850  52.038  1.00  0.00     0.103 C 
HETATM    9  N4  UNL     1      23.144   0.894  52.589  1.00  0.00    -0.191 NA
HETATM   10  C14 UNL     1      25.196   3.048  50.728  1.00  0.00     0.067 A 
HETATM   11  C21 UNL     1      25.657   4.167  50.068  1.00  0.00     0.023 A 
HETATM   12  C22 UNL     1      26.881   4.165  49.454  1.00  0.00     0.045 A 
ENDROOT
BRANCH  10  13
HETATM   13  N5  UNL     1      25.974   1.860  50.792  1.00  0.00    -0.354 N 
HETATM   14  H15 UNL     1      25.832   1.424  49.853  1.00  0.00     0.166 HD
BRANCH  13  15
HETATM   15  C15 UNL     1      26.760   1.342  51.827  1.00  0.00     0.034 A 
HETATM   16  C16 UNL     1      27.384   2.206  52.691  1.00  0.00     0.032 A 
HETATM   17  C17 UNL     1      28.146   1.634  53.694  1.00  0.00     0.046 A 
HETATM   18  C18 UNL     1      28.252   0.255  53.794  1.00  0.00     0.138 A 
HETATM   19  F1  UNL     1      29.002  -0.321  54.784  1.00  0.00    -0.204 F 
HETATM   20  C19 UNL     1      27.607  -0.601  52.905  1.00  0.00     0.074 A 
HETATM   21 CL1  UNL     1      27.722  -2.344  53.007  1.00  0.00    -0.081 Cl
HETATM   22  C20 UNL     1      26.846  -0.023  51.902  1.00  0.00     0.056 A 
ENDBRANCH  13  15
ENDBRANCH  10  13
BRANCH   1  23
HETATM   23  N2  UNL     1      28.638   5.171  48.181  1.00  0.00    -0.324 N 
HETATM   24  C6  UNL     1      29.669   6.138  48.141  1.00  0.00     0.245 C 
HETATM   25  O1  UNL     1      29.513   7.237  48.689  1.00  0.00    -0.268 OA
HETATM   26  H11 UNL     1      28.918   4.303  47.678  1.00  0.00     0.169 HD
BRANCH  24  27
HETATM   27  C5  UNL     1      30.958   5.961  47.489  1.00  0.00     0.072 C 
HETATM   28  C4  UNL     1      31.324   4.682  47.418  1.00  0.00     0.008 C 
BRANCH  28  29
HETATM   29  C3  UNL     1      32.567   4.174  46.821  1.00  0.00     0.299 C 
BRANCH  29  30
HETATM   30  N1  UNL     1      33.094   3.123  47.652  1.00  0.00     0.083 N 
HETATM   31  C1  UNL     1      32.776   1.841  47.104  1.00  0.00     0.309 C 
HETATM   32  C2  UNL     1      34.524   3.263  47.773  1.00  0.00     0.309 C 
ENDBRANCH  29  30
ENDBRANCH  28  29
ENDBRANCH  24  27
ENDBRANCH   1  23
TORSDOF 6
ENDMDL
MODEL 3
REMARK VINA RESULT:      -8.5      4.204      8.664
REMARK  6 active torsions:
REMARK  status: ('A' for Active; 'I' for Inactive)
REMARK    1  A    between atoms: N1_2  and  C3_4 
REMARK    2  A    between atoms: C3_4  and  C4_5 
REMARK    3  A    between atoms: C5_6  and  C6_7 
REMARK       I    between atoms: C6_7  and  N2_9 
REMARK    4  A    between atoms: N2_9  and  C7_10 
REMARK    5  A    between atoms: C14_19  and  N5_20 
REMARK    6  A    between atoms: N5_20  and  C15_21 
ROOT
HETATM    1  C7  UNL     1      22.127  -0.883  53.802  1.00  0.00     0.035 A 
HETATM    2  C8  UNL     1      22.492  -1.546  54.948  1.00  0.00     0.032 A 
HETATM    3  C9  UNL     1      23.738  -1.475  55.527  1.00  0.00     0.035 A 
HETATM    4  C10 UNL     1      24.713  -0.693  54.947  1.00  0.00     0.069 A 
HETATM    5  N3  UNL     1      25.941  -0.593  55.472  1.00  0.00    -0.259 NA
HETATM    6  C11 UNL     1      26.919   0.158  54.936  1.00  0.00     0.142 A 
HETATM    7  C12 UNL     1      26.608   0.858  53.769  1.00  0.00     0.089 A 
HETATM    8  C13 UNL     1      27.614   1.692  53.128  1.00  0.00     0.103 C 
HETATM    9  N4  UNL     1      28.404   2.365  52.614  1.00  0.00    -0.191 NA
HETATM   10  C14 UNL     1      25.339   0.764  53.212  1.00  0.00     0.067 A 
HETATM   11  C21 UNL     1      24.366  -0.018  53.795  1.00  0.00     0.023 A 
HETATM   12  C22 UNL     1      23.117  -0.110  53.245  1.00  0.00     0.045 A 
ENDROOT
BRANCH  10  13
HETATM   13  N5  UNL     1      25.077   1.498  52.023  1.00  0.00    -0.354 N 
HETATM   14  H15 UNL     1      25.474   0.893  51.270  1.00  0.00     0.166 HD
BRANCH  13  15
HETATM   15  C15 UNL     1      24.447   2.733  51.837  1.00  0.00     0.034 A 
HETATM   16  C16 UNL     1      24.065   3.462  52.934  1.00  0.00     0.032 A 
HETATM   17  C17 UNL     1      23.448   4.676  52.685  1.00  0.00     0.046 A 
HETATM   18  C18 UNL     1      23.242   5.104  51.382  1.00  0.00     0.138 A 
HETATM   19  F1  UNL     1      22.633   6.303  51.126  1.00  0.00    -0.204 F 
HETATM   20  C19 UNL     1      23.641   4.345  50.285  1.00  0.00     0.074 A 
HETATM   21 CL1  UNL     1      23.395   4.859  48.630  1.00  0.00    -0.081 Cl
HETATM   22  C20 UNL     1      24.257   3.131  50.540  1.00  0.00     0.056 A 
ENDBRANCH  13  15
ENDBRANCH  10  13
BRANCH   1  23
HETATM   23  N2  UNL     1      20.868  -0.922  53.165  1.00  0.00    -0.324 N 
HETATM   24  C6  UNL     1      19.969   0.143  52.920  1.00  0.00     0.245 C 
HETATM   25  O1  UNL     1      20.253   1.292  53.282  1.00  0.00    -0.268 OA
HETATM   26  H11 UNL     1      20.490  -1.823  52.803  1.00  0.00     0.169 HD
BRANCH  24  27
HETATM   27  C5  UNL     1      18.683   0.015  52.251  1.00  0.00     0.072 C 
HETATM   28  C4  UNL     1      17.919  -0.935  52.788  1.00  0.00     0.008 C 
BRANCH  28  29
HETATM   29  C3  UNL     1      16.570  -1.310  52.341  1.00  0.00     0.299 C 
BRANCH  29  30
HETATM   30  N1  UNL     1      15.872  -0.127  51.908  1.00  0.00     0.083 N 
HETATM   31  C1  UNL     1      15.236  -0.352  50.647  1.00  0.00     0.309 C 
HETATM   32  C2  UNL     1      14.889   0.251  52.893  1.00  0.00     0.309 C 
ENDBRANCH  29  30
ENDBRANCH  28  29
ENDBRANCH  24  27
ENDBRANCH   1  23
TORSDOF 6
ENDMDL
MODEL 4
REMARK VINA RESULT:      -8.4      2.039      2.757
REMARK  6 active torsions:
REMARK  status: ('A' for Active; 'I' for Inactive)
REMARK    1  A    between atoms: N1_2  and  C3_4 
REMARK    2  A    between atoms: C3_4  and  C4_5 
REMARK    3  A    between atoms: C5_6  and  C6_7 
REMARK       I    between atoms: C6_7  and  N2_9 
REMARK    4  A    between atoms: N2_9  and  C7_10 
REMARK    5  A    between atoms: C14_19  and  N5_20 
REMARK    6  A    between atoms: N5_20  and  C15_21 
ROOT
HETATM    1  C7  UNL     1      25.902   4.990  49.975  1.00  0.00     0.035 A 
HETATM    2  C8  UNL     1      24.860   5.865  50.161  1.00  0.00     0.032 A 
HETATM    3  C9  UNL     1      23.677   5.548  50.787  1.00  0.00     0.035 A 
HETATM    4  C10 UNL     1      23.487   4.273  51.273  1.00  0.00     0.069 A 
HETATM    5  N3  UNL     1      22.352   3.916  51.888  1.00  0.00    -0.259 NA
HETATM    6  C11 UNL     1      22.128   2.683  52.376  1.00  0.00     0.142 A 
HETATM    7  C12 UNL     1      23.151   1.747  52.217  1.00  0.00     0.089 A 
HETATM    8  C13 UNL     1      22.984   0.390  52.717  1.00  0.00     0.103 C 
HETATM    9  N4  UNL     1      22.865  -0.690  53.119  1.00  0.00    -0.191 NA
HETATM   10  C14 UNL     1      24.334   2.102  51.582  1.00  0.00     0.067 A 
HETATM   11  C21 UNL     1      24.521   3.378  51.097  1.00  0.00     0.023 A 
HETATM   12  C22 UNL     1      25.687   3.727  50.470  1.00  0.00     0.045 A 
ENDROOT
BRANCH  10  13
HETATM   13  N5  UNL     1      25.342   1.109  51.447  1.00  0.00    -0.354 N 
HETATM   14  H15 UNL     1      25.142   0.683  50.514  1.00  0.00     0.166 HD
BRANCH  13  15
HETATM   15  C15 UNL     1      26.379   0.742  52.312  1.00  0.00     0.034 A 
HETATM   16  C16 UNL     1      26.889   1.674  53.179  1.00  0.00     0.032 A 
HETATM   17  C17 UNL     1      27.911   1.251  54.010  1.00  0.00     0.046 A 
HETATM   18  C18 UNL     1      28.373  -0.055  53.945  1.00  0.00     0.138 A 
HETATM   19  F1  UNL     1      29.383  -0.484  54.763  1.00  0.00    -0.204 F 
HETATM   20  C19 UNL     1      27.837  -0.983  53.056  1.00  0.00     0.074 A 
HETATM   21 CL1  UNL     1      28.398  -2.638  52.951  1.00  0.00    -0.081 Cl
HETATM   22  C20 UNL     1      26.814  -0.554  52.225  1.00  0.00     0.056 A 
ENDBRANCH  13  15
ENDBRANCH  10  13
BRANCH   1  23
HETATM   23  N2  UNL     1      27.133   5.260  49.340  1.00  0.00    -0.324 N 
HETATM   24  C6  UNL     1      27.435   6.266  48.391  1.00  0.00     0.245 C 
HETATM   25  O1  UNL     1      26.556   7.054  48.019  1.00  0.00    -0.268 OA
HETATM   26  H11 UNL     1      27.972   4.679  49.551  1.00  0.00     0.169 HD
BRANCH  24  27
HETATM   27  C5  UNL     1      28.740   6.476  47.782  1.00  0.00     0.072 C 
HETATM   28  C4  UNL     1      29.616   5.527  48.107  1.00  0.00     0.008 C 
BRANCH  28  29
HETATM   29  C3  UNL     1      31.013   5.454  47.656  1.00  0.00     0.299 C 
BRANCH  29  30
HETATM   30  N1  UNL     1      31.796   6.411  48.393  1.00  0.00     0.083 N 
HETATM   31  C1  UNL     1      31.921   6.013  49.761  1.00  0.00     0.309 C 
HETATM   32  C2  UNL     1      33.104   6.538  47.799  1.00  0.00     0.309 C 
ENDBRANCH  29  30
ENDBRANCH  28  29
ENDBRANCH  24  27
ENDBRANCH   1  23
TORSDOF 6
ENDMDL
MODEL 5
REMARK VINA RESULT:      -8.3      3.187      4.998
REMARK  6 active torsions:
REMARK  status: ('A' for Active; 'I' for Inactive)
REMARK    1  A    between atoms: N1_2  and  C3_4 
REMARK    2  A    between atoms: C3_4  and  C4_5 
REMARK    3  A    between atoms: C5_6  and  C6_7 
REMARK       I    between atoms: C6_7  and  N2_9 
REMARK    4  A    between atoms: N2_9  and  C7_10 
REMARK    5  A    between atoms: C14_19  and  N5_20 
REMARK    6  A    between atoms: N5_20  and  C15_21 
ROOT
HETATM    1  C7  UNL     1      26.594   1.707  51.924  1.00  0.00     0.035 A 
HETATM    2  C8  UNL     1      27.505   1.473  52.925  1.00  0.00     0.032 A 
HETATM    3  C9  UNL     1      27.249   0.731  54.056  1.00  0.00     0.035 A 
HETATM    4  C10 UNL     1      26.003   0.169  54.230  1.00  0.00     0.069 A 
HETATM    5  N3  UNL     1      25.705  -0.559  55.315  1.00  0.00    -0.259 NA
HETATM    6  C11 UNL     1      24.502  -1.123  55.522  1.00  0.00     0.142 A 
HETATM    7  C12 UNL     1      23.532  -0.921  54.538  1.00  0.00     0.089 A 
HETATM    8  C13 UNL     1      22.205  -1.499  54.691  1.00  0.00     0.103 C 
HETATM    9  N4  UNL     1      21.148  -1.960  54.799  1.00  0.00    -0.191 NA
HETATM   10  C14 UNL     1      23.826  -0.168  53.409  1.00  0.00     0.067 A 
HETATM   11  C21 UNL     1      25.073   0.392  53.236  1.00  0.00     0.023 A 
HETATM   12  C22 UNL     1      25.361   1.135  52.123  1.00  0.00     0.045 A 
ENDROOT
BRANCH  10  13
HETATM   13  N5  UNL     1      22.802   0.006  52.439  1.00  0.00    -0.354 N 
HETATM   14  H15 UNL     1      22.920  -0.818  51.807  1.00  0.00     0.166 HD
BRANCH  13  15
HETATM   15  C15 UNL     1      21.838   1.011  52.305  1.00  0.00     0.034 A 
HETATM   16  C16 UNL     1      20.515   0.663  52.207  1.00  0.00     0.032 A 
HETATM   17  C17 UNL     1      19.610   1.701  52.078  1.00  0.00     0.046 A 
HETATM   18  C18 UNL     1      20.050   3.016  52.053  1.00  0.00     0.138 A 
HETATM   19  F1  UNL     1      19.163   4.050  51.927  1.00  0.00    -0.204 F 
HETATM   20  C19 UNL     1      21.399   3.344  52.156  1.00  0.00     0.074 A 
HETATM   21 CL1  UNL     1      21.984   4.994  52.129  1.00  0.00    -0.081 Cl
HETATM   22  C20 UNL     1      22.301   2.300  52.284  1.00  0.00     0.056 A 
ENDBRANCH  13  15
ENDBRANCH  10  13
BRANCH   1  23
HETATM   23  N2  UNL     1      26.802   2.459  50.748  1.00  0.00    -0.324 N 
HETATM   24  C6  UNL     1      26.113   3.613  50.305  1.00  0.00     0.245 C 
HETATM   25  O1  UNL     1      25.193   4.087  50.984  1.00  0.00    -0.268 OA
HETATM   26  H11 UNL     1      27.544   2.183  50.071  1.00  0.00     0.169 HD
BRANCH  24  27
HETATM   27  C5  UNL     1      26.392   4.332  49.071  1.00  0.00     0.072 C 
HETATM   28  C4  UNL     1      26.649   5.623  49.277  1.00  0.00     0.008 C 
BRANCH  28  29
HETATM   29  C3  UNL     1      26.966   6.614  48.240  1.00  0.00     0.299 C 
BRANCH  29  30
HETATM   30  N1  UNL     1      26.855   7.935  48.801  1.00  0.00     0.083 N 
HETATM   31  C1  UNL     1      26.168   7.893  50.055  1.00  0.00     0.309 C 
HETATM   32  C2  UNL     1      28.168   8.504  48.982  1.00  0.00     0.309 C 
ENDBRANCH  29  30
ENDBRANCH  28  29
ENDBRANCH  24  27
ENDBRANCH   1  23
TORSDOF 6
ENDMDL
MODEL 6
REMARK VINA RESULT:      -8.2      3.224      4.969
REMARK  6 active torsions:
REMARK  status: ('A' for Active; 'I' for Inactive)
REMARK    1  A    between atoms: N1_2  and  C3_4 
REMARK    2  A    between atoms: C3_4  and  C4_5 
REMARK    3  A    between atoms: C5_6  and  C6_7 
REMARK       I    between atoms: C6_7  and  N2_9 
REMARK    4  A    between atoms: N2_9  and  C7_10 
REMARK    5  A    between atoms: C14_19  and  N5_20 
REMARK    6  A    between atoms: N5_20  and  C15_21 
ROOT
HETATM    1  C7  UNL     1      26.332   2.439  51.622  1.00  0.00     0.035 A 
HETATM    2  C8  UNL     1      27.115   1.509  52.261  1.00  0.00     0.032 A 
HETATM    3  C9  UNL     1      26.630   0.469  53.020  1.00  0.00     0.035 A 
HETATM    4  C10 UNL     1      25.269   0.318  53.172  1.00  0.00     0.069 A 
HETATM    5  N3  UNL     1      24.748  -0.677  53.902  1.00  0.00    -0.259 NA
HETATM    6  C11 UNL     1      23.427  -0.858  54.075  1.00  0.00     0.142 A 
HETATM    7  C12 UNL     1      22.578   0.056  53.450  1.00  0.00     0.089 A 
HETATM    8  C13 UNL     1      21.134  -0.072  53.591  1.00  0.00     0.103 C 
HETATM    9  N4  UNL     1      19.985  -0.169  53.689  1.00  0.00    -0.191 NA
HETATM   10  C14 UNL     1      23.103   1.093  52.689  1.00  0.00     0.067 A 
HETATM   11  C21 UNL     1      24.464   1.241  52.538  1.00  0.00     0.023 A 
HETATM   12  C22 UNL     1      24.980   2.265  51.790  1.00  0.00     0.045 A 
ENDROOT
BRANCH  10  13
HETATM   13  N5  UNL     1      22.192   1.996  52.075  1.00  0.00    -0.354 N 
HETATM   14  H15 UNL     1      21.780   2.515  52.882  1.00  0.00     0.166 HD
BRANCH  13  15
HETATM   15  C15 UNL     1      21.879   2.193  50.726  1.00  0.00     0.034 A 
HETATM   16  C16 UNL     1      21.715   1.103  49.910  1.00  0.00     0.032 A 
HETATM   17  C17 UNL     1      21.404   1.362  48.586  1.00  0.00     0.046 A 
HETATM   18  C18 UNL     1      21.271   2.668  48.140  1.00  0.00     0.138 A 
HETATM   19  F1  UNL     1      20.963   2.935  46.834  1.00  0.00    -0.204 F 
HETATM   20  C19 UNL     1      21.441   3.759  48.989  1.00  0.00     0.074 A 
HETATM   21 CL1  UNL     1      21.279   5.417  48.455  1.00  0.00    -0.081 Cl
HETATM   22  C20 UNL     1      21.753   3.493  50.313  1.00  0.00     0.056 A 
ENDBRANCH  13  15
ENDBRANCH  10  13
BRANCH   1  23
HETATM   23  N2  UNL     1      26.776   3.524  50.835  1.00  0.00    -0.324 N 
HETATM   24  C6  UNL     1      26.203   4.050  49.654  1.00  0.00     0.245 C 
HETATM   25  O1  UNL     1      25.174   3.547  49.184  1.00  0.00    -0.268 OA
HETATM   26  H11 UNL     1      27.633   4.051  51.104  1.00  0.00     0.169 HD
BRANCH  24  27
HETATM   27  C5  UNL     1      26.728   5.179  48.900  1.00  0.00     0.072 C 
HETATM   28  C4  UNL     1      28.030   5.064  48.645  1.00  0.00     0.008 C 
BRANCH  28  29
HETATM   29  C3  UNL     1      28.852   6.034  47.908  1.00  0.00     0.299 C 
BRANCH  29  30
HETATM   30  N1  UNL     1      30.127   6.164  48.564  1.00  0.00     0.083 N 
HETATM   31  C1  UNL     1      31.127   5.409  47.874  1.00  0.00     0.309 C 
HETATM   32  C2  UNL     1      30.512   7.553  48.617  1.00  0.00     0.309 C 
ENDBRANCH  29  30
ENDBRANCH  28  29
ENDBRANCH  24  27
ENDBRANCH   1  23
TORSDOF 6
ENDMDL
MODEL 7
REMARK VINA RESULT:      -8.1      3.464      5.212
REMARK  6 active torsions:
REMARK  status: ('A' for Active; 'I' for Inactive)
REMARK    1  A    between atoms: N1_2  and  C3_4 
REMARK    2  A    between atoms: C3_4  and  C4_5 
REMARK    3  A    between atoms: C5_6  and  C6_7 
REMARK       I    between atoms: C6_7  and  N2_9 
REMARK    4  A    between atoms: N2_9  and  C7_10 
REMARK    5  A    between atoms: C14_19  and  N5_20 
REMARK    6  A    between atoms: N5_20  and  C15_21 
ROOT
HETATM    1  C7  UNL     1      26.418   2.359  51.693  1.00  0.00     0.035 A 
HETATM    2  C8  UNL     1      27.201   1.405  52.294  1.00  0.00     0.032 A 
HETATM    3  C9  UNL     1      26.717   0.367  53.059  1.00  0.00     0.035 A 
HETATM    4  C10 UNL     1      25.359   0.246  53.257  1.00  0.00     0.069 A 
HETATM    5  N3  UNL     1      24.841  -0.745  53.994  1.00  0.00    -0.259 NA
HETATM    6  C11 UNL     1      23.523  -0.898  54.211  1.00  0.00     0.142 A 
HETATM    7  C12 UNL     1      22.674   0.043  53.624  1.00  0.00     0.089 A 
HETATM    8  C13 UNL     1      21.234  -0.054  53.814  1.00  0.00     0.103 C 
HETATM    9  N4  UNL     1      20.086  -0.126  53.951  1.00  0.00    -0.191 NA
HETATM   10  C14 UNL     1      23.197   1.076  52.857  1.00  0.00     0.067 A 
HETATM   11  C21 UNL     1      24.555   1.195  52.661  1.00  0.00     0.023 A 
HETATM   12  C22 UNL     1      25.069   2.214  51.906  1.00  0.00     0.045 A 
ENDROOT
BRANCH  10  13
HETATM   13  N5  UNL     1      22.287   2.006  52.284  1.00  0.00    -0.354 N 
HETATM   14  H15 UNL     1      22.055   2.642  53.079  1.00  0.00     0.166 HD
BRANCH  13  15
HETATM   15  C15 UNL     1      21.785   2.102  50.981  1.00  0.00     0.034 A 
HETATM   16  C16 UNL     1      21.682   0.968  50.218  1.00  0.00     0.032 A 
HETATM   17  C17 UNL     1      21.177   1.127  48.939  1.00  0.00     0.046 A 
HETATM   18  C18 UNL     1      20.804   2.383  48.484  1.00  0.00     0.138 A 
HETATM   19  F1  UNL     1      20.303   2.550  47.221  1.00  0.00    -0.204 F 
HETATM   20  C19 UNL     1      20.918   3.519  49.279  1.00  0.00     0.074 A 
HETATM   21 CL1  UNL     1      20.454   5.116  48.733  1.00  0.00    -0.081 Cl
HETATM   22  C20 UNL     1      21.424   3.354  50.559  1.00  0.00     0.056 A 
ENDBRANCH  13  15
ENDBRANCH  10  13
BRANCH   1  23
HETATM   23  N2  UNL     1      26.859   3.443  50.903  1.00  0.00    -0.324 N 
HETATM   24  C6  UNL     1      26.276   3.973  49.728  1.00  0.00     0.245 C 
HETATM   25  O1  UNL     1      25.240   3.477  49.269  1.00  0.00    -0.268 OA
HETATM   26  H11 UNL     1      27.723   3.964  51.162  1.00  0.00     0.169 HD
BRANCH  24  27
HETATM   27  C5  UNL     1      26.800   5.100  48.970  1.00  0.00     0.072 C 
HETATM   28  C4  UNL     1      26.008   6.170  49.029  1.00  0.00     0.008 C 
BRANCH  28  29
HETATM   29  C3  UNL     1      26.254   7.461  48.373  1.00  0.00     0.299 C 
BRANCH  29  30
HETATM   30  N1  UNL     1      25.916   8.524  49.283  1.00  0.00     0.083 N 
HETATM   31  C1  UNL     1      24.827   8.137  50.125  1.00  0.00     0.309 C 
HETATM   32  C2  UNL     1      27.062   8.864  50.090  1.00  0.00     0.309 C 
ENDBRANCH  29  30
ENDBRANCH  28  29
ENDBRANCH  24  27
ENDBRANCH   1  23
TORSDOF 6
ENDMDL
MODEL 8
REMARK VINA RESULT:      -8.0      1.710      2.143
REMARK  6 active torsions:
REMARK  status: ('A' for Active; 'I' for Inactive)
REMARK    1  A    between atoms: N1_2  and  C3_4 
REMARK    2  A    between atoms: C3_4  and  C4_5 
REMARK    3  A    between atoms: C5_6  and  C6_7 
REMARK       I    between atoms: C6_7  and  N2_9 
REMARK    4  A    between atoms: N2_9  and  C7_10 
REMARK    5  A    between atoms: C14_19  and  N5_20 
REMARK    6  A    between atoms: N5_20  and  C15_21 
ROOT
HETATM    1  C7  UNL     1      23.870   3.095  49.435  1.00  0.00     0.035 A 
HETATM    2  C8  UNL     1      22.814   2.782  48.616  1.00  0.00     0.032 A 
HETATM    3  C9  UNL     1      21.770   1.957  48.968  1.00  0.00     0.035 A 
HETATM    4  C10 UNL     1      21.749   1.388  50.222  1.00  0.00     0.069 A 
HETATM    5  N3  UNL     1      20.756   0.577  50.611  1.00  0.00    -0.259 NA
HETATM    6  C11 UNL     1      20.699   0.002  51.825  1.00  0.00     0.142 A 
HETATM    7  C12 UNL     1      21.746   0.282  52.705  1.00  0.00     0.089 A 
HETATM    8  C13 UNL     1      21.757  -0.304  54.038  1.00  0.00     0.103 C 
HETATM    9  N4  UNL     1      21.771  -0.758  55.103  1.00  0.00    -0.191 NA
HETATM   10  C14 UNL     1      22.783   1.121  52.317  1.00  0.00     0.067 A 
HETATM   11  C21 UNL     1      22.801   1.690  51.062  1.00  0.00     0.023 A 
HETATM   12  C22 UNL     1      23.824   2.514  50.680  1.00  0.00     0.045 A 
ENDROOT
BRANCH  10  13
HETATM   13  N5  UNL     1      23.823   1.372  53.252  1.00  0.00    -0.354 N 
HETATM   14  H15 UNL     1      23.349   1.920  54.004  1.00  0.00     0.166 HD
BRANCH  13  15
HETATM   15  C15 UNL     1      25.172   1.003  53.232  1.00  0.00     0.034 A 
HETATM   16  C16 UNL     1      26.129   1.946  53.510  1.00  0.00     0.032 A 
HETATM   17  C17 UNL     1      27.445   1.520  53.476  1.00  0.00     0.046 A 
HETATM   18  C18 UNL     1      27.748   0.201  53.174  1.00  0.00     0.138 A 
HETATM   19  F1  UNL     1      29.046  -0.230  53.139  1.00  0.00    -0.204 F 
HETATM   20  C19 UNL     1      26.758  -0.738  52.897  1.00  0.00     0.074 A 
HETATM   21 CL1  UNL     1      27.109  -2.409  52.513  1.00  0.00    -0.081 Cl
HETATM   22  C20 UNL     1      25.442  -0.306  52.931  1.00  0.00     0.056 A 
ENDBRANCH  13  15
ENDBRANCH  10  13
BRANCH   1  23
HETATM   23  N2  UNL     1      24.966   3.930  49.126  1.00  0.00    -0.324 N 
HETATM   24  C6  UNL     1      25.049   5.340  49.201  1.00  0.00     0.245 C 
HETATM   25  O1  UNL     1      24.075   6.002  49.582  1.00  0.00    -0.268 OA
HETATM   26  H11 UNL     1      25.862   3.518  48.790  1.00  0.00     0.169 HD
BRANCH  24  27
HETATM   27  C5  UNL     1      26.225   6.127  48.861  1.00  0.00     0.072 C 
HETATM   28  C4  UNL     1      25.915   7.335  48.392  1.00  0.00     0.008 C 
BRANCH  28  29
HETATM   29  C3  UNL     1      26.872   8.364  47.962  1.00  0.00     0.299 C 
BRANCH  29  30
HETATM   30  N1  UNL     1      26.227   9.243  47.022  1.00  0.00     0.083 N 
HETATM   31  C1  UNL     1      25.926   8.548  45.808  1.00  0.00     0.309 C 
HETATM   32  C2  UNL     1      25.015   9.773  47.596  1.00  0.00     0.309 C 
ENDBRANCH  29  30
ENDBRANCH  28  29
ENDBRANCH  24  27
ENDBRANCH   1  23
TORSDOF 6
ENDMDL
MODEL 9
REMARK VINA RESULT:      -7.9      4.619      6.878
REMARK  6 active torsions:
REMARK  status: ('A' for Active; 'I' for Inactive)
REMARK    1  A    between atoms: N1_2  and  C3_4 
REMARK    2  A    between atoms: C3_4  and  C4_5 
REMARK    3  A    between atoms: C5_6  and  C6_7 
REMARK       I    between atoms: C6_7  and  N2_9 
REMARK    4  A    between atoms: N2_9  and  C7_10 
REMARK    5  A    between atoms: C14_19  and  N5_20 
REMARK    6  A    between atoms: N5_20  and  C15_21 
ROOT
HETATM    1  C7  UNL     1      23.074   0.048  53.193  1.00  0.00     0.035 A 
HETATM    2  C8  UNL     1      22.633  -0.680  54.271  1.00  0.00     0.032 A 
HETATM    3  C9  UNL     1      21.335  -1.096  54.453  1.00  0.00     0.035 A 
HETATM    4  C10 UNL     1      20.382  -0.780  53.509  1.00  0.00     0.069 A 
HETATM    5  N3  UNL     1      19.105  -1.161  53.643  1.00  0.00    -0.259 NA
HETATM    6  C11 UNL     1      18.146  -0.873  52.745  1.00  0.00     0.142 A 
HETATM    7  C12 UNL     1      18.533  -0.134  51.625  1.00  0.00     0.089 A 
HETATM    8  C13 UNL     1      17.552   0.219  50.609  1.00  0.00     0.103 C 
HETATM    9  N4  UNL     1      16.782   0.499  49.790  1.00  0.00    -0.191 NA
HETATM   10  C14 UNL     1      19.853   0.268  51.473  1.00  0.00     0.067 A 
HETATM   11  C21 UNL     1      20.804  -0.050  52.418  1.00  0.00     0.023 A 
HETATM   12  C22 UNL     1      22.104   0.349  52.267  1.00  0.00     0.045 A 
ENDROOT
BRANCH  10  13
HETATM   13  N5  UNL     1      20.192   1.019  50.314  1.00  0.00    -0.354 N 
HETATM   14  H15 UNL     1      20.220   0.300  49.557  1.00  0.00     0.166 HD
BRANCH  13  15
HETATM   15  C15 UNL     1      20.439   2.387  50.157  1.00  0.00     0.034 A 
HETATM   16  C16 UNL     1      19.541   3.293  50.661  1.00  0.00     0.032 A 
HETATM   17  C17 UNL     1      19.841   4.631  50.475  1.00  0.00     0.046 A 
HETATM   18  C18 UNL     1      21.000   5.003  49.810  1.00  0.00     0.138 A 
HETATM   19  F1  UNL     1      21.307   6.324  49.623  1.00  0.00    -0.204 F 
HETATM   20  C19 UNL     1      21.897   4.064  49.309  1.00  0.00     0.074 A 
HETATM   21 CL1  UNL     1      23.366   4.504  48.466  1.00  0.00    -0.081 Cl
HETATM   22  C20 UNL     1      21.591   2.726  49.497  1.00  0.00     0.056 A 
ENDBRANCH  13  15
ENDBRANCH  10  13
BRANCH   1  23
HETATM   23  N2  UNL     1      24.390   0.503  52.957  1.00  0.00    -0.324 N 
HETATM   24  C6  UNL     1      24.879   1.830  52.965  1.00  0.00     0.245 C 
HETATM   25  O1  UNL     1      24.114   2.774  53.202  1.00  0.00    -0.268 OA
HETATM   26  H11 UNL     1      25.150  -0.177  52.743  1.00  0.00     0.169 HD
BRANCH  24  27
HETATM   27  C5  UNL     1      26.259   2.214  52.710  1.00  0.00     0.072 C 
HETATM   28  C4  UNL     1      27.106   1.708  53.606  1.00  0.00     0.008 C 
BRANCH  28  29
HETATM   29  C3  UNL     1      28.561   1.910  53.626  1.00  0.00     0.299 C 
BRANCH  29  30
HETATM   30  N1  UNL     1      29.176   0.833  54.357  1.00  0.00     0.083 N 
HETATM   31  C1  UNL     1      28.191   0.090  55.080  1.00  0.00     0.309 C 
HETATM   32  C2  UNL     1      29.878  -0.039  53.448  1.00  0.00     0.309 C 
ENDBRANCH  29  30
ENDBRANCH  28  29
ENDBRANCH  24  27
ENDBRANCH   1  23
TORSDOF 6
ENDMDL
