MODEL 1
REMARK VINA RESULT:      -7.7      0.000      0.000
REMARK  5 active torsions:
REMARK  status: ('A' for Active; 'I' for Inactive)
REMARK    1  A    between atoms: C3_3  and  C4_4 
REMARK    2  A    between atoms: C4_4  and  O1_23 
REMARK    3  A    between atoms: C5_5  and  N1_6 
REMARK    4  A    between atoms: N1_6  and  C6_7 
REMARK    5  A    between atoms: C11_14  and  C12_15 
ROOT
HETATM    1  C6  UNL     1      23.748  -0.968  54.754  1.00  0.00     0.743 A 
HETATM    2  N2  UNL     1      22.751  -1.731  55.248  1.00  0.00    -0.071 NA
HETATM    3  C7  UNL     1      21.485  -1.611  54.791  1.00  0.00     0.169 A 
HETATM    4  C8  UNL     1      21.236  -0.672  53.790  1.00  0.00     0.099 A 
HETATM    5  C9  UNL     1      20.095  -0.284  53.099  1.00  0.00     0.066 A 
HETATM    6 CL1  UNL     1      18.484  -0.939  53.321  1.00  0.00    -0.082 Cl
HETATM    7  C10 UNL     1      20.420   0.714  52.191  1.00  0.00     0.059 A 
HETATM    8  C11 UNL     1      21.781   0.911  52.359  1.00  0.00     0.074 A 
HETATM    9  N5  UNL     1      22.252   0.083  53.309  1.00  0.00    -0.214 N 
HETATM   10  N6  UNL     1      23.497  -0.065  53.788  1.00  0.00     0.027 NA
ENDROOT
BRANCH   1  11
HETATM   11  N1  UNL     1      25.065  -1.119  55.255  1.00  0.00    -0.194 N 
HETATM   12  H7  UNL     1      25.388  -2.041  55.621  1.00  0.00     0.183 HD
BRANCH  11  13
HETATM   13  C5  UNL     1      25.989  -0.062  55.289  1.00  0.00     0.143 C 
HETATM   14  C4  UNL     1      26.953   0.162  54.409  1.00  0.00     0.083 C 
BRANCH  14  15
HETATM   15  C3  UNL     1      27.153  -0.709  53.272  1.00  0.00     0.034 C 
HETATM   16  C2  UNL     1      26.817  -0.388  52.036  1.00  0.00    -0.028 C 
HETATM   17  C1  UNL     1      26.196   0.926  51.734  1.00  0.00     0.036 C 
ENDBRANCH  14  15
BRANCH  14  18
HETATM   18  O1  UNL     1      27.761   1.270  54.628  1.00  0.00    -0.355 OA
HETATM   19  C16 UNL     1      29.133   1.281  54.334  1.00  0.00     0.210 C 
ENDBRANCH  14  18
ENDBRANCH  11  13
ENDBRANCH   1  11
BRANCH   8  20
HETATM   20  C12 UNL     1      22.543   1.887  51.590  1.00  0.00     0.029 A 
HETATM   21  C13 UNL     1      22.827   1.778  50.243  1.00  0.00     0.154 A 
HETATM   22  N3  UNL     1      23.550   2.855  49.847  1.00  0.00    -0.185 NA
HETATM   23  N4  UNL     1      23.703   3.608  50.929  1.00  0.00    -0.285 N 
HETATM   24  C14 UNL     1      24.458   4.856  50.788  1.00  0.00     0.179 C 
HETATM   25  C15 UNL     1      23.115   3.058  51.980  1.00  0.00     0.127 A 
ENDBRANCH   8  20
TORSDOF 5
ENDMDL
MODEL 2
REMARK VINA RESULT:      -7.5      2.671      5.857
REMARK  5 active torsions:
REMARK  status: ('A' for Active; 'I' for Inactive)
REMARK    1  A    between atoms: C3_3  and  C4_4 
REMARK    2  A    between atoms: C4_4  and  O1_23 
REMARK    3  A    between atoms: C5_5  and  N1_6 
REMARK    4  A    between atoms: N1_6  and  C6_7 
REMARK    5  A    between atoms: C11_14  and  C12_15 
ROOT
HETATM    1  C6  UNL     1      23.887   3.365  52.230  1.00  0.00     0.743 A 
HETATM    2  N2  UNL     1      22.547   3.230  52.157  1.00  0.00    -0.071 NA
HETATM    3  C7  UNL     1      21.934   2.093  52.557  1.00  0.00     0.169 A 
HETATM    4  C8  UNL     1      22.730   1.060  53.051  1.00  0.00     0.099 A 
HETATM    5  C9  UNL     1      22.459  -0.212  53.540  1.00  0.00     0.066 A 
HETATM    6 CL1  UNL     1      20.872  -0.943  53.684  1.00  0.00    -0.082 Cl
HETATM    7  C10 UNL     1      23.646  -0.832  53.904  1.00  0.00     0.059 A 
HETATM    8  C11 UNL     1      24.630   0.102  53.620  1.00  0.00     0.074 A 
HETATM    9  N5  UNL     1      24.073   1.217  53.116  1.00  0.00    -0.214 N 
HETATM   10  N6  UNL     1      24.646   2.361  52.709  1.00  0.00     0.027 NA
ENDROOT
BRANCH   1  11
HETATM   11  N1  UNL     1      24.498   4.570  51.802  1.00  0.00    -0.194 N 
HETATM   12  H7  UNL     1      25.200   5.049  52.407  1.00  0.00     0.183 HD
BRANCH  11  13
HETATM   13  C5  UNL     1      24.203   5.174  50.569  1.00  0.00     0.143 C 
HETATM   14  C4  UNL     1      24.847   4.978  49.428  1.00  0.00     0.083 C 
BRANCH  14  15
HETATM   15  C3  UNL     1      25.974   4.075  49.345  1.00  0.00     0.034 C 
HETATM   16  C2  UNL     1      27.182   4.446  48.958  1.00  0.00    -0.028 C 
HETATM   17  C1  UNL     1      27.458   5.854  48.575  1.00  0.00     0.036 C 
ENDBRANCH  14  15
BRANCH  14  18
HETATM   18  O1  UNL     1      24.390   5.676  48.318  1.00  0.00    -0.355 OA
HETATM   19  C16 UNL     1      23.397   6.664  48.397  1.00  0.00     0.210 C 
ENDBRANCH  14  18
ENDBRANCH  11  13
ENDBRANCH   1  11
BRANCH   8  20
HETATM   20  C12 UNL     1      26.048  -0.144  53.855  1.00  0.00     0.029 A 
HETATM   21  C13 UNL     1      26.738   0.257  54.983  1.00  0.00     0.154 A 
HETATM   22  N3  UNL     1      28.033  -0.132  54.877  1.00  0.00    -0.185 NA
HETATM   23  N4  UNL     1      28.133  -0.757  53.711  1.00  0.00    -0.285 N 
HETATM   24  C14 UNL     1      29.444  -1.290  53.334  1.00  0.00     0.179 C 
HETATM   25  C15 UNL     1      26.968  -0.780  53.081  1.00  0.00     0.127 A 
ENDBRANCH   8  20
TORSDOF 5
ENDMDL
MODEL 3
REMARK VINA RESULT:      -7.1      3.192      6.481
REMARK  5 active torsions:
REMARK  status: ('A' for Active; 'I' for Inactive)
REMARK    1  A    between atoms: C3_3  and  C4_4 
REMARK    2  A    between atoms: C4_4  and  O1_23 
REMARK    3  A    between atoms: C5_5  and  N1_6 
REMARK    4  A    between atoms: N1_6  and  C6_7 
REMARK    5  A    between atoms: C11_14  and  C12_15 
ROOT
HETATM    1  C6  UNL     1      25.194   2.360  51.169  1.00  0.00     0.743 A 
HETATM    2  N2  UNL     1      26.526   2.504  51.325  1.00  0.00    -0.071 NA
HETATM    3  C7  UNL     1      27.196   1.833  52.289  1.00  0.00     0.169 A 
HETATM    4  C8  UNL     1      26.467   0.985  53.122  1.00  0.00     0.099 A 
HETATM    5  C9  UNL     1      26.807   0.161  54.188  1.00  0.00     0.066 A 
HETATM    6 CL1  UNL     1      28.417  -0.060  54.846  1.00  0.00    -0.082 Cl
HETATM    7  C10 UNL     1      25.669  -0.474  54.665  1.00  0.00     0.059 A 
HETATM    8  C11 UNL     1      24.643  -0.007  53.858  1.00  0.00     0.074 A 
HETATM    9  N5  UNL     1      25.131   0.856  52.948  1.00  0.00    -0.214 N 
HETATM   10  N6  UNL     1      24.501   1.538  51.979  1.00  0.00     0.027 NA
ENDROOT
BRANCH   1  11
HETATM   11  N1  UNL     1      24.522   3.078  50.148  1.00  0.00    -0.194 N 
HETATM   12  H7  UNL     1      24.945   3.165  49.199  1.00  0.00     0.183 HD
BRANCH  11  13
HETATM   13  C5  UNL     1      23.279   3.699  50.350  1.00  0.00     0.143 C 
HETATM   14  C4  UNL     1      22.196   3.544  49.603  1.00  0.00     0.083 C 
BRANCH  14  15
HETATM   15  C3  UNL     1      22.198   2.674  48.446  1.00  0.00     0.034 C 
HETATM   16  C2  UNL     1      21.762   1.427  48.468  1.00  0.00    -0.028 C 
HETATM   17  C1  UNL     1      21.230   0.830  49.719  1.00  0.00     0.036 C 
ENDBRANCH  14  15
BRANCH  14  18
HETATM   18  O1  UNL     1      21.063   4.252  49.978  1.00  0.00    -0.355 OA
HETATM   19  C16 UNL     1      20.551   4.231  51.285  1.00  0.00     0.210 C 
ENDBRANCH  14  18
ENDBRANCH  11  13
ENDBRANCH   1  11
BRANCH   8  20
HETATM   20  C12 UNL     1      23.256  -0.425  54.017  1.00  0.00     0.029 A 
HETATM   21  C13 UNL     1      22.801  -1.281  55.000  1.00  0.00     0.154 A 
HETATM   22  N3  UNL     1      21.463  -1.457  54.859  1.00  0.00    -0.185 NA
HETATM   23  N4  UNL     1      21.108  -0.724  53.812  1.00  0.00    -0.285 N 
HETATM   24  C14 UNL     1      19.694  -0.726  53.426  1.00  0.00     0.179 C 
HETATM   25  C15 UNL     1      22.153  -0.099  53.291  1.00  0.00     0.127 A 
ENDBRANCH   8  20
TORSDOF 5
ENDMDL
MODEL 4
REMARK VINA RESULT:      -7.0      2.895      6.519
REMARK  5 active torsions:
REMARK  status: ('A' for Active; 'I' for Inactive)
REMARK    1  A    between atoms: C3_3  and  C4_4 
REMARK    2  A    between atoms: C4_4  and  O1_23 
REMARK    3  A    between atoms: C5_5  and  N1_6 
REMARK    4  A    between atoms: N1_6  and  C6_7 
REMARK    5  A    between atoms: C11_14  and  C12_15 
ROOT
HETATM    1  C6  UNL     1      24.609   3.428  51.339  1.00  0.00     0.743 A 
HETATM    2  N2  UNL     1      23.275   3.393  51.144  1.00  0.00    -0.071 NA
HETATM    3  C7  UNL     1      22.524   2.375  51.620  1.00  0.00     0.169 A 
HETATM    4  C8  UNL     1      23.169   1.357  52.322  1.00  0.00     0.099 A 
HETATM    5  C9  UNL     1      22.735   0.191  52.937  1.00  0.00     0.066 A 
HETATM    6 CL1  UNL     1      21.079  -0.382  53.007  1.00  0.00    -0.082 Cl
HETATM    7  C10 UNL     1      23.819  -0.468  53.500  1.00  0.00     0.059 A 
HETATM    8  C11 UNL     1      24.909   0.335  53.204  1.00  0.00     0.074 A 
HETATM    9  N5  UNL     1      24.509   1.413  52.506  1.00  0.00    -0.214 N 
HETATM   10  N6  UNL     1      25.222   2.441  52.018  1.00  0.00     0.027 NA
ENDROOT
BRANCH   1  11
HETATM   11  N1  UNL     1      25.369   4.510  50.826  1.00  0.00    -0.194 N 
HETATM   12  H7  UNL     1      26.135   4.932  51.395  1.00  0.00     0.183 HD
BRANCH  11  13
HETATM   13  C5  UNL     1      25.141   5.061  49.556  1.00  0.00     0.143 C 
HETATM   14  C4  UNL     1      25.001   6.349  49.276  1.00  0.00     0.083 C 
BRANCH  14  15
HETATM   15  C3  UNL     1      25.073   7.357  50.311  1.00  0.00     0.034 C 
HETATM   16  C2  UNL     1      24.012   7.876  50.902  1.00  0.00    -0.028 C 
HETATM   17  C1  UNL     1      22.643   7.441  50.526  1.00  0.00     0.036 C 
ENDBRANCH  14  15
BRANCH  14  18
HETATM   18  O1  UNL     1      24.782   6.685  47.946  1.00  0.00    -0.355 OA
HETATM   19  C16 UNL     1      25.197   7.906  47.393  1.00  0.00     0.210 C 
ENDBRANCH  14  18
ENDBRANCH  11  13
ENDBRANCH   1  11
BRANCH   8  20
HETATM   20  C12 UNL     1      26.269   0.010  53.615  1.00  0.00     0.029 A 
HETATM   21  C13 UNL     1      26.777   0.215  54.883  1.00  0.00     0.154 A 
HETATM   22  N3  UNL     1      28.069  -0.197  54.921  1.00  0.00    -0.185 NA
HETATM   23  N4  UNL     1      28.344  -0.646  53.704  1.00  0.00    -0.285 N 
HETATM   24  C14 UNL     1      29.694  -1.162  53.457  1.00  0.00     0.179 C 
HETATM   25  C15 UNL     1      27.294  -0.536  52.905  1.00  0.00     0.127 A 
ENDBRANCH   8  20
TORSDOF 5
ENDMDL
MODEL 5
REMARK VINA RESULT:      -7.0      2.946      5.262
REMARK  5 active torsions:
REMARK  status: ('A' for Active; 'I' for Inactive)
REMARK    1  A    between atoms: C3_3  and  C4_4 
REMARK    2  A    between atoms: C4_4  and  O1_23 
REMARK    3  A    between atoms: C5_5  and  N1_6 
REMARK    4  A    between atoms: N1_6  and  C6_7 
REMARK    5  A    between atoms: C11_14  and  C12_15 
ROOT
HETATM    1  C6  UNL     1      26.350   2.486  51.214  1.00  0.00     0.743 A 
HETATM    2  N2  UNL     1      26.957   3.302  50.327  1.00  0.00    -0.071 NA
HETATM    3  C7  UNL     1      26.250   4.191  49.595  1.00  0.00     0.169 A 
HETATM    4  C8  UNL     1      24.869   4.242  49.782  1.00  0.00     0.099 A 
HETATM    5  C9  UNL     1      23.852   5.005  49.223  1.00  0.00     0.066 A 
HETATM    6 CL1  UNL     1      24.048   6.245  48.000  1.00  0.00    -0.082 Cl
HETATM    7  C10 UNL     1      22.636   4.638  49.784  1.00  0.00     0.059 A 
HETATM    8  C11 UNL     1      22.955   3.638  50.689  1.00  0.00     0.074 A 
HETATM    9  N5  UNL     1      24.281   3.414  50.677  1.00  0.00    -0.214 N 
HETATM   10  N6  UNL     1      25.017   2.544  51.387  1.00  0.00     0.027 NA
ENDROOT
BRANCH   1  11
HETATM   11  N1  UNL     1      27.121   1.565  51.967  1.00  0.00    -0.194 N 
HETATM   12  H7  UNL     1      28.152   1.496  51.819  1.00  0.00     0.183 HD
BRANCH  11  13
HETATM   13  C5  UNL     1      26.557   0.713  52.929  1.00  0.00     0.143 C 
HETATM   14  C4  UNL     1      27.183   0.189  53.973  1.00  0.00     0.083 C 
BRANCH  14  15
HETATM   15  C3  UNL     1      28.580   0.463  54.229  1.00  0.00     0.034 C 
HETATM   16  C2  UNL     1      29.557  -0.373  53.923  1.00  0.00    -0.028 C 
HETATM   17  C1  UNL     1      29.267  -1.679  53.280  1.00  0.00     0.036 C 
ENDBRANCH  14  15
BRANCH  14  18
HETATM   18  O1  UNL     1      26.437  -0.631  54.809  1.00  0.00    -0.355 OA
HETATM   19  C16 UNL     1      25.051  -0.799  54.671  1.00  0.00     0.210 C 
ENDBRANCH  14  18
ENDBRANCH  11  13
ENDBRANCH   1  11
BRANCH   8  20
HETATM   20  C12 UNL     1      21.956   2.962  51.508  1.00  0.00     0.029 A 
HETATM   21  C13 UNL     1      20.929   3.597  52.178  1.00  0.00     0.154 A 
HETATM   22  N3  UNL     1      20.188   2.674  52.841  1.00  0.00    -0.185 NA
HETATM   23  N4  UNL     1      20.750   1.501  52.582  1.00  0.00    -0.285 N 
HETATM   24  C14 UNL     1      20.144   0.309  53.181  1.00  0.00     0.179 C 
HETATM   25  C15 UNL     1      21.803   1.641  51.792  1.00  0.00     0.127 A 
ENDBRANCH   8  20
TORSDOF 5
ENDMDL
MODEL 6
REMARK VINA RESULT:      -6.9      3.506      6.706
REMARK  5 active torsions:
REMARK  status: ('A' for Active; 'I' for Inactive)
REMARK    1  A    between atoms: C3_3  and  C4_4 
REMARK    2  A    between atoms: C4_4  and  O1_23 
REMARK    3  A    between atoms: C5_5  and  N1_6 
REMARK    4  A    between atoms: N1_6  and  C6_7 
REMARK    5  A    between atoms: C11_14  and  C12_15 
ROOT
HETATM    1  C6  UNL     1      22.476   3.097  51.910  1.00  0.00     0.743 A 
HETATM    2  N2  UNL     1      22.265   4.108  51.043  1.00  0.00    -0.071 NA
HETATM    3  C7  UNL     1      23.272   4.610  50.294  1.00  0.00     0.169 A 
HETATM    4  C8  UNL     1      24.541   4.052  50.444  1.00  0.00     0.099 A 
HETATM    5  C9  UNL     1      25.776   4.303  49.860  1.00  0.00     0.066 A 
HETATM    6 CL1  UNL     1      26.112   5.522  48.646  1.00  0.00    -0.082 Cl
HETATM    7  C10 UNL     1      26.723   3.434  50.386  1.00  0.00     0.059 A 
HETATM    8  C11 UNL     1      26.021   2.661  51.297  1.00  0.00     0.074 A 
HETATM    9  N5  UNL     1      24.730   3.037  51.321  1.00  0.00    -0.214 N 
HETATM   10  N6  UNL     1      23.704   2.564  52.047  1.00  0.00     0.027 NA
ENDROOT
BRANCH   1  11
HETATM   11  N1  UNL     1      21.398   2.593  52.681  1.00  0.00    -0.194 N 
HETATM   12  H7  UNL     1      21.206   2.976  53.632  1.00  0.00     0.183 HD
BRANCH  11  13
HETATM   13  C5  UNL     1      20.548   1.574  52.222  1.00  0.00     0.143 C 
HETATM   14  C4  UNL     1      20.201   0.484  52.890  1.00  0.00     0.083 C 
BRANCH  14  15
HETATM   15  C3  UNL     1      20.694   0.232  54.227  1.00  0.00     0.034 C 
HETATM   16  C2  UNL     1      21.808  -0.431  54.483  1.00  0.00    -0.028 C 
HETATM   17  C1  UNL     1      22.642  -0.970  53.380  1.00  0.00     0.036 C 
ENDBRANCH  14  15
BRANCH  14  18
HETATM   18  O1  UNL     1      19.345  -0.402  52.251  1.00  0.00    -0.355 OA
HETATM   19  C16 UNL     1      18.046  -0.051  51.851  1.00  0.00     0.210 C 
ENDBRANCH  14  18
ENDBRANCH  11  13
ENDBRANCH   1  11
BRANCH   8  20
HETATM   20  C12 UNL     1      26.643   1.605  52.087  1.00  0.00     0.029 A 
HETATM   21  C13 UNL     1      26.439   0.254  51.892  1.00  0.00     0.154 A 
HETATM   22  N3  UNL     1      27.168  -0.446  52.797  1.00  0.00    -0.185 NA
HETATM   23  N4  UNL     1      27.804   0.459  53.529  1.00  0.00    -0.285 N 
HETATM   24  C14 UNL     1      28.678  -0.025  54.601  1.00  0.00     0.179 C 
HETATM   25  C15 UNL     1      27.512   1.687  53.131  1.00  0.00     0.127 A 
ENDBRANCH   8  20
TORSDOF 5
ENDMDL
MODEL 7
REMARK VINA RESULT:      -6.7      3.271      6.591
REMARK  5 active torsions:
REMARK  status: ('A' for Active; 'I' for Inactive)
REMARK    1  A    between atoms: C3_3  and  C4_4 
REMARK    2  A    between atoms: C4_4  and  O1_23 
REMARK    3  A    between atoms: C5_5  and  N1_6 
REMARK    4  A    between atoms: N1_6  and  C6_7 
REMARK    5  A    between atoms: C11_14  and  C12_15 
ROOT
HETATM    1  C6  UNL     1      25.121   2.941  51.818  1.00  0.00     0.743 A 
HETATM    2  N2  UNL     1      26.454   2.844  51.634  1.00  0.00    -0.071 NA
HETATM    3  C7  UNL     1      27.136   1.742  52.018  1.00  0.00     0.169 A 
HETATM    4  C8  UNL     1      26.420   0.703  52.612  1.00  0.00     0.099 A 
HETATM    5  C9  UNL     1      26.773  -0.542  53.117  1.00  0.00     0.066 A 
HETATM    6 CL1  UNL     1      28.390  -1.219  53.148  1.00  0.00    -0.082 Cl
HETATM    7  C10 UNL     1      25.643  -1.184  53.602  1.00  0.00     0.059 A 
HETATM    8  C11 UNL     1      24.608  -0.291  53.374  1.00  0.00     0.074 A 
HETATM    9  N5  UNL     1      25.082   0.822  52.787  1.00  0.00    -0.214 N 
HETATM   10  N6  UNL     1      24.439   1.933  52.392  1.00  0.00     0.027 NA
ENDROOT
BRANCH   1  11
HETATM   11  N1  UNL     1      24.436   4.111  51.403  1.00  0.00    -0.194 N 
HETATM   12  H7  UNL     1      24.322   4.915  52.059  1.00  0.00     0.183 HD
BRANCH  11  13
HETATM   13  C5  UNL     1      23.884   4.253  50.120  1.00  0.00     0.143 C 
HETATM   14  C4  UNL     1      24.135   5.232  49.265  1.00  0.00     0.083 C 
BRANCH  14  15
HETATM   15  C3  UNL     1      25.050   6.304  49.594  1.00  0.00     0.034 C 
HETATM   16  C2  UNL     1      26.352   6.248  49.375  1.00  0.00    -0.028 C 
HETATM   17  C1  UNL     1      26.968   5.045  48.761  1.00  0.00     0.036 C 
ENDBRANCH  14  15
BRANCH  14  18
HETATM   18  O1  UNL     1      23.482   5.183  48.041  1.00  0.00    -0.355 OA
HETATM   19  C16 UNL     1      22.595   6.182  47.612  1.00  0.00     0.210 C 
ENDBRANCH  14  18
ENDBRANCH  11  13
ENDBRANCH   1  11
BRANCH   8  20
HETATM   20  C12 UNL     1      23.224  -0.571  53.738  1.00  0.00     0.029 A 
HETATM   21  C13 UNL     1      22.823  -1.123  54.938  1.00  0.00     0.154 A 
HETATM   22  N3  UNL     1      21.472  -1.247  54.947  1.00  0.00    -0.185 NA
HETATM   23  N4  UNL     1      21.056  -0.779  53.777  1.00  0.00    -0.285 N 
HETATM   24  C14 UNL     1      19.615  -0.792  53.512  1.00  0.00     0.179 C 
HETATM   25  C15 UNL     1      22.075  -0.370  53.037  1.00  0.00     0.127 A 
ENDBRANCH   8  20
TORSDOF 5
ENDMDL
MODEL 8
REMARK VINA RESULT:      -6.7      4.226      7.414
REMARK  5 active torsions:
REMARK  status: ('A' for Active; 'I' for Inactive)
REMARK    1  A    between atoms: C3_3  and  C4_4 
REMARK    2  A    between atoms: C4_4  and  O1_23 
REMARK    3  A    between atoms: C5_5  and  N1_6 
REMARK    4  A    between atoms: N1_6  and  C6_7 
REMARK    5  A    between atoms: C11_14  and  C12_15 
ROOT
HETATM    1  C6  UNL     1      26.366   4.152  49.610  1.00  0.00     0.743 A 
HETATM    2  N2  UNL     1      25.072   4.276  49.254  1.00  0.00    -0.071 NA
HETATM    3  C7  UNL     1      24.113   3.508  49.818  1.00  0.00     0.169 A 
HETATM    4  C8  UNL     1      24.502   2.579  50.783  1.00  0.00     0.099 A 
HETATM    5  C9  UNL     1      23.815   1.650  51.554  1.00  0.00     0.066 A 
HETATM    6 CL1  UNL     1      22.086   1.359  51.518  1.00  0.00    -0.082 Cl
HETATM    7  C10 UNL     1      24.709   0.972  52.370  1.00  0.00     0.059 A 
HETATM    8  C11 UNL     1      25.945   1.521  52.067  1.00  0.00     0.074 A 
HETATM    9  N5  UNL     1      25.807   2.472  51.126  1.00  0.00    -0.214 N 
HETATM   10  N6  UNL     1      26.731   3.253  50.543  1.00  0.00     0.027 NA
ENDROOT
BRANCH   1  11
HETATM   11  N1  UNL     1      27.348   4.973  48.999  1.00  0.00    -0.194 N 
HETATM   12  H7  UNL     1      28.265   4.570  48.709  1.00  0.00     0.183 HD
BRANCH  11  13
HETATM   13  C5  UNL     1      27.147   6.341  48.756  1.00  0.00     0.143 C 
HETATM   14  C4  UNL     1      27.944   7.136  48.058  1.00  0.00     0.083 C 
BRANCH  14  15
HETATM   15  C3  UNL     1      29.160   6.640  47.451  1.00  0.00     0.034 C 
HETATM   16  C2  UNL     1      30.371   6.950  47.878  1.00  0.00    -0.028 C 
HETATM   17  C1  UNL     1      30.558   7.854  49.041  1.00  0.00     0.036 C 
ENDBRANCH  14  15
BRANCH  14  18
HETATM   18  O1  UNL     1      27.560   8.465  47.936  1.00  0.00    -0.355 OA
HETATM   19  C16 UNL     1      27.073   9.218  49.015  1.00  0.00     0.210 C 
ENDBRANCH  14  18
ENDBRANCH  11  13
ENDBRANCH   1  11
BRANCH   8  20
HETATM   20  C12 UNL     1      27.183   1.091  52.707  1.00  0.00     0.029 A 
HETATM   21  C13 UNL     1      28.040   1.925  53.398  1.00  0.00     0.154 A 
HETATM   22  N3  UNL     1      29.090   1.202  53.863  1.00  0.00    -0.185 NA
HETATM   23  N4  UNL     1      28.879  -0.045  53.465  1.00  0.00    -0.285 N 
HETATM   24  C14 UNL     1      29.874  -1.056  53.834  1.00  0.00     0.179 C 
HETATM   25  C15 UNL     1      27.753  -0.142  52.775  1.00  0.00     0.127 A 
ENDBRANCH   8  20
TORSDOF 5
ENDMDL
MODEL 9
REMARK VINA RESULT:      -6.4      3.290      6.822
REMARK  5 active torsions:
REMARK  status: ('A' for Active; 'I' for Inactive)
REMARK    1  A    between atoms: C3_3  and  C4_4 
REMARK    2  A    between atoms: C4_4  and  O1_23 
REMARK    3  A    between atoms: C5_5  and  N1_6 
REMARK    4  A    between atoms: N1_6  and  C6_7 
REMARK    5  A    between atoms: C11_14  and  C12_15 
ROOT
HETATM    1  C6  UNL     1      24.308   2.598  50.912  1.00  0.00     0.743 A 
HETATM    2  N2  UNL     1      25.643   2.744  50.783  1.00  0.00    -0.071 NA
HETATM    3  C7  UNL     1      26.504   1.965  51.475  1.00  0.00     0.169 A 
HETATM    4  C8  UNL     1      25.971   1.000  52.329  1.00  0.00     0.099 A 
HETATM    5  C9  UNL     1      26.532   0.049  53.172  1.00  0.00     0.066 A 
HETATM    6 CL1  UNL     1      28.246  -0.227  53.418  1.00  0.00    -0.082 Cl
HETATM    7  C10 UNL     1      25.522  -0.665  53.803  1.00  0.00     0.059 A 
HETATM    8  C11 UNL     1      24.347  -0.115  53.315  1.00  0.00     0.074 A 
HETATM    9  N5  UNL     1      24.628   0.870  52.443  1.00  0.00    -0.214 N 
HETATM   10  N6  UNL     1      23.805   1.663  51.739  1.00  0.00     0.027 NA
ENDROOT
BRANCH   1  11
HETATM   11  N1  UNL     1      23.432   3.432  50.172  1.00  0.00    -0.194 N 
HETATM   12  H7  UNL     1      23.795   4.003  49.378  1.00  0.00     0.183 HD
BRANCH  11  13
HETATM   13  C5  UNL     1      22.062   3.536  50.459  1.00  0.00     0.143 C 
HETATM   14  C4  UNL     1      21.464   4.553  51.060  1.00  0.00     0.083 C 
BRANCH  14  15
HETATM   15  C3  UNL     1      22.209   5.712  51.501  1.00  0.00     0.034 C 
HETATM   16  C2  UNL     1      22.253   6.851  50.834  1.00  0.00    -0.028 C 
HETATM   17  C1  UNL     1      21.518   7.011  49.554  1.00  0.00     0.036 C 
ENDBRANCH  14  15
BRANCH  14  18
HETATM   18  O1  UNL     1      20.091   4.456  51.247  1.00  0.00    -0.355 OA
HETATM   19  C16 UNL     1      19.379   3.263  51.051  1.00  0.00     0.210 C 
ENDBRANCH  14  18
ENDBRANCH  11  13
ENDBRANCH   1  11
BRANCH   8  20
HETATM   20  C12 UNL     1      23.026  -0.577  53.722  1.00  0.00     0.029 A 
HETATM   21  C13 UNL     1      22.755  -1.244  54.901  1.00  0.00     0.154 A 
HETATM   22  N3  UNL     1      21.430  -1.526  54.963  1.00  0.00    -0.185 NA
HETATM   23  N4  UNL     1      20.902  -1.041  53.847  1.00  0.00    -0.285 N 
HETATM   24  C14 UNL     1      19.459  -1.208  53.648  1.00  0.00     0.179 C 
HETATM   25  C15 UNL     1      21.826  -0.471  53.090  1.00  0.00     0.127 A 
ENDBRANCH   8  20
TORSDOF 5
ENDMDL
