MODEL 1
REMARK VINA RESULT:      -8.5      0.000      0.000
REMARK  3 active torsions:
REMARK  status: ('A' for Active; 'I' for Inactive)
REMARK    1  A    between atoms: C2_3  and  C3_4 
REMARK    2  A    between atoms: C9_14  and  C10_15 
REMARK    3  A    between atoms: C10_15  and  N5_16 
ROOT
HETATM    1  C3  UNL     1      26.964  -0.301  53.549  1.00  0.00     0.132 C 
HETATM    2  N1  UNL     1      26.240  -1.069  54.345  1.00  0.00    -0.161 NA
HETATM    3  N2  UNL     1      25.033  -0.614  54.855  1.00  0.00    -0.288 N 
HETATM    4  C4  UNL     1      23.870  -1.247  55.257  1.00  0.00     0.109 C 
HETATM    5  C5  UNL     1      22.599  -1.464  55.307  1.00  0.00     0.020 C 
HETATM    6  C6  UNL     1      21.624  -0.644  54.542  1.00  0.00     0.018 C 
HETATM    7  C7  UNL     1      21.174   0.301  53.731  1.00  0.00     0.084 C 
HETATM    8  N3  UNL     1      20.314   1.161  52.944  1.00  0.00    -0.375 N 
HETATM    9  C8  UNL     1      21.200   2.201  52.363  1.00  0.00     0.392 C 
HETATM   10  N4  UNL     1      22.249   1.486  51.707  1.00  0.00     0.107 N 
HETATM   11  C9  UNL     1      23.493   2.249  51.515  1.00  0.00     0.257 C 
HETATM   12  C15 UNL     1      24.527   1.273  51.889  1.00  0.00     0.054 C 
HETATM   13  C16 UNL     1      25.317   1.748  52.819  1.00  0.00     0.118 A 
HETATM   14  C17 UNL     1      26.333   2.057  53.862  1.00  0.00     0.134 A 
HETATM   15  N6  UNL     1      26.292   0.887  53.380  1.00  0.00    -0.351 N 
HETATM   16  H4  UNL     1      24.491   0.268  55.109  1.00  0.00     0.188 HD
HETATM   17  H9  UNL     1      19.656   0.454  53.328  1.00  0.00     0.160 HD
HETATM   18  H12 UNL     1      21.956   1.267  50.714  1.00  0.00     0.318 HD
ENDROOT
BRANCH  11  19
HETATM   19  C10 UNL     1      23.559   2.881  50.196  1.00  0.00     0.308 C 
BRANCH  19  20
HETATM   20  N5  UNL     1      23.118   4.253  50.116  1.00  0.00     0.094 N 
HETATM   21  C11 UNL     1      23.717   4.942  48.974  1.00  0.00     0.298 C 
HETATM   22  C12 UNL     1      25.198   5.131  49.124  1.00  0.00     0.198 C 
HETATM   23  O2  UNL     1      25.528   5.899  50.236  1.00  0.00    -0.388 OA
HETATM   24  C13 UNL     1      24.352   6.232  50.935  1.00  0.00     0.198 C 
HETATM   25  C14 UNL     1      23.586   4.961  51.295  1.00  0.00     0.298 C 
ENDBRANCH  19  20
ENDBRANCH  11  19
BRANCH   1  26
HETATM   26  C2  UNL     1      28.180  -0.936  53.123  1.00  0.00     0.094 A 
HETATM   27  C1  UNL     1      29.331  -1.116  53.671  1.00  0.00    -0.017 A 
HETATM   28  O1  UNL     1      28.532  -0.422  54.572  1.00  0.00     0.000 OA
HETATM   29  H1  UNL     1      28.790  -0.572  55.558  1.00  0.00     0.000 HD
ENDBRANCH   1  26
TORSDOF 3
ENDMDL
MODEL 2
REMARK VINA RESULT:      -8.3      2.319      4.612
REMARK  3 active torsions:
REMARK  status: ('A' for Active; 'I' for Inactive)
REMARK    1  A    between atoms: C2_3  and  C3_4 
REMARK    2  A    between atoms: C9_14  and  C10_15 
REMARK    3  A    between atoms: C10_15  and  N5_16 
ROOT
HETATM    1  C3  UNL     1      26.087   3.124  50.719  1.00  0.00     0.132 C 
HETATM    2  N1  UNL     1      26.997   2.686  51.572  1.00  0.00    -0.161 NA
HETATM    3  N2  UNL     1      26.629   2.283  52.848  1.00  0.00    -0.288 N 
HETATM    4  C4  UNL     1      27.160   1.377  53.750  1.00  0.00     0.109 C 
HETATM    5  C5  UNL     1      27.146   0.388  54.578  1.00  0.00     0.020 C 
HETATM    6  C6  UNL     1      25.904  -0.366  54.892  1.00  0.00     0.018 C 
HETATM    7  C7  UNL     1      24.626  -0.709  54.854  1.00  0.00     0.084 C 
HETATM    8  N3  UNL     1      23.359  -1.374  55.085  1.00  0.00    -0.375 N 
HETATM    9  C8  UNL     1      22.344  -0.586  54.342  1.00  0.00     0.392 C 
HETATM   10  N4  UNL     1      22.839  -0.488  53.006  1.00  0.00     0.107 N 
HETATM   11  C9  UNL     1      22.310   0.645  52.229  1.00  0.00     0.257 C 
HETATM   12  C15 UNL     1      23.514   1.165  51.563  1.00  0.00     0.054 C 
HETATM   13  C16 UNL     1      23.680   2.440  51.808  1.00  0.00     0.118 A 
HETATM   14  C17 UNL     1      24.084   3.867  51.941  1.00  0.00     0.134 A 
HETATM   15  N6  UNL     1      24.861   3.068  51.341  1.00  0.00    -0.351 N 
HETATM   16  H4  UNL     1      25.890   2.413  53.605  1.00  0.00     0.188 HD
HETATM   17  H9  UNL     1      24.035  -1.956  55.620  1.00  0.00     0.160 HD
HETATM   18  H12 UNL     1      22.509  -1.325  52.448  1.00  0.00     0.318 HD
ENDROOT
BRANCH  11  19
HETATM   19  C10 UNL     1      21.155   0.267  51.413  1.00  0.00     0.308 C 
BRANCH  19  20
HETATM   20  N5  UNL     1      19.947   1.031  51.613  1.00  0.00     0.094 N 
HETATM   21  C11 UNL     1      19.492   1.649  50.368  1.00  0.00     0.298 C 
HETATM   22  C12 UNL     1      20.424   2.718  49.878  1.00  0.00     0.198 C 
HETATM   23  O2  UNL     1      20.558   3.766  50.785  1.00  0.00    -0.388 OA
HETATM   24  C13 UNL     1      19.806   3.477  51.939  1.00  0.00     0.198 C 
HETATM   25  C14 UNL     1      20.237   2.131  52.517  1.00  0.00     0.298 C 
ENDBRANCH  19  20
ENDBRANCH  11  19
BRANCH   1  26
HETATM   26  C2  UNL     1      26.651   3.499  49.452  1.00  0.00     0.094 A 
HETATM   27  C1  UNL     1      26.966   4.626  48.917  1.00  0.00    -0.017 A 
HETATM   28  O1  UNL     1      26.452   4.883  50.182  1.00  0.00     0.000 OA
HETATM   29  H1  UNL     1      26.806   5.752  50.605  1.00  0.00     0.000 HD
ENDBRANCH   1  26
TORSDOF 3
ENDMDL
MODEL 3
REMARK VINA RESULT:      -7.9      2.856      5.652
REMARK  3 active torsions:
REMARK  status: ('A' for Active; 'I' for Inactive)
REMARK    1  A    between atoms: C2_3  and  C3_4 
REMARK    2  A    between atoms: C9_14  and  C10_15 
REMARK    3  A    between atoms: C10_15  and  N5_16 
ROOT
HETATM    1  C3  UNL     1      26.088   3.168  50.793  1.00  0.00     0.132 C 
HETATM    2  N1  UNL     1      27.085   2.794  51.577  1.00  0.00    -0.161 NA
HETATM    3  N2  UNL     1      26.839   2.376  52.877  1.00  0.00    -0.288 N 
HETATM    4  C4  UNL     1      27.492   1.511  53.738  1.00  0.00     0.109 C 
HETATM    5  C5  UNL     1      27.601   0.529  54.567  1.00  0.00     0.020 C 
HETATM    6  C6  UNL     1      26.436  -0.299  54.975  1.00  0.00     0.018 C 
HETATM    7  C7  UNL     1      25.182  -0.721  55.033  1.00  0.00     0.084 C 
HETATM    8  N3  UNL     1      23.980  -1.462  55.360  1.00  0.00    -0.375 N 
HETATM    9  C8  UNL     1      22.865  -0.743  54.693  1.00  0.00     0.392 C 
HETATM   10  N4  UNL     1      23.252  -0.624  53.324  1.00  0.00     0.107 N 
HETATM   11  C9  UNL     1      22.597   0.469  52.587  1.00  0.00     0.257 C 
HETATM   12  C15 UNL     1      23.712   1.058  51.831  1.00  0.00     0.054 C 
HETATM   13  C16 UNL     1      23.816   2.343  52.061  1.00  0.00     0.118 A 
HETATM   14  C17 UNL     1      24.139   3.793  52.161  1.00  0.00     0.134 A 
HETATM   15  N6  UNL     1      24.918   3.040  51.505  1.00  0.00    -0.351 N 
HETATM   16  H4  UNL     1      26.152   2.465  53.687  1.00  0.00     0.188 HD
HETATM   17  H9  UNL     1      24.729  -1.998  55.843  1.00  0.00     0.160 HD
HETATM   18  H12 UNL     1      22.934  -1.484  52.793  1.00  0.00     0.318 HD
ENDROOT
BRANCH  11  19
HETATM   19  C10 UNL     1      21.410   0.015  51.860  1.00  0.00     0.308 C 
BRANCH  19  20
HETATM   20  N5  UNL     1      20.224   0.826  51.993  1.00  0.00     0.094 N 
HETATM   21  C11 UNL     1      19.491   0.507  53.218  1.00  0.00     0.298 C 
HETATM   22  C12 UNL     1      18.890  -0.868  53.192  1.00  0.00     0.198 C 
HETATM   23  O2  UNL     1      17.973  -1.030  52.158  1.00  0.00    -0.388 OA
HETATM   24  C13 UNL     1      17.922   0.152  51.396  1.00  0.00     0.198 C 
HETATM   25  C14 UNL     1      19.320   0.511  50.900  1.00  0.00     0.298 C 
ENDBRANCH  19  20
ENDBRANCH  11  19
BRANCH   1  26
HETATM   26  C2  UNL     1      26.531   3.569  49.487  1.00  0.00     0.094 A 
HETATM   27  C1  UNL     1      26.803   4.706  48.950  1.00  0.00    -0.017 A 
HETATM   28  O1  UNL     1      26.415   4.937  50.264  1.00  0.00     0.000 OA
HETATM   29  H1  UNL     1      26.815   5.794  50.671  1.00  0.00     0.000 HD
ENDBRANCH   1  26
TORSDOF 3
ENDMDL
MODEL 4
REMARK VINA RESULT:      -7.5      2.877      5.319
REMARK  3 active torsions:
REMARK  status: ('A' for Active; 'I' for Inactive)
REMARK    1  A    between atoms: C2_3  and  C3_4 
REMARK    2  A    between atoms: C9_14  and  C10_15 
REMARK    3  A    between atoms: C10_15  and  N5_16 
ROOT
HETATM    1  C3  UNL     1      25.230   3.254  50.847  1.00  0.00     0.132 C 
HETATM    2  N1  UNL     1      26.122   2.467  51.426  1.00  0.00    -0.161 NA
HETATM    3  N2  UNL     1      25.876   1.928  52.680  1.00  0.00    -0.288 N 
HETATM    4  C4  UNL     1      26.292   0.772  53.318  1.00  0.00     0.109 C 
HETATM    5  C5  UNL     1      26.156  -0.324  53.985  1.00  0.00     0.020 C 
HETATM    6  C6  UNL     1      24.829  -0.817  54.438  1.00  0.00     0.018 C 
HETATM    7  C7  UNL     1      23.518  -0.843  54.616  1.00  0.00     0.084 C 
HETATM    8  N3  UNL     1      22.177  -1.231  55.007  1.00  0.00    -0.375 N 
HETATM    9  C8  UNL     1      21.295  -0.105  54.606  1.00  0.00     0.392 C 
HETATM   10  N4  UNL     1      21.573   0.124  53.224  1.00  0.00     0.107 N 
HETATM   11  C9  UNL     1      21.238   1.473  52.739  1.00  0.00     0.257 C 
HETATM   12  C15 UNL     1      22.409   1.817  51.919  1.00  0.00     0.054 C 
HETATM   13  C16 UNL     1      22.940   2.951  52.302  1.00  0.00     0.118 A 
HETATM   14  C17 UNL     1      23.720   4.196  52.547  1.00  0.00     0.134 A 
HETATM   15  N6  UNL     1      24.152   3.366  51.694  1.00  0.00    -0.351 N 
HETATM   16  H4  UNL     1      25.331   2.080  53.584  1.00  0.00     0.188 HD
HETATM   17  H9  UNL     1      22.755  -2.042  55.304  1.00  0.00     0.160 HD
HETATM   18  H12 UNL     1      20.948  -0.495  52.634  1.00  0.00     0.318 HD
ENDROOT
BRANCH  11  19
HETATM   19  C10 UNL     1      19.907   1.530  52.133  1.00  0.00     0.308 C 
BRANCH  19  20
HETATM   20  N5  UNL     1      19.626   0.561  51.101  1.00  0.00     0.094 N 
HETATM   21  C11 UNL     1      19.436   1.203  49.801  1.00  0.00     0.298 C 
HETATM   22  C12 UNL     1      18.192   2.040  49.746  1.00  0.00     0.198 C 
HETATM   23  O2  UNL     1      17.037   1.295  49.965  1.00  0.00    -0.388 OA
HETATM   24  C13 UNL     1      17.392  -0.040  50.233  1.00  0.00     0.198 C 
HETATM   25  C14 UNL     1      18.366  -0.093  51.408  1.00  0.00     0.298 C 
ENDBRANCH  19  20
ENDBRANCH  11  19
BRANCH   1  26
HETATM   26  C2  UNL     1      25.657   3.719  49.557  1.00  0.00     0.094 A 
HETATM   27  C1  UNL     1      26.208   4.805  49.140  1.00  0.00    -0.017 A 
HETATM   28  O1  UNL     1      26.023   4.920  50.512  1.00  0.00     0.000 OA
HETATM   29  H1  UNL     1      26.694   5.552  50.970  1.00  0.00     0.000 HD
ENDBRANCH   1  26
TORSDOF 3
ENDMDL
MODEL 5
REMARK VINA RESULT:      -7.4      2.391      5.401
REMARK  3 active torsions:
REMARK  status: ('A' for Active; 'I' for Inactive)
REMARK    1  A    between atoms: C2_3  and  C3_4 
REMARK    2  A    between atoms: C9_14  and  C10_15 
REMARK    3  A    between atoms: C10_15  and  N5_16 
ROOT
HETATM    1  C3  UNL     1      19.344   1.651  51.324  1.00  0.00     0.132 C 
HETATM    2  N1  UNL     1      19.231   0.760  52.294  1.00  0.00    -0.161 NA
HETATM    3  N2  UNL     1      20.246  -0.155  52.532  1.00  0.00    -0.288 N 
HETATM    4  C4  UNL     1      20.675  -0.830  53.661  1.00  0.00     0.109 C 
HETATM    5  C5  UNL     1      21.528  -1.255  54.531  1.00  0.00     0.020 C 
HETATM    6  C6  UNL     1      22.977  -0.939  54.442  1.00  0.00     0.018 C 
HETATM    7  C7  UNL     1      24.101  -0.427  53.965  1.00  0.00     0.084 C 
HETATM    8  N3  UNL     1      25.490  -0.058  53.781  1.00  0.00    -0.375 N 
HETATM    9  C8  UNL     1      25.554   0.650  52.477  1.00  0.00     0.392 C 
HETATM   10  N4  UNL     1      24.570   1.682  52.555  1.00  0.00     0.107 N 
HETATM   11  C9  UNL     1      24.079   2.170  51.256  1.00  0.00     0.257 C 
HETATM   12  C15 UNL     1      22.627   2.258  51.476  1.00  0.00     0.054 C 
HETATM   13  C16 UNL     1      21.967   1.579  50.573  1.00  0.00     0.118 A 
HETATM   14  C17 UNL     1      21.003   0.884  49.675  1.00  0.00     0.134 A 
HETATM   15  N6  UNL     1      20.562   1.460  50.713  1.00  0.00    -0.351 N 
HETATM   16  H4  UNL     1      21.059  -0.668  52.070  1.00  0.00     0.188 HD
HETATM   17  H9  UNL     1      25.493  -0.547  54.698  1.00  0.00     0.160 HD
HETATM   18  H12 UNL     1      25.004   2.550  52.979  1.00  0.00     0.318 HD
ENDROOT
BRANCH  11  19
HETATM   19  C10 UNL     1      24.801   3.359  50.801  1.00  0.00     0.308 C 
BRANCH  19  20
HETATM   20  N5  UNL     1      23.996   4.457  50.321  1.00  0.00     0.094 N 
HETATM   21  C11 UNL     1      24.559   5.042  49.105  1.00  0.00     0.298 C 
HETATM   22  C12 UNL     1      25.866   5.737  49.348  1.00  0.00     0.198 C 
HETATM   23  O2  UNL     1      25.750   6.792  50.249  1.00  0.00    -0.388 OA
HETATM   24  C13 UNL     1      24.423   6.860  50.714  1.00  0.00     0.198 C 
HETATM   25  C14 UNL     1      24.015   5.517  51.315  1.00  0.00     0.298 C 
ENDBRANCH  19  20
ENDBRANCH  11  19
BRANCH   1  26
HETATM   26  C2  UNL     1      18.198   2.511  51.225  1.00  0.00     0.094 A 
HETATM   27  C1  UNL     1      17.954   3.716  51.606  1.00  0.00    -0.017 A 
HETATM   28  O1  UNL     1      19.256   3.405  51.980  1.00  0.00     0.000 OA
HETATM   29  H1  UNL     1      19.874   4.225  52.053  1.00  0.00     0.000 HD
ENDBRANCH   1  26
TORSDOF 3
ENDMDL
MODEL 6
REMARK VINA RESULT:      -7.0      1.548      6.536
REMARK  3 active torsions:
REMARK  status: ('A' for Active; 'I' for Inactive)
REMARK    1  A    between atoms: C2_3  and  C3_4 
REMARK    2  A    between atoms: C9_14  and  C10_15 
REMARK    3  A    between atoms: C10_15  and  N5_16 
ROOT
HETATM    1  C3  UNL     1      24.241   5.929  49.726  1.00  0.00     0.132 C 
HETATM    2  N1  UNL     1      22.936   6.138  49.702  1.00  0.00    -0.161 NA
HETATM    3  N2  UNL     1      22.051   5.073  49.797  1.00  0.00    -0.288 N 
HETATM    4  C4  UNL     1      20.759   4.949  50.278  1.00  0.00     0.109 C 
HETATM    5  C5  UNL     1      19.801   4.435  50.972  1.00  0.00     0.020 C 
HETATM    6  C6  UNL     1      20.004   3.255  51.852  1.00  0.00     0.018 C 
HETATM    7  C7  UNL     1      20.635   2.259  52.454  1.00  0.00     0.084 C 
HETATM    8  N3  UNL     1      20.945   1.108  53.279  1.00  0.00    -0.375 N 
HETATM    9  C8  UNL     1      22.351   0.750  52.966  1.00  0.00     0.392 C 
HETATM   10  N4  UNL     1      23.101   1.952  53.147  1.00  0.00     0.107 N 
HETATM   11  C9  UNL     1      24.379   2.002  52.418  1.00  0.00     0.257 C 
HETATM   12  C15 UNL     1      24.378   3.365  51.865  1.00  0.00     0.054 C 
HETATM   13  C16 UNL     1      24.550   3.351  50.568  1.00  0.00     0.118 A 
HETATM   14  C17 UNL     1      24.726   3.596  49.110  1.00  0.00     0.134 A 
HETATM   15  N6  UNL     1      24.452   4.577  49.862  1.00  0.00    -0.351 N 
HETATM   16  H4  UNL     1      21.951   4.027  49.618  1.00  0.00     0.188 HD
HETATM   17  H9  UNL     1      19.959   1.322  53.530  1.00  0.00     0.160 HD
HETATM   18  H12 UNL     1      23.408   2.025  54.158  1.00  0.00     0.318 HD
ENDROOT
BRANCH  11  19
HETATM   19  C10 UNL     1      25.507   1.574  53.247  1.00  0.00     0.308 C 
BRANCH  19  20
HETATM   20  N5  UNL     1      25.698   0.151  53.390  1.00  0.00     0.094 N 
HETATM   21  C11 UNL     1      26.312  -0.181  54.675  1.00  0.00     0.298 C 
HETATM   22  C12 UNL     1      27.727   0.305  54.784  1.00  0.00     0.198 C 
HETATM   23  O2  UNL     1      28.559  -0.256  53.819  1.00  0.00    -0.388 OA
HETATM   24  C13 UNL     1      27.797  -1.088  52.978  1.00  0.00     0.198 C 
HETATM   25  C14 UNL     1      26.638  -0.297  52.376  1.00  0.00     0.298 C 
ENDBRANCH  19  20
ENDBRANCH  11  19
BRANCH   1  26
HETATM   26  C2  UNL     1      24.998   7.145  49.614  1.00  0.00     0.094 A 
HETATM   27  C1  UNL     1      25.634   7.879  50.458  1.00  0.00    -0.017 A 
HETATM   28  O1  UNL     1      25.083   6.809  51.153  1.00  0.00     0.000 OA
HETATM   29  H1  UNL     1      25.601   6.557  52.006  1.00  0.00     0.000 HD
ENDBRANCH   1  26
TORSDOF 3
ENDMDL
MODEL 7
REMARK VINA RESULT:      -6.9      2.751      7.500
REMARK  3 active torsions:
REMARK  status: ('A' for Active; 'I' for Inactive)
REMARK    1  A    between atoms: C2_3  and  C3_4 
REMARK    2  A    between atoms: C9_14  and  C10_15 
REMARK    3  A    between atoms: C10_15  and  N5_16 
ROOT
HETATM    1  C3  UNL     1      26.631   7.547  48.930  1.00  0.00     0.132 C 
HETATM    2  N1  UNL     1      25.625   7.889  48.144  1.00  0.00    -0.161 NA
HETATM    3  N2  UNL     1      24.842   6.916  47.539  1.00  0.00    -0.288 N 
HETATM    4  C4  UNL     1      23.526   6.883  47.112  1.00  0.00     0.109 C 
HETATM    5  C5  UNL     1      22.330   6.410  47.005  1.00  0.00     0.020 C 
HETATM    6  C6  UNL     1      21.917   5.141  47.660  1.00  0.00     0.018 C 
HETATM    7  C7  UNL     1      22.017   4.037  48.382  1.00  0.00     0.084 C 
HETATM    8  N3  UNL     1      21.722   2.792  49.064  1.00  0.00    -0.375 N 
HETATM    9  C8  UNL     1      23.013   2.321  49.627  1.00  0.00     0.392 C 
HETATM   10  N4  UNL     1      23.522   3.420  50.385  1.00  0.00     0.107 N 
HETATM   11  C9  UNL     1      24.978   3.403  50.598  1.00  0.00     0.257 C 
HETATM   12  C15 UNL     1      25.354   4.802  50.346  1.00  0.00     0.054 C 
HETATM   13  C16 UNL     1      26.289   4.887  49.434  1.00  0.00     0.118 A 
HETATM   14  C17 UNL     1      27.333   5.241  48.433  1.00  0.00     0.134 A 
HETATM   15  N6  UNL     1      26.678   6.174  48.985  1.00  0.00    -0.351 N 
HETATM   16  H4  UNL     1      24.846   5.906  47.199  1.00  0.00     0.188 HD
HETATM   17  H9  UNL     1      20.797   3.083  48.688  1.00  0.00     0.160 HD
HETATM   18  H12 UNL     1      23.143   3.370  51.372  1.00  0.00     0.318 HD
ENDROOT
BRANCH  11  19
HETATM   19  C10 UNL     1      25.345   2.790  51.876  1.00  0.00     0.308 C 
BRANCH  19  20
HETATM   20  N5  UNL     1      26.373   1.778  51.834  1.00  0.00     0.094 N 
HETATM   21  C11 UNL     1      25.934   0.542  52.482  1.00  0.00     0.298 C 
HETATM   22  C12 UNL     1      25.753   0.698  53.963  1.00  0.00     0.198 C 
HETATM   23  O2  UNL     1      26.932   1.058  54.610  1.00  0.00    -0.388 OA
HETATM   24  C13 UNL     1      27.952   1.226  53.654  1.00  0.00     0.198 C 
HETATM   25  C14 UNL     1      27.515   2.243  52.602  1.00  0.00     0.298 C 
ENDBRANCH  19  20
ENDBRANCH  11  19
BRANCH   1  26
HETATM   26  C2  UNL     1      27.328   8.684  49.464  1.00  0.00     0.094 A 
HETATM   27  C1  UNL     1      27.393   9.221  50.631  1.00  0.00    -0.017 A 
HETATM   28  O1  UNL     1      26.546   8.122  50.713  1.00  0.00     0.000 OA
HETATM   29  H1  UNL     1      26.504   7.698  51.650  1.00  0.00     0.000 HD
ENDBRANCH   1  26
TORSDOF 3
ENDMDL
MODEL 8
REMARK VINA RESULT:      -6.8      3.222      5.791
REMARK  3 active torsions:
REMARK  status: ('A' for Active; 'I' for Inactive)
REMARK    1  A    between atoms: C2_3  and  C3_4 
REMARK    2  A    between atoms: C9_14  and  C10_15 
REMARK    3  A    between atoms: C10_15  and  N5_16 
ROOT
HETATM    1  C3  UNL     1      20.233   1.772  50.471  1.00  0.00     0.132 C 
HETATM    2  N1  UNL     1      20.536   0.918  51.433  1.00  0.00    -0.161 NA
HETATM    3  N2  UNL     1      21.825   0.420  51.552  1.00  0.00    -0.288 N 
HETATM    4  C4  UNL     1      22.573  -0.040  52.622  1.00  0.00     0.109 C 
HETATM    5  C5  UNL     1      23.603  -0.123  53.395  1.00  0.00     0.020 C 
HETATM    6  C6  UNL     1      24.834   0.678  53.165  1.00  0.00     0.018 C 
HETATM    7  C7  UNL     1      25.654   1.540  52.586  1.00  0.00     0.084 C 
HETATM    8  N3  UNL     1      26.801   2.368  52.269  1.00  0.00    -0.375 N 
HETATM    9  C8  UNL     1      26.483   3.028  50.978  1.00  0.00     0.392 C 
HETATM   10  N4  UNL     1      25.213   3.652  51.171  1.00  0.00     0.107 N 
HETATM   11  C9  UNL     1      24.455   3.912  49.936  1.00  0.00     0.257 C 
HETATM   12  C15 UNL     1      23.094   3.492  50.302  1.00  0.00     0.054 C 
HETATM   13  C16 UNL     1      22.626   2.607  49.459  1.00  0.00     0.118 A 
HETATM   14  C17 UNL     1      21.882   1.601  48.652  1.00  0.00     0.134 A 
HETATM   15  N6  UNL     1      21.373   2.007  49.738  1.00  0.00    -0.351 N 
HETATM   16  H4  UNL     1      22.716   0.214  51.003  1.00  0.00     0.188 HD
HETATM   17  H9  UNL     1      27.067   1.929  53.174  1.00  0.00     0.160 HD
HETATM   18  H12 UNL     1      25.356   4.625  51.563  1.00  0.00     0.318 HD
ENDROOT
BRANCH  11  19
HETATM   19  C10 UNL     1      24.666   5.269  49.430  1.00  0.00     0.308 C 
BRANCH  19  20
HETATM   20  N5  UNL     1      25.147   6.243  50.381  1.00  0.00     0.094 N 
HETATM   21  C11 UNL     1      24.051   7.036  50.936  1.00  0.00     0.298 C 
HETATM   22  C12 UNL     1      23.410   7.931  49.917  1.00  0.00     0.198 C 
HETATM   23  O2  UNL     1      24.303   8.855  49.381  1.00  0.00    -0.388 OA
HETATM   24  C13 UNL     1      25.581   8.633  49.927  1.00  0.00     0.198 C 
HETATM   25  C14 UNL     1      26.005   7.187  49.686  1.00  0.00     0.298 C 
ENDBRANCH  19  20
ENDBRANCH  11  19
BRANCH   1  26
HETATM   26  C2  UNL     1      18.855   2.176  50.502  1.00  0.00     0.094 A 
HETATM   27  C1  UNL     1      17.798   1.783  49.882  1.00  0.00    -0.017 A 
HETATM   28  O1  UNL     1      18.865   1.013  49.436  1.00  0.00     0.000 OA
HETATM   29  H1  UNL     1      18.592   0.080  49.099  1.00  0.00     0.000 HD
ENDBRANCH   1  26
TORSDOF 3
ENDMDL
MODEL 9
REMARK VINA RESULT:      -6.5     21.318     23.669
REMARK  3 active torsions:
REMARK  status: ('A' for Active; 'I' for Inactive)
REMARK    1  A    between atoms: C2_3  and  C3_4 
REMARK    2  A    between atoms: C9_14  and  C10_15 
REMARK    3  A    between atoms: C10_15  and  N5_16 
ROOT
HETATM    1  C3  UNL     1      43.369   1.625  68.474  1.00  0.00     0.132 C 
HETATM    2  N1  UNL     1      42.907   0.819  67.533  1.00  0.00    -0.161 NA
HETATM    3  N2  UNL     1      41.869  -0.060  67.806  1.00  0.00    -0.288 N 
HETATM    4  C4  UNL     1      40.875  -0.630  67.029  1.00  0.00     0.109 C 
HETATM    5  C5  UNL     1      39.671  -0.968  66.712  1.00  0.00     0.020 C 
HETATM    6  C6  UNL     1      38.503  -0.642  67.571  1.00  0.00     0.018 C 
HETATM    7  C7  UNL     1      37.826  -0.159  68.601  1.00  0.00     0.084 C 
HETATM    8  N3  UNL     1      36.762   0.211  69.512  1.00  0.00    -0.375 N 
HETATM    9  C8  UNL     1      37.429   0.806  70.698  1.00  0.00     0.392 C 
HETATM   10  N4  UNL     1      38.283   1.828  70.182  1.00  0.00     0.107 N 
HETATM   11  C9  UNL     1      39.408   2.197  71.058  1.00  0.00     0.257 C 
HETATM   12  C15 UNL     1      40.532   2.285  70.113  1.00  0.00     0.054 C 
HETATM   13  C16 UNL     1      41.528   1.522  70.487  1.00  0.00     0.118 A 
HETATM   14  C17 UNL     1      42.778   0.741  70.694  1.00  0.00     0.134 A 
HETATM   15  N6  UNL     1      42.643   1.398  69.620  1.00  0.00    -0.351 N 
HETATM   16  H4  UNL     1      41.391  -0.600  68.590  1.00  0.00     0.188 HD
HETATM   17  H9  UNL     1      36.252  -0.198  68.704  1.00  0.00     0.160 HD
HETATM   18  H12 UNL     1      37.741   2.734  70.109  1.00  0.00     0.318 HD
ENDROOT
BRANCH  11  19
HETATM   19  C10 UNL     1      39.098   3.352  71.901  1.00  0.00     0.308 C 
BRANCH  19  20
HETATM   20  N5  UNL     1      37.964   4.152  71.507  1.00  0.00     0.094 N 
HETATM   21  C11 UNL     1      38.340   5.551  71.302  1.00  0.00     0.298 C 
HETATM   22  C12 UNL     1      38.739   6.236  72.576  1.00  0.00     0.198 C 
HETATM   23  O2  UNL     1      37.709   6.262  73.512  1.00  0.00    -0.388 OA
HETATM   24  C13 UNL     1      36.595   5.575  72.994  1.00  0.00     0.198 C 
HETATM   25  C14 UNL     1      36.999   4.158  72.593  1.00  0.00     0.298 C 
ENDBRANCH  19  20
ENDBRANCH  11  19
BRANCH   1  26
HETATM   26  C2  UNL     1      44.443   2.459  68.012  1.00  0.00     0.094 A 
HETATM   27  C1  UNL     1      44.548   3.716  67.758  1.00  0.00    -0.017 A 
HETATM   28  O1  UNL     1      43.247   3.473  68.182  1.00  0.00     0.000 OA
HETATM   29  H1  UNL     1      42.793   4.287  68.620  1.00  0.00     0.000 HD
ENDBRANCH   1  26
TORSDOF 3
ENDMDL
