MODEL 1
REMARK VINA RESULT:      -6.7      0.000      0.000
REMARK  8 active torsions:
REMARK  status: ('A' for Active; 'I' for Inactive)
REMARK    1  A    between atoms: C2_2  and  O1_3 
REMARK    2  A    between atoms: O1_3  and  C3_4 
REMARK    3  A    between atoms: C3_4  and  C4_5 
REMARK    4  A    between atoms: C4_5  and  N1_6 
REMARK    5  A    between atoms: C7_10  and  N3_11 
REMARK    6  A    between atoms: N3_11  and  C8_12 
REMARK    7  A    between atoms: C10_14  and  O2_15 
REMARK    8  A    between atoms: C13_18  and  O3_19 
ROOT
HETATM    1  C4  UNL     1      26.591   1.851  52.695  1.00  0.00     0.294 A 
HETATM    2  N2  UNL     1      26.566   2.843  51.611  1.00  0.00    -0.356 N 
HETATM    3  C6  UNL     1      25.146   2.933  51.621  1.00  0.00     0.115 A 
HETATM    4  C7  UNL     1      25.145   2.039  52.598  1.00  0.00     0.083 A 
HETATM    5  H12 UNL     1      27.447   3.206  51.147  1.00  0.00     0.162 HD
ENDROOT
BRANCH   4   6
HETATM    6  N3  UNL     1      23.978   1.542  53.233  1.00  0.00    -0.378 N 
HETATM    7  H14 UNL     1      23.419   2.186  53.821  1.00  0.00     0.160 HD
BRANCH   6   8
HETATM    8  C8  UNL     1      23.567   0.163  53.068  1.00  0.00     0.144 A 
HETATM    9  C9  UNL     1      23.894  -0.640  54.277  1.00  0.00     0.096 A 
HETATM   10  C10 UNL     1      22.696  -1.265  54.878  1.00  0.00     0.045 A 
HETATM   11  C11 UNL     1      21.412  -1.261  54.574  1.00  0.00     0.034 A 
HETATM   12  C12 UNL     1      21.075  -0.479  53.394  1.00  0.00     0.037 A 
HETATM   13  C13 UNL     1      22.110   0.101  52.816  1.00  0.00     0.069 A 
BRANCH  10  14
HETATM   14  O2  UNL     1      23.042  -2.017  56.021  1.00  0.00    -0.365 OA
HETATM   15  H18 UNL     1      23.170  -1.463  56.864  1.00  0.00     0.217 HD
ENDBRANCH  10  14
BRANCH  13  16
HETATM   16  O3  UNL     1      21.817   0.866  51.670  1.00  0.00    -0.358 OA
HETATM   17  C14 UNL     1      20.714   0.607  50.840  1.00  0.00     0.209 C 
ENDBRANCH  13  16
ENDBRANCH   6   8
ENDBRANCH   4   6
BRANCH   1  18
HETATM   18  C3  UNL     1      27.145   0.554  52.161  1.00  0.00     0.238 C 
BRANCH  18  19
HETATM   19  O1  UNL     1      27.138  -0.362  53.214  1.00  0.00    -0.387 OA
BRANCH  19  20
HETATM   20  C2  UNL     1      28.087  -1.350  53.082  1.00  0.00     0.163 C 
HETATM   21  C1  UNL     1      29.423  -0.960  53.669  1.00  0.00     0.033 C 
ENDBRANCH  19  20
ENDBRANCH  18  19
ENDBRANCH   1  18
BRANCH   1  22
HETATM   22  N1  UNL     1      27.260   2.416  53.833  1.00  0.00     0.116 N 
HETATM   23  C5  UNL     1      28.684   2.483  53.693  1.00  0.00     0.310 C 
HETATM   24  H8  UNL     1      26.810   3.319  54.100  1.00  0.00     0.319 HD
ENDBRANCH   1  22
TORSDOF 8
ENDMDL
MODEL 2
REMARK VINA RESULT:      -6.5      2.597      5.510
REMARK  8 active torsions:
REMARK  status: ('A' for Active; 'I' for Inactive)
REMARK    1  A    between atoms: C2_2  and  O1_3 
REMARK    2  A    between atoms: O1_3  and  C3_4 
REMARK    3  A    between atoms: C3_4  and  C4_5 
REMARK    4  A    between atoms: C4_5  and  N1_6 
REMARK    5  A    between atoms: C7_10  and  N3_11 
REMARK    6  A    between atoms: N3_11  and  C8_12 
REMARK    7  A    between atoms: C10_14  and  O2_15 
REMARK    8  A    between atoms: C13_18  and  O3_19 
ROOT
HETATM    1  C4  UNL     1      24.222   2.325  52.255  1.00  0.00     0.294 A 
HETATM    2  N2  UNL     1      23.072   1.584  52.789  1.00  0.00    -0.356 N 
HETATM    3  C6  UNL     1      23.830   0.397  52.993  1.00  0.00     0.115 A 
HETATM    4  C7  UNL     1      24.880   1.045  52.514  1.00  0.00     0.083 A 
HETATM    5  H12 UNL     1      22.108   2.016  52.888  1.00  0.00     0.162 HD
ENDROOT
BRANCH   4   6
HETATM    6  N3  UNL     1      26.177   0.486  52.376  1.00  0.00    -0.378 N 
HETATM    7  H14 UNL     1      26.699   0.653  51.497  1.00  0.00     0.160 HD
BRANCH   6   8
HETATM    8  C8  UNL     1      26.767  -0.306  53.435  1.00  0.00     0.144 A 
HETATM    9  C9  UNL     1      26.903  -1.730  53.026  1.00  0.00     0.096 A 
HETATM   10  C10 UNL     1      28.305  -2.198  53.079  1.00  0.00     0.045 A 
HETATM   11  C11 UNL     1      29.449  -1.628  53.409  1.00  0.00     0.034 A 
HETATM   12  C12 UNL     1      29.333  -0.234  53.811  1.00  0.00     0.037 A 
HETATM   13  C13 UNL     1      28.100   0.236  53.782  1.00  0.00     0.069 A 
BRANCH  10  14
HETATM   14  O2  UNL     1      28.398  -3.550  52.686  1.00  0.00    -0.365 OA
HETATM   15  H18 UNL     1      28.765  -4.170  53.403  1.00  0.00     0.217 HD
ENDBRANCH  10  14
BRANCH  13  16
HETATM   16  O3  UNL     1      27.953   1.584  54.166  1.00  0.00    -0.358 OA
HETATM   17  C14 UNL     1      28.730   2.620  53.625  1.00  0.00     0.209 C 
ENDBRANCH  13  16
ENDBRANCH   6   8
ENDBRANCH   4   6
BRANCH   1  18
HETATM   18  C3  UNL     1      23.956   2.671  50.811  1.00  0.00     0.238 C 
BRANCH  18  19
HETATM   19  O1  UNL     1      25.189   2.695  50.158  1.00  0.00    -0.387 OA
BRANCH  19  20
HETATM   20  C2  UNL     1      25.444   3.885  49.517  1.00  0.00     0.163 C 
HETATM   21  C1  UNL     1      26.919   4.130  49.300  1.00  0.00     0.033 C 
ENDBRANCH  19  20
ENDBRANCH  18  19
ENDBRANCH   1  18
BRANCH   1  22
HETATM   22  N1  UNL     1      24.527   3.418  53.133  1.00  0.00     0.116 N 
HETATM   23  C5  UNL     1      23.678   4.558  52.953  1.00  0.00     0.310 C 
HETATM   24  H8  UNL     1      24.588   3.079  54.118  1.00  0.00     0.319 HD
ENDBRANCH   1  22
TORSDOF 8
ENDMDL
MODEL 3
REMARK VINA RESULT:      -6.4      2.593      5.614
REMARK  8 active torsions:
REMARK  status: ('A' for Active; 'I' for Inactive)
REMARK    1  A    between atoms: C2_2  and  O1_3 
REMARK    2  A    between atoms: O1_3  and  C3_4 
REMARK    3  A    between atoms: C3_4  and  C4_5 
REMARK    4  A    between atoms: C4_5  and  N1_6 
REMARK    5  A    between atoms: C7_10  and  N3_11 
REMARK    6  A    between atoms: N3_11  and  C8_12 
REMARK    7  A    between atoms: C10_14  and  O2_15 
REMARK    8  A    between atoms: C13_18  and  O3_19 
ROOT
HETATM    1  C4  UNL     1      24.327   3.070  51.749  1.00  0.00     0.294 A 
HETATM    2  N2  UNL     1      23.013   2.420  51.648  1.00  0.00    -0.356 N 
HETATM    3  C6  UNL     1      23.395   1.338  52.488  1.00  0.00     0.115 A 
HETATM    4  C7  UNL     1      24.587   1.905  52.593  1.00  0.00     0.083 A 
HETATM    5  H12 UNL     1      22.217   2.826  51.077  1.00  0.00     0.162 HD
ENDROOT
BRANCH   4   6
HETATM    6  N3  UNL     1      25.665   1.379  53.352  1.00  0.00    -0.378 N 
HETATM    7  H14 UNL     1      25.479   1.050  54.316  1.00  0.00     0.160 HD
BRANCH   6   8
HETATM    8  C8  UNL     1      27.000   1.300  52.798  1.00  0.00     0.144 A 
HETATM    9  C9  UNL     1      27.919   2.251  53.480  1.00  0.00     0.096 A 
HETATM   10  C10 UNL     1      29.075   1.569  54.102  1.00  0.00     0.045 A 
HETATM   11  C11 UNL     1      29.460   0.309  54.180  1.00  0.00     0.034 A 
HETATM   12  C12 UNL     1      28.572  -0.635  53.518  1.00  0.00     0.037 A 
HETATM   13  C13 UNL     1      27.522  -0.078  52.945  1.00  0.00     0.069 A 
BRANCH  10  14
HETATM   14  O2  UNL     1      29.923   2.499  54.739  1.00  0.00    -0.365 OA
HETATM   15  H18 UNL     1      30.624   2.912  54.128  1.00  0.00     0.217 HD
ENDBRANCH  10  14
BRANCH  13  16
HETATM   16  O3  UNL     1      26.641  -0.965  52.295  1.00  0.00    -0.358 OA
HETATM   17  C14 UNL     1      26.853  -2.352  52.247  1.00  0.00     0.209 C 
ENDBRANCH  13  16
ENDBRANCH   6   8
ENDBRANCH   4   6
BRANCH   1  18
HETATM   18  C3  UNL     1      24.976   3.080  50.388  1.00  0.00     0.238 C 
BRANCH  18  19
HETATM   19  O1  UNL     1      26.061   3.957  50.454  1.00  0.00    -0.387 OA
BRANCH  19  20
HETATM   20  C2  UNL     1      26.154   4.790  49.364  1.00  0.00     0.163 C 
HETATM   21  C1  UNL     1      27.521   4.763  48.721  1.00  0.00     0.033 C 
ENDBRANCH  19  20
ENDBRANCH  18  19
ENDBRANCH   1  18
BRANCH   1  22
HETATM   22  N1  UNL     1      24.175   4.340  52.399  1.00  0.00     0.116 N 
HETATM   23  C5  UNL     1      22.899   4.954  52.177  1.00  0.00     0.310 C 
HETATM   24  H8  UNL     1      24.447   4.263  53.404  1.00  0.00     0.319 HD
ENDBRANCH   1  22
TORSDOF 8
ENDMDL
MODEL 4
REMARK VINA RESULT:      -6.2      2.246      4.261
REMARK  8 active torsions:
REMARK  status: ('A' for Active; 'I' for Inactive)
REMARK    1  A    between atoms: C2_2  and  O1_3 
REMARK    2  A    between atoms: O1_3  and  C3_4 
REMARK    3  A    between atoms: C3_4  and  C4_5 
REMARK    4  A    between atoms: C4_5  and  N1_6 
REMARK    5  A    between atoms: C7_10  and  N3_11 
REMARK    6  A    between atoms: N3_11  and  C8_12 
REMARK    7  A    between atoms: C10_14  and  O2_15 
REMARK    8  A    between atoms: C13_18  and  O3_19 
ROOT
HETATM    1  C4  UNL     1      26.089  -0.189  54.207  1.00  0.00     0.294 A 
HETATM    2  N2  UNL     1      26.909  -1.196  53.520  1.00  0.00    -0.356 N 
HETATM    3  C6  UNL     1      26.483  -0.776  52.229  1.00  0.00     0.115 A 
HETATM    4  C7  UNL     1      25.736   0.138  52.827  1.00  0.00     0.083 A 
HETATM    5  H12 UNL     1      27.525  -1.884  54.040  1.00  0.00     0.162 HD
ENDROOT
BRANCH   4   6
HETATM    6  N3  UNL     1      24.907   1.070  52.149  1.00  0.00    -0.378 N 
HETATM    7  H14 UNL     1      25.054   1.218  51.134  1.00  0.00     0.160 HD
BRANCH   6   8
HETATM    8  C8  UNL     1      23.876   1.803  52.852  1.00  0.00     0.144 A 
HETATM    9  C9  UNL     1      24.359   3.152  53.255  1.00  0.00     0.096 A 
HETATM   10  C10 UNL     1      23.530   4.238  52.689  1.00  0.00     0.045 A 
HETATM   11  C11 UNL     1      22.464   4.266  51.910  1.00  0.00     0.034 A 
HETATM   12  C12 UNL     1      21.979   2.954  51.507  1.00  0.00     0.037 A 
HETATM   13  C13 UNL     1      22.684   1.946  51.986  1.00  0.00     0.069 A 
BRANCH  10  14
HETATM   14  O2  UNL     1      24.016   5.501  53.090  1.00  0.00    -0.365 OA
HETATM   15  H18 UNL     1      24.985   5.676  52.834  1.00  0.00     0.217 HD
ENDBRANCH  10  14
BRANCH  13  16
HETATM   16  O3  UNL     1      22.240   0.662  51.613  1.00  0.00    -0.358 OA
HETATM   17  C14 UNL     1      20.971   0.423  51.063  1.00  0.00     0.209 C 
ENDBRANCH  13  16
ENDBRANCH   6   8
ENDBRANCH   4   6
BRANCH   1  18
HETATM   18  C3  UNL     1      25.037  -0.890  55.030  1.00  0.00     0.238 C 
BRANCH  18  19
HETATM   19  O1  UNL     1      23.840  -0.821  54.315  1.00  0.00    -0.387 OA
BRANCH  19  20
HETATM   20  C2  UNL     1      22.751  -1.257  55.033  1.00  0.00     0.163 C 
HETATM   21  C1  UNL     1      21.514  -0.428  54.782  1.00  0.00     0.033 C 
ENDBRANCH  19  20
ENDBRANCH  18  19
ENDBRANCH   1  18
BRANCH   1  22
HETATM   22  N1  UNL     1      26.951   0.722  54.906  1.00  0.00     0.116 N 
HETATM   23  C5  UNL     1      28.317   0.294  54.967  1.00  0.00     0.310 C 
HETATM   24  H8  UNL     1      26.819   1.691  54.540  1.00  0.00     0.319 HD
ENDBRANCH   1  22
TORSDOF 8
ENDMDL
MODEL 5
REMARK VINA RESULT:      -6.2      2.277      5.036
REMARK  8 active torsions:
REMARK  status: ('A' for Active; 'I' for Inactive)
REMARK    1  A    between atoms: C2_2  and  O1_3 
REMARK    2  A    between atoms: O1_3  and  C3_4 
REMARK    3  A    between atoms: C3_4  and  C4_5 
REMARK    4  A    between atoms: C4_5  and  N1_6 
REMARK    5  A    between atoms: C7_10  and  N3_11 
REMARK    6  A    between atoms: N3_11  and  C8_12 
REMARK    7  A    between atoms: C10_14  and  O2_15 
REMARK    8  A    between atoms: C13_18  and  O3_19 
ROOT
HETATM    1  C4  UNL     1      26.212  -0.242  54.140  1.00  0.00     0.294 A 
HETATM    2  N2  UNL     1      27.037  -1.302  53.545  1.00  0.00    -0.356 N 
HETATM    3  C6  UNL     1      26.674  -0.947  52.215  1.00  0.00     0.115 A 
HETATM    4  C7  UNL     1      25.923   0.015  52.729  1.00  0.00     0.083 A 
HETATM    5  H12 UNL     1      27.615  -1.973  54.128  1.00  0.00     0.162 HD
ENDROOT
BRANCH   4   6
HETATM    6  N3  UNL     1      25.145   0.923  51.966  1.00  0.00    -0.378 N 
HETATM    7  H14 UNL     1      24.405   0.545  51.348  1.00  0.00     0.160 HD
BRANCH   6   8
HETATM    8  C8  UNL     1      25.372   2.351  52.044  1.00  0.00     0.144 A 
HETATM    9  C9  UNL     1      26.574   2.744  51.259  1.00  0.00     0.096 A 
HETATM   10  C10 UNL     1      26.258   3.729  50.202  1.00  0.00     0.045 A 
HETATM   11  C11 UNL     1      25.148   4.328  49.811  1.00  0.00     0.034 A 
HETATM   12  C12 UNL     1      23.963   3.954  50.569  1.00  0.00     0.037 A 
HETATM   13  C13 UNL     1      24.189   3.075  51.527  1.00  0.00     0.069 A 
BRANCH  10  14
HETATM   14  O2  UNL     1      27.417   4.079  49.479  1.00  0.00    -0.365 OA
HETATM   15  H18 UNL     1      27.676   5.060  49.552  1.00  0.00     0.217 HD
ENDBRANCH  10  14
BRANCH  13  16
HETATM   16  O3  UNL     1      23.061   2.691  52.280  1.00  0.00    -0.358 OA
HETATM   17  C14 UNL     1      21.841   2.323  51.692  1.00  0.00     0.209 C 
ENDBRANCH  13  16
ENDBRANCH   6   8
ENDBRANCH   4   6
BRANCH   1  18
HETATM   18  C3  UNL     1      25.111  -0.875  54.954  1.00  0.00     0.238 C 
BRANCH  18  19
HETATM   19  O1  UNL     1      23.910  -0.623  54.290  1.00  0.00    -0.387 OA
BRANCH  19  20
HETATM   20  C2  UNL     1      22.812  -1.144  54.934  1.00  0.00     0.163 C 
HETATM   21  C1  UNL     1      21.579  -1.174  54.061  1.00  0.00     0.033 C 
ENDBRANCH  19  20
ENDBRANCH  18  19
ENDBRANCH   1  18
BRANCH   1  22
HETATM   22  N1  UNL     1      27.064   0.690  54.823  1.00  0.00     0.116 N 
HETATM   23  C5  UNL     1      28.416   0.238  54.966  1.00  0.00     0.310 C 
HETATM   24  H8  UNL     1      26.969   1.638  54.400  1.00  0.00     0.319 HD
ENDBRANCH   1  22
TORSDOF 8
ENDMDL
MODEL 6
REMARK VINA RESULT:      -6.0      1.582      2.721
REMARK  8 active torsions:
REMARK  status: ('A' for Active; 'I' for Inactive)
REMARK    1  A    between atoms: C2_2  and  O1_3 
REMARK    2  A    between atoms: O1_3  and  C3_4 
REMARK    3  A    between atoms: C3_4  and  C4_5 
REMARK    4  A    between atoms: C4_5  and  N1_6 
REMARK    5  A    between atoms: C7_10  and  N3_11 
REMARK    6  A    between atoms: N3_11  and  C8_12 
REMARK    7  A    between atoms: C10_14  and  O2_15 
REMARK    8  A    between atoms: C13_18  and  O3_19 
ROOT
HETATM    1  C4  UNL     1      26.353   1.688  52.637  1.00  0.00     0.294 A 
HETATM    2  N2  UNL     1      26.677   2.645  53.704  1.00  0.00    -0.356 N 
HETATM    3  C6  UNL     1      25.319   2.770  54.112  1.00  0.00     0.115 A 
HETATM    4  C7  UNL     1      25.004   1.910  53.156  1.00  0.00     0.083 A 
HETATM    5  H12 UNL     1      27.666   2.971  53.901  1.00  0.00     0.162 HD
ENDROOT
BRANCH   4   6
HETATM    6  N3  UNL     1      23.687   1.460  52.879  1.00  0.00    -0.378 N 
HETATM    7  H14 UNL     1      22.955   2.164  52.678  1.00  0.00     0.160 HD
BRANCH   6   8
HETATM    8  C8  UNL     1      23.364   0.049  52.876  1.00  0.00     0.144 A 
HETATM    9  C9  UNL     1      23.806  -0.603  54.138  1.00  0.00     0.096 A 
HETATM   10  C10 UNL     1      22.684  -1.237  54.866  1.00  0.00     0.045 A 
HETATM   11  C11 UNL     1      21.389  -1.345  54.636  1.00  0.00     0.034 A 
HETATM   12  C12 UNL     1      20.940  -0.711  53.405  1.00  0.00     0.037 A 
HETATM   13  C13 UNL     1      21.904  -0.130  52.715  1.00  0.00     0.069 A 
BRANCH  10  14
HETATM   14  O2  UNL     1      23.137  -1.844  56.056  1.00  0.00    -0.365 OA
HETATM   15  H18 UNL     1      24.105  -1.634  56.290  1.00  0.00     0.217 HD
ENDBRANCH  10  14
BRANCH  13  16
HETATM   16  O3  UNL     1      21.502   0.493  51.516  1.00  0.00    -0.358 OA
HETATM   17  C14 UNL     1      20.218   1.027  51.327  1.00  0.00     0.209 C 
ENDBRANCH  13  16
ENDBRANCH   6   8
ENDBRANCH   4   6
BRANCH   1  18
HETATM   18  C3  UNL     1      26.678   2.312  51.303  1.00  0.00     0.238 C 
BRANCH  18  19
HETATM   19  O1  UNL     1      25.466   2.577  50.665  1.00  0.00    -0.387 OA
BRANCH  19  20
HETATM   20  C2  UNL     1      25.496   3.713  49.889  1.00  0.00     0.163 C 
HETATM   21  C1  UNL     1      26.866   3.998  49.320  1.00  0.00     0.033 C 
ENDBRANCH  19  20
ENDBRANCH  18  19
ENDBRANCH   1  18
BRANCH   1  22
HETATM   22  N1  UNL     1      26.979   0.430  52.929  1.00  0.00     0.116 N 
HETATM   23  C5  UNL     1      26.782  -0.563  51.914  1.00  0.00     0.310 C 
HETATM   24  H8  UNL     1      27.976   0.580  53.197  1.00  0.00     0.319 HD
ENDBRANCH   1  22
TORSDOF 8
ENDMDL
MODEL 7
REMARK VINA RESULT:      -6.0      2.032      4.613
REMARK  8 active torsions:
REMARK  status: ('A' for Active; 'I' for Inactive)
REMARK    1  A    between atoms: C2_2  and  O1_3 
REMARK    2  A    between atoms: O1_3  and  C3_4 
REMARK    3  A    between atoms: C3_4  and  C4_5 
REMARK    4  A    between atoms: C4_5  and  N1_6 
REMARK    5  A    between atoms: C7_10  and  N3_11 
REMARK    6  A    between atoms: N3_11  and  C8_12 
REMARK    7  A    between atoms: C10_14  and  O2_15 
REMARK    8  A    between atoms: C13_18  and  O3_19 
ROOT
HETATM    1  C4  UNL     1      24.410   4.067  50.885  1.00  0.00     0.294 A 
HETATM    2  N2  UNL     1      23.707   5.293  51.284  1.00  0.00    -0.356 N 
HETATM    3  C6  UNL     1      23.364   4.775  52.564  1.00  0.00     0.115 A 
HETATM    4  C7  UNL     1      23.992   3.660  52.226  1.00  0.00     0.083 A 
HETATM    5  H12 UNL     1      23.625   6.139  50.649  1.00  0.00     0.162 HD
ENDROOT
BRANCH   4   6
HETATM    6  N3  UNL     1      24.114   2.520  53.062  1.00  0.00    -0.378 N 
HETATM    7  H14 UNL     1      23.467   2.421  53.864  1.00  0.00     0.160 HD
BRANCH   6   8
HETATM    8  C8  UNL     1      25.120   1.510  52.807  1.00  0.00     0.144 A 
HETATM    9  C9  UNL     1      26.443   1.924  53.348  1.00  0.00     0.096 A 
HETATM   10  C10 UNL     1      26.973   0.961  54.337  1.00  0.00     0.045 A 
HETATM   11  C11 UNL     1      26.526  -0.177  54.837  1.00  0.00     0.034 A 
HETATM   12  C12 UNL     1      25.233  -0.596  54.318  1.00  0.00     0.037 A 
HETATM   13  C13 UNL     1      24.713   0.230  53.429  1.00  0.00     0.069 A 
BRANCH  10  14
HETATM   14  O2  UNL     1      28.225   1.384  54.828  1.00  0.00    -0.365 OA
HETATM   15  H18 UNL     1      28.425   1.082  55.779  1.00  0.00     0.217 HD
ENDBRANCH  10  14
BRANCH  13  16
HETATM   16  O3  UNL     1      23.460  -0.147  52.907  1.00  0.00    -0.358 OA
HETATM   17  C14 UNL     1      22.502  -0.850  53.655  1.00  0.00     0.209 C 
ENDBRANCH  13  16
ENDBRANCH   6   8
ENDBRANCH   4   6
BRANCH   1  18
HETATM   18  C3  UNL     1      23.680   3.436  49.726  1.00  0.00     0.238 C 
BRANCH  18  19
HETATM   19  O1  UNL     1      23.216   2.193  50.158  1.00  0.00    -0.387 OA
BRANCH  19  20
HETATM   20  C2  UNL     1      22.108   1.757  49.469  1.00  0.00     0.163 C 
HETATM   21  C1  UNL     1      21.314   0.721  50.231  1.00  0.00     0.033 C 
ENDBRANCH  19  20
ENDBRANCH  18  19
ENDBRANCH   1  18
BRANCH   1  22
HETATM   22  N1  UNL     1      25.800   4.366  50.685  1.00  0.00     0.116 N 
HETATM   23  C5  UNL     1      26.474   3.434  49.830  1.00  0.00     0.310 C 
HETATM   24  H8  UNL     1      25.914   5.365  50.408  1.00  0.00     0.319 HD
ENDBRANCH   1  22
TORSDOF 8
ENDMDL
MODEL 8
REMARK VINA RESULT:      -6.0      2.750      5.350
REMARK  8 active torsions:
REMARK  status: ('A' for Active; 'I' for Inactive)
REMARK    1  A    between atoms: C2_2  and  O1_3 
REMARK    2  A    between atoms: O1_3  and  C3_4 
REMARK    3  A    between atoms: C3_4  and  C4_5 
REMARK    4  A    between atoms: C4_5  and  N1_6 
REMARK    5  A    between atoms: C7_10  and  N3_11 
REMARK    6  A    between atoms: N3_11  and  C8_12 
REMARK    7  A    between atoms: C10_14  and  O2_15 
REMARK    8  A    between atoms: C13_18  and  O3_19 
ROOT
HETATM    1  C4  UNL     1      24.420   4.232  51.111  1.00  0.00     0.294 A 
HETATM    2  N2  UNL     1      23.011   3.819  51.047  1.00  0.00    -0.356 N 
HETATM    3  C6  UNL     1      23.135   2.944  52.163  1.00  0.00     0.115 A 
HETATM    4  C7  UNL     1      24.408   3.301  52.239  1.00  0.00     0.083 A 
HETATM    5  H12 UNL     1      22.337   4.194  50.320  1.00  0.00     0.162 HD
ENDROOT
BRANCH   4   6
HETATM    6  N3  UNL     1      25.325   2.812  53.205  1.00  0.00    -0.378 N 
HETATM    7  H14 UNL     1      25.308   3.221  54.157  1.00  0.00     0.160 HD
BRANCH   6   8
HETATM    8  C8  UNL     1      26.268   1.765  52.877  1.00  0.00     0.144 A 
HETATM    9  C9  UNL     1      27.669   2.255  52.982  1.00  0.00     0.096 A 
HETATM   10  C10 UNL     1      28.467   1.473  53.952  1.00  0.00     0.045 A 
HETATM   11  C11 UNL     1      28.203   0.444  54.736  1.00  0.00     0.034 A 
HETATM   12  C12 UNL     1      26.836  -0.048  54.644  1.00  0.00     0.037 A 
HETATM   13  C13 UNL     1      26.079   0.616  53.791  1.00  0.00     0.069 A 
BRANCH  10  14
HETATM   14  O2  UNL     1      29.787   1.964  54.027  1.00  0.00    -0.365 OA
HETATM   15  H18 UNL     1      30.504   1.243  53.998  1.00  0.00     0.217 HD
ENDBRANCH  10  14
BRANCH  13  16
HETATM   16  O3  UNL     1      24.749   0.165  53.679  1.00  0.00    -0.358 OA
HETATM   17  C14 UNL     1      24.222  -0.862  54.479  1.00  0.00     0.209 C 
ENDBRANCH  13  16
ENDBRANCH   6   8
ENDBRANCH   4   6
BRANCH   1  18
HETATM   18  C3  UNL     1      25.124   3.773  49.859  1.00  0.00     0.238 C 
BRANCH  18  19
HETATM   19  O1  UNL     1      26.494   3.926  50.076  1.00  0.00    -0.387 OA
BRANCH  19  20
HETATM   20  C2  UNL     1      27.168   4.412  48.980  1.00  0.00     0.163 C 
HETATM   21  C1  UNL     1      26.814   5.846  48.662  1.00  0.00     0.033 C 
ENDBRANCH  19  20
ENDBRANCH  18  19
ENDBRANCH   1  18
BRANCH   1  22
HETATM   22  N1  UNL     1      24.485   5.635  51.409  1.00  0.00     0.116 N 
HETATM   23  C5  UNL     1      23.509   6.419  50.711  1.00  0.00     0.310 C 
HETATM   24  H8  UNL     1      24.498   5.781  52.442  1.00  0.00     0.319 HD
ENDBRANCH   1  22
TORSDOF 8
ENDMDL
MODEL 9
REMARK VINA RESULT:      -5.9      1.793      5.457
REMARK  8 active torsions:
REMARK  status: ('A' for Active; 'I' for Inactive)
REMARK    1  A    between atoms: C2_2  and  O1_3 
REMARK    2  A    between atoms: O1_3  and  C3_4 
REMARK    3  A    between atoms: C3_4  and  C4_5 
REMARK    4  A    between atoms: C4_5  and  N1_6 
REMARK    5  A    between atoms: C7_10  and  N3_11 
REMARK    6  A    between atoms: N3_11  and  C8_12 
REMARK    7  A    between atoms: C10_14  and  O2_15 
REMARK    8  A    between atoms: C13_18  and  O3_19 
ROOT
HETATM    1  C4  UNL     1      24.008   2.022  52.299  1.00  0.00     0.294 A 
HETATM    2  N2  UNL     1      24.220   3.197  53.157  1.00  0.00    -0.356 N 
HETATM    3  C6  UNL     1      25.572   2.850  53.433  1.00  0.00     0.115 A 
HETATM    4  C7  UNL     1      25.403   1.784  52.665  1.00  0.00     0.083 A 
HETATM    5  H12 UNL     1      23.460   3.912  53.345  1.00  0.00     0.162 HD
ENDROOT
BRANCH   4   6
HETATM    6  N3  UNL     1      26.407   0.817  52.400  1.00  0.00    -0.378 N 
HETATM    7  H14 UNL     1      26.825   0.782  51.453  1.00  0.00     0.160 HD
BRANCH   6   8
HETATM    8  C8  UNL     1      26.843  -0.108  53.425  1.00  0.00     0.144 A 
HETATM    9  C9  UNL     1      26.802  -1.511  52.931  1.00  0.00     0.096 A 
HETATM   10  C10 UNL     1      28.125  -2.169  52.997  1.00  0.00     0.045 A 
HETATM   11  C11 UNL     1      29.322  -1.780  53.397  1.00  0.00     0.034 A 
HETATM   12  C12 UNL     1      29.379  -0.410  53.883  1.00  0.00     0.037 A 
HETATM   13  C13 UNL     1      28.222   0.225  53.846  1.00  0.00     0.069 A 
BRANCH  10  14
HETATM   14  O2  UNL     1      28.051  -3.495  52.522  1.00  0.00    -0.365 OA
HETATM   15  H18 UNL     1      27.106  -3.815  52.322  1.00  0.00     0.217 HD
ENDBRANCH  10  14
BRANCH  13  16
HETATM   16  O3  UNL     1      28.244   1.555  54.310  1.00  0.00    -0.358 OA
HETATM   17  C14 UNL     1      29.119   2.527  53.800  1.00  0.00     0.209 C 
ENDBRANCH  13  16
ENDBRANCH   6   8
ENDBRANCH   4   6
BRANCH   1  18
HETATM   18  C3  UNL     1      22.976   1.127  52.939  1.00  0.00     0.238 C 
BRANCH  18  19
HETATM   19  O1  UNL     1      23.467  -0.178  52.878  1.00  0.00    -0.387 OA
BRANCH  19  20
HETATM   20  C2  UNL     1      22.586  -1.114  53.368  1.00  0.00     0.163 C 
HETATM   21  C1  UNL     1      21.840  -0.633  54.590  1.00  0.00     0.033 C 
ENDBRANCH  19  20
ENDBRANCH  18  19
ENDBRANCH   1  18
BRANCH   1  22
HETATM   22  N1  UNL     1      23.738   2.461  50.959  1.00  0.00     0.116 N 
HETATM   23  C5  UNL     1      24.371   3.700  50.619  1.00  0.00     0.310 C 
HETATM   24  H8  UNL     1      23.920   1.684  50.286  1.00  0.00     0.319 HD
ENDBRANCH   1  22
TORSDOF 8
ENDMDL
