MODEL 1
REMARK VINA RESULT:      -7.8      0.000      0.000
REMARK  3 active torsions:
REMARK  status: ('A' for Active; 'I' for Inactive)
REMARK    1  A    between atoms: C2_2  and  C3_3 
REMARK    2  A    between atoms: C3_3  and  N1_4 
REMARK    3  A    between atoms: N1_4  and  C4_5 
ROOT
HETATM    1  C4  UNL     1      25.657   2.297  53.590  1.00  0.00     0.025 C 
HETATM    2  C5  UNL     1      25.664   0.944  53.226  1.00  0.00     0.127 C 
HETATM    3  N2  UNL     1      24.301   0.598  52.843  1.00  0.00    -0.270 N 
HETATM    4  C6  UNL     1      24.054   1.278  51.716  1.00  0.00     0.338 A 
HETATM    5  O1  UNL     1      24.826   1.931  50.975  1.00  0.00    -0.246 OA
HETATM    6  N3  UNL     1      22.712   1.042  51.595  1.00  0.00    -0.272 N 
HETATM    7  C7  UNL     1      22.154   0.279  52.518  1.00  0.00     0.070 A 
HETATM    8  C8  UNL     1      20.932  -0.216  52.773  1.00  0.00     0.032 A 
HETATM    9  C9  UNL     1      20.838  -1.015  53.899  1.00  0.00     0.002 A 
HETATM   10  C10 UNL     1      21.939  -1.295  54.723  1.00  0.00     0.002 A 
HETATM   11  C11 UNL     1      23.215  -0.784  54.462  1.00  0.00     0.032 A 
HETATM   12  C12 UNL     1      23.250  -0.013  53.357  1.00  0.00     0.070 A 
HETATM   13  C13 UNL     1      22.194   1.856  50.551  1.00  0.00     0.102 C 
HETATM   14  C14 UNL     1      22.593   3.153  50.671  1.00  0.00     0.017 C 
HETATM   15  C15 UNL     1      23.384   4.033  51.524  1.00  0.00    -0.002 C 
HETATM   16  C16 UNL     1      24.128   4.105  52.643  1.00  0.00    -0.021 C 
HETATM   17  C17 UNL     1      24.358   2.966  53.532  1.00  0.00     0.085 C 
ENDROOT
BRANCH   1  18
HETATM   18  N1  UNL     1      26.992   2.477  53.915  1.00  0.00    -0.388 N 
HETATM   19  H6  UNL     1      26.842   2.852  54.865  1.00  0.00     0.159 HD
BRANCH  18  20
HETATM   20  C3  UNL     1      28.273   2.293  53.343  1.00  0.00     0.146 C 
BRANCH  20  21
HETATM   21  C2  UNL     1      29.094   1.397  54.172  1.00  0.00    -0.018 C 
HETATM   22  C1  UNL     1      29.539   0.210  53.711  1.00  0.00     0.008 C 
ENDBRANCH  20  21
ENDBRANCH  18  20
ENDBRANCH   1  18
TORSDOF 3
ENDMDL
MODEL 2
REMARK VINA RESULT:      -7.6      1.518      3.678
REMARK  3 active torsions:
REMARK  status: ('A' for Active; 'I' for Inactive)
REMARK    1  A    between atoms: C2_2  and  C3_3 
REMARK    2  A    between atoms: C3_3  and  N1_4 
REMARK    3  A    between atoms: N1_4  and  C4_5 
ROOT
HETATM    1  C4  UNL     1      26.282   1.955  52.117  1.00  0.00     0.025 C 
HETATM    2  C5  UNL     1      25.424   3.038  51.892  1.00  0.00     0.127 C 
HETATM    3  N2  UNL     1      24.143   2.487  51.468  1.00  0.00    -0.270 N 
HETATM    4  C6  UNL     1      23.649   1.846  52.534  1.00  0.00     0.338 A 
HETATM    5  O1  UNL     1      24.034   1.838  53.727  1.00  0.00    -0.246 OA
HETATM    6  N3  UNL     1      22.588   1.210  51.950  1.00  0.00    -0.272 N 
HETATM    7  C7  UNL     1      22.397   1.429  50.661  1.00  0.00     0.070 A 
HETATM    8  C8  UNL     1      21.510   1.055  49.724  1.00  0.00     0.032 A 
HETATM    9  C9  UNL     1      21.723   1.581  48.461  1.00  0.00     0.002 A 
HETATM   10  C10 UNL     1      22.790   2.446  48.172  1.00  0.00     0.002 A 
HETATM   11  C11 UNL     1      23.716   2.840  49.143  1.00  0.00     0.032 A 
HETATM   12  C12 UNL     1      23.463   2.300  50.351  1.00  0.00     0.070 A 
HETATM   13  C13 UNL     1      22.031   0.293  52.882  1.00  0.00     0.102 C 
HETATM   14  C14 UNL     1      22.985  -0.487  53.462  1.00  0.00     0.017 C 
HETATM   15  C15 UNL     1      24.424  -0.726  53.460  1.00  0.00    -0.002 C 
HETATM   16  C16 UNL     1      25.599  -0.371  52.909  1.00  0.00    -0.021 C 
HETATM   17  C17 UNL     1      25.721   0.630  51.851  1.00  0.00     0.085 C 
ENDROOT
BRANCH   1  18
HETATM   18  N1  UNL     1      27.431   2.622  52.512  1.00  0.00    -0.388 N 
HETATM   19  H6  UNL     1      27.374   3.390  51.824  1.00  0.00     0.159 HD
BRANCH  18  20
HETATM   20  C3  UNL     1      28.465   2.508  53.470  1.00  0.00     0.146 C 
BRANCH  20  21
HETATM   21  C2  UNL     1      28.953   1.123  53.555  1.00  0.00    -0.018 C 
HETATM   22  C1  UNL     1      28.758   0.367  54.655  1.00  0.00     0.008 C 
ENDBRANCH  20  21
ENDBRANCH  18  20
ENDBRANCH   1  18
TORSDOF 3
ENDMDL
MODEL 3
REMARK VINA RESULT:      -7.6      2.229      2.884
REMARK  3 active torsions:
REMARK  status: ('A' for Active; 'I' for Inactive)
REMARK    1  A    between atoms: C2_2  and  C3_3 
REMARK    2  A    between atoms: C3_3  and  N1_4 
REMARK    3  A    between atoms: N1_4  and  C4_5 
ROOT
HETATM    1  C4  UNL     1      24.995   2.849  51.903  1.00  0.00     0.025 C 
HETATM    2  C5  UNL     1      24.673   1.568  51.438  1.00  0.00     0.127 C 
HETATM    3  N2  UNL     1      23.397   1.202  52.042  1.00  0.00    -0.270 N 
HETATM    4  C6  UNL     1      22.489   2.025  51.505  1.00  0.00     0.338 A 
HETATM    5  O1  UNL     1      22.584   2.824  50.544  1.00  0.00    -0.246 OA
HETATM    6  N3  UNL     1      21.414   1.731  52.299  1.00  0.00    -0.272 N 
HETATM    7  C7  UNL     1      21.593   0.809  53.227  1.00  0.00     0.070 A 
HETATM    8  C8  UNL     1      20.847   0.211  54.171  1.00  0.00     0.032 A 
HETATM    9  C9  UNL     1      21.500  -0.750  54.924  1.00  0.00     0.002 A 
HETATM   10  C10 UNL     1      22.848  -1.083  54.721  1.00  0.00     0.002 A 
HETATM   11  C11 UNL     1      23.630  -0.465  53.739  1.00  0.00     0.032 A 
HETATM   12  C12 UNL     1      22.947   0.461  53.038  1.00  0.00     0.070 A 
HETATM   13  C13 UNL     1      20.372   2.658  52.024  1.00  0.00     0.102 C 
HETATM   14  C14 UNL     1      20.820   3.944  52.030  1.00  0.00     0.017 C 
HETATM   15  C15 UNL     1      22.031   4.734  52.231  1.00  0.00    -0.002 C 
HETATM   16  C16 UNL     1      23.340   4.683  52.535  1.00  0.00    -0.021 C 
HETATM   17  C17 UNL     1      24.047   3.442  52.847  1.00  0.00     0.085 C 
ENDROOT
BRANCH   1  18
HETATM   18  N1  UNL     1      26.200   3.058  51.251  1.00  0.00    -0.388 N 
HETATM   19  H6  UNL     1      26.814   2.715  52.008  1.00  0.00     0.159 HD
BRANCH  18  20
HETATM   20  C3  UNL     1      26.684   3.540  50.013  1.00  0.00     0.146 C 
BRANCH  20  21
HETATM   21  C2  UNL     1      25.848   4.645  49.517  1.00  0.00    -0.018 C 
HETATM   22  C1  UNL     1      26.375   5.688  48.844  1.00  0.00     0.008 C 
ENDBRANCH  20  21
ENDBRANCH  18  20
ENDBRANCH   1  18
TORSDOF 3
ENDMDL
MODEL 4
REMARK VINA RESULT:      -7.6      2.472      6.563
REMARK  3 active torsions:
REMARK  status: ('A' for Active; 'I' for Inactive)
REMARK    1  A    between atoms: C2_2  and  C3_3 
REMARK    2  A    between atoms: C3_3  and  N1_4 
REMARK    3  A    between atoms: N1_4  and  C4_5 
ROOT
HETATM    1  C4  UNL     1      19.805   0.088  52.980  1.00  0.00     0.025 C 
HETATM    2  C5  UNL     1      20.213   0.634  51.756  1.00  0.00     0.127 C 
HETATM    3  N2  UNL     1      21.490   1.299  51.990  1.00  0.00    -0.270 N 
HETATM    4  C6  UNL     1      22.365   0.324  52.265  1.00  0.00     0.338 A 
HETATM    5  O1  UNL     1      22.252  -0.921  52.169  1.00  0.00    -0.246 OA
HETATM    6  N3  UNL     1      23.431   1.080  52.669  1.00  0.00    -0.272 N 
HETATM    7  C7  UNL     1      23.279   2.392  52.638  1.00  0.00     0.070 A 
HETATM    8  C8  UNL     1      24.030   3.473  52.907  1.00  0.00     0.032 A 
HETATM    9  C9  UNL     1      23.411   4.693  52.697  1.00  0.00     0.002 A 
HETATM   10  C10 UNL     1      22.091   4.803  52.234  1.00  0.00     0.002 A 
HETATM   11  C11 UNL     1      21.303   3.681  51.951  1.00  0.00     0.032 A 
HETATM   12  C12 UNL     1      21.953   2.522  52.173  1.00  0.00     0.070 A 
HETATM   13  C13 UNL     1      24.426   0.221  53.210  1.00  0.00     0.102 C 
HETATM   14  C14 UNL     1      23.905  -0.657  54.111  1.00  0.00     0.017 C 
HETATM   15  C15 UNL     1      22.646  -1.037  54.743  1.00  0.00    -0.002 C 
HETATM   16  C16 UNL     1      21.333  -0.758  54.838  1.00  0.00    -0.021 C 
HETATM   17  C17 UNL     1      20.690   0.340  54.117  1.00  0.00     0.085 C 
ENDROOT
BRANCH   1  18
HETATM   18  N1  UNL     1      18.610  -0.504  52.604  1.00  0.00    -0.388 N 
HETATM   19  H6  UNL     1      18.663  -0.270  51.600  1.00  0.00     0.159 HD
BRANCH  18  20
HETATM   20  C3  UNL     1      17.538  -1.223  53.182  1.00  0.00     0.146 C 
BRANCH  20  21
HETATM   21  C2  UNL     1      17.997  -2.520  53.705  1.00  0.00    -0.018 C 
HETATM   22  C1  UNL     1      17.247  -3.636  53.596  1.00  0.00     0.008 C 
ENDBRANCH  20  21
ENDBRANCH  18  20
ENDBRANCH   1  18
TORSDOF 3
ENDMDL
MODEL 5
REMARK VINA RESULT:      -7.3      2.247      5.699
REMARK  3 active torsions:
REMARK  status: ('A' for Active; 'I' for Inactive)
REMARK    1  A    between atoms: C2_2  and  C3_3 
REMARK    2  A    between atoms: C3_3  and  N1_4 
REMARK    3  A    between atoms: N1_4  and  C4_5 
ROOT
HETATM    1  C4  UNL     1      20.674   0.512  51.820  1.00  0.00     0.025 C 
HETATM    2  C5  UNL     1      21.307   1.031  52.957  1.00  0.00     0.127 C 
HETATM    3  N2  UNL     1      22.702   1.259  52.602  1.00  0.00    -0.270 N 
HETATM    4  C6  UNL     1      22.694   2.251  51.703  1.00  0.00     0.338 A 
HETATM    5  O1  UNL     1      21.765   3.010  51.338  1.00  0.00    -0.246 OA
HETATM    6  N3  UNL     1      24.002   2.211  51.304  1.00  0.00    -0.272 N 
HETATM    7  C7  UNL     1      24.777   1.316  51.891  1.00  0.00     0.070 A 
HETATM    8  C8  UNL     1      26.070   0.953  51.836  1.00  0.00     0.032 A 
HETATM    9  C9  UNL     1      26.435  -0.072  52.692  1.00  0.00     0.002 A 
HETATM   10  C10 UNL     1      25.524  -0.694  53.560  1.00  0.00     0.002 A 
HETATM   11  C11 UNL     1      24.178  -0.320  53.622  1.00  0.00     0.032 A 
HETATM   12  C12 UNL     1      23.876   0.679  52.770  1.00  0.00     0.070 A 
HETATM   13  C13 UNL     1      24.167   3.068  50.183  1.00  0.00     0.102 C 
HETATM   14  C14 UNL     1      23.217   2.851  49.232  1.00  0.00     0.017 C 
HETATM   15  C15 UNL     1      22.054   2.018  48.944  1.00  0.00    -0.002 C 
HETATM   16  C16 UNL     1      21.281   1.014  49.395  1.00  0.00    -0.021 C 
HETATM   17  C17 UNL     1      21.529   0.308  50.651  1.00  0.00     0.085 C 
ENDROOT
BRANCH   1  18
HETATM   18  N1  UNL     1      19.383   0.358  52.299  1.00  0.00    -0.388 N 
HETATM   19  H6  UNL     1      19.364   1.205  52.889  1.00  0.00     0.159 HD
BRANCH  18  20
HETATM   20  C3  UNL     1      18.290  -0.532  52.181  1.00  0.00     0.146 C 
BRANCH  20  21
HETATM   21  C2  UNL     1      18.077  -1.273  53.434  1.00  0.00    -0.018 C 
HETATM   22  C1  UNL     1      17.660  -2.555  53.440  1.00  0.00     0.008 C 
ENDBRANCH  20  21
ENDBRANCH  18  20
ENDBRANCH   1  18
TORSDOF 3
ENDMDL
MODEL 6
REMARK VINA RESULT:      -7.2      2.388      4.119
REMARK  3 active torsions:
REMARK  status: ('A' for Active; 'I' for Inactive)
REMARK    1  A    between atoms: C2_2  and  C3_3 
REMARK    2  A    between atoms: C3_3  and  N1_4 
REMARK    3  A    between atoms: N1_4  and  C4_5 
ROOT
HETATM    1  C4  UNL     1      24.591   4.180  51.172  1.00  0.00     0.025 C 
HETATM    2  C5  UNL     1      23.611   4.229  52.172  1.00  0.00     0.127 C 
HETATM    3  N2  UNL     1      23.251   2.851  52.484  1.00  0.00    -0.270 N 
HETATM    4  C6  UNL     1      24.333   2.311  53.058  1.00  0.00     0.338 A 
HETATM    5  O1  UNL     1      25.392   2.846  53.461  1.00  0.00    -0.246 OA
HETATM    6  N3  UNL     1      23.943   0.999  53.094  1.00  0.00    -0.272 N 
HETATM    7  C7  UNL     1      22.741   0.721  52.623  1.00  0.00     0.070 A 
HETATM    8  C8  UNL     1      21.970  -0.371  52.489  1.00  0.00     0.032 A 
HETATM    9  C9  UNL     1      20.723  -0.152  51.928  1.00  0.00     0.002 A 
HETATM   10  C10 UNL     1      20.287   1.121  51.526  1.00  0.00     0.002 A 
HETATM   11  C11 UNL     1      21.085   2.262  51.664  1.00  0.00     0.032 A 
HETATM   12  C12 UNL     1      22.286   1.992  52.213  1.00  0.00     0.070 A 
HETATM   13  C13 UNL     1      25.051   0.202  53.492  1.00  0.00     0.102 C 
HETATM   14  C14 UNL     1      26.174   0.500  52.784  1.00  0.00     0.017 C 
HETATM   15  C15 UNL     1      26.659   1.375  51.721  1.00  0.00    -0.002 C 
HETATM   16  C16 UNL     1      26.315   2.331  50.839  1.00  0.00    -0.021 C 
HETATM   17  C17 UNL     1      24.953   2.844  50.698  1.00  0.00     0.085 C 
ENDROOT
BRANCH   1  18
HETATM   18  N1  UNL     1      24.833   5.532  50.991  1.00  0.00    -0.388 N 
HETATM   19  H6  UNL     1      24.315   5.865  51.819  1.00  0.00     0.159 HD
BRANCH  18  20
HETATM   20  C3  UNL     1      25.507   6.394  50.095  1.00  0.00     0.146 C 
BRANCH  20  21
HETATM   21  C2  UNL     1      25.981   5.656  48.913  1.00  0.00    -0.018 C 
HETATM   22  C1  UNL     1      27.275   5.680  48.532  1.00  0.00     0.008 C 
ENDBRANCH  20  21
ENDBRANCH  18  20
ENDBRANCH   1  18
TORSDOF 3
ENDMDL
MODEL 7
REMARK VINA RESULT:      -7.1      2.866      4.787
REMARK  3 active torsions:
REMARK  status: ('A' for Active; 'I' for Inactive)
REMARK    1  A    between atoms: C2_2  and  C3_3 
REMARK    2  A    between atoms: C3_3  and  N1_4 
REMARK    3  A    between atoms: N1_4  and  C4_5 
ROOT
HETATM    1  C4  UNL     1      25.237   4.701  50.315  1.00  0.00     0.025 C 
HETATM    2  C5  UNL     1      23.934   4.967  50.755  1.00  0.00     0.127 C 
HETATM    3  N2  UNL     1      23.235   3.689  50.815  1.00  0.00    -0.270 N 
HETATM    4  C6  UNL     1      23.820   2.998  51.801  1.00  0.00     0.338 A 
HETATM    5  O1  UNL     1      24.653   3.361  52.665  1.00  0.00    -0.246 OA
HETATM    6  N3  UNL     1      23.233   1.777  51.606  1.00  0.00    -0.272 N 
HETATM    7  C7  UNL     1      22.353   1.689  50.626  1.00  0.00     0.070 A 
HETATM    8  C8  UNL     1      21.550   0.742  50.112  1.00  0.00     0.032 A 
HETATM    9  C9  UNL     1      20.758   1.146  49.050  1.00  0.00     0.002 A 
HETATM   10  C10 UNL     1      20.786   2.453  48.541  1.00  0.00     0.002 A 
HETATM   11  C11 UNL     1      21.619   3.444  49.072  1.00  0.00     0.032 A 
HETATM   12  C12 UNL     1      22.367   2.998  50.100  1.00  0.00     0.070 A 
HETATM   13  C13 UNL     1      23.876   0.820  52.437  1.00  0.00     0.102 C 
HETATM   14  C14 UNL     1      25.232   0.885  52.335  1.00  0.00     0.017 C 
HETATM   15  C15 UNL     1      26.295   1.610  51.647  1.00  0.00    -0.002 C 
HETATM   16  C16 UNL     1      26.567   2.567  50.741  1.00  0.00    -0.021 C 
HETATM   17  C17 UNL     1      25.534   3.301  50.011  1.00  0.00     0.085 C 
ENDROOT
BRANCH   1  18
HETATM   18  N1  UNL     1      25.769   5.980  50.315  1.00  0.00    -0.388 N 
HETATM   19  H6  UNL     1      25.594   6.190  51.311  1.00  0.00     0.159 HD
BRANCH  18  20
HETATM   20  C3  UNL     1      26.384   6.890  49.424  1.00  0.00     0.146 C 
BRANCH  20  21
HETATM   21  C2  UNL     1      27.022   6.178  48.305  1.00  0.00    -0.018 C 
HETATM   22  C1  UNL     1      28.251   5.633  48.418  1.00  0.00     0.008 C 
ENDBRANCH  20  21
ENDBRANCH  18  20
ENDBRANCH   1  18
TORSDOF 3
ENDMDL
MODEL 8
REMARK VINA RESULT:      -7.0      2.289      3.753
REMARK  3 active torsions:
REMARK  status: ('A' for Active; 'I' for Inactive)
REMARK    1  A    between atoms: C2_2  and  C3_3 
REMARK    2  A    between atoms: C3_3  and  N1_4 
REMARK    3  A    between atoms: N1_4  and  C4_5 
ROOT
HETATM    1  C4  UNL     1      23.937   3.972  50.944  1.00  0.00     0.025 C 
HETATM    2  C5  UNL     1      24.437   2.772  50.422  1.00  0.00     0.127 C 
HETATM    3  N2  UNL     1      23.966   1.700  51.290  1.00  0.00    -0.270 N 
HETATM    4  C6  UNL     1      22.639   1.648  51.121  1.00  0.00     0.338 A 
HETATM    5  O1  UNL     1      21.905   2.215  50.278  1.00  0.00    -0.246 OA
HETATM    6  N3  UNL     1      22.313   0.779  52.127  1.00  0.00    -0.272 N 
HETATM    7  C7  UNL     1      23.310   0.303  52.850  1.00  0.00     0.070 A 
HETATM    8  C8  UNL     1      23.455  -0.555  53.874  1.00  0.00     0.032 A 
HETATM    9  C9  UNL     1      24.757  -0.757  54.299  1.00  0.00     0.002 A 
HETATM   10  C10 UNL     1      25.855  -0.115  53.706  1.00  0.00     0.002 A 
HETATM   11  C11 UNL     1      25.711   0.779  52.639  1.00  0.00     0.032 A 
HETATM   12  C12 UNL     1      24.426   0.939  52.267  1.00  0.00     0.070 A 
HETATM   13  C13 UNL     1      20.898   0.738  52.257  1.00  0.00     0.102 C 
HETATM   14  C14 UNL     1      20.355   1.985  52.308  1.00  0.00     0.017 C 
HETATM   15  C15 UNL     1      20.723   3.397  52.279  1.00  0.00    -0.002 C 
HETATM   16  C16 UNL     1      21.749   4.266  52.218  1.00  0.00    -0.021 C 
HETATM   17  C17 UNL     1      23.151   3.855  52.171  1.00  0.00     0.085 C 
ENDROOT
BRANCH   1  18
HETATM   18  N1  UNL     1      24.450   4.877  50.029  1.00  0.00    -0.388 N 
HETATM   19  H6  UNL     1      23.856   4.601  49.231  1.00  0.00     0.159 HD
BRANCH  18  20
HETATM   20  C3  UNL     1      25.421   5.903  49.959  1.00  0.00     0.146 C 
BRANCH  20  21
HETATM   21  C2  UNL     1      26.338   5.683  48.829  1.00  0.00    -0.018 C 
HETATM   22  C1  UNL     1      27.243   4.683  48.832  1.00  0.00     0.008 C 
ENDBRANCH  20  21
ENDBRANCH  18  20
ENDBRANCH   1  18
TORSDOF 3
ENDMDL
MODEL 9
REMARK VINA RESULT:      -6.7      2.566      5.720
REMARK  3 active torsions:
REMARK  status: ('A' for Active; 'I' for Inactive)
REMARK    1  A    between atoms: C2_2  and  C3_3 
REMARK    2  A    between atoms: C3_3  and  N1_4 
REMARK    3  A    between atoms: N1_4  and  C4_5 
ROOT
HETATM    1  C4  UNL     1      23.622   1.483  51.625  1.00  0.00     0.025 C 
HETATM    2  C5  UNL     1      24.725   2.151  52.171  1.00  0.00     0.127 C 
HETATM    3  N2  UNL     1      24.826   3.437  51.492  1.00  0.00    -0.270 N 
HETATM    4  C6  UNL     1      23.749   4.137  51.872  1.00  0.00     0.338 A 
HETATM    5  O1  UNL     1      22.899   3.901  52.763  1.00  0.00    -0.246 OA
HETATM    6  N3  UNL     1      23.852   5.199  51.016  1.00  0.00    -0.272 N 
HETATM    7  C7  UNL     1      24.884   5.204  50.192  1.00  0.00     0.070 A 
HETATM    8  C8  UNL     1      25.377   6.018  49.243  1.00  0.00     0.032 A 
HETATM    9  C9  UNL     1      26.546   5.587  48.640  1.00  0.00     0.002 A 
HETATM   10  C10 UNL     1      27.180   4.384  48.990  1.00  0.00     0.002 A 
HETATM   11  C11 UNL     1      26.673   3.533  49.978  1.00  0.00     0.032 A 
HETATM   12  C12 UNL     1      25.536   3.999  50.531  1.00  0.00     0.070 A 
HETATM   13  C13 UNL     1      22.670   5.984  51.113  1.00  0.00     0.102 C 
HETATM   14  C14 UNL     1      21.545   5.222  51.032  1.00  0.00     0.017 C 
HETATM   15  C15 UNL     1      21.107   3.839  50.870  1.00  0.00    -0.002 C 
HETATM   16  C16 UNL     1      21.514   2.570  50.688  1.00  0.00    -0.021 C 
HETATM   17  C17 UNL     1      22.919   2.186  50.552  1.00  0.00     0.085 C 
ENDROOT
BRANCH   1  18
HETATM   18  N1  UNL     1      23.650   0.309  52.359  1.00  0.00    -0.388 N 
HETATM   19  H6  UNL     1      24.399  -0.158  51.822  1.00  0.00     0.159 HD
BRANCH  18  20
HETATM   20  C3  UNL     1      23.007  -0.280  53.472  1.00  0.00     0.146 C 
BRANCH  20  21
HETATM   21  C2  UNL     1      21.746   0.415  53.778  1.00  0.00    -0.018 C 
HETATM   22  C1  UNL     1      20.546  -0.131  53.492  1.00  0.00     0.008 C 
ENDBRANCH  20  21
ENDBRANCH  18  20
ENDBRANCH   1  18
TORSDOF 3
ENDMDL
