MODEL 1
REMARK VINA RESULT:      -8.2      0.000      0.000
REMARK  4 active torsions:
REMARK  status: ('A' for Active; 'I' for Inactive)
REMARK    1  A    between atoms: C4_4  and  N1_5 
REMARK    2  A    between atoms: N1_5  and  C5_6 
REMARK    3  A    between atoms: C8_10  and  C9_11 
REMARK    4  A    between atoms: C14_18  and  N5_19 
ROOT
HETATM    1  C5  UNL     1      25.697   1.769  53.257  1.00  0.00     0.727 A 
HETATM    2  N2  UNL     1      25.821   2.404  52.088  1.00  0.00    -0.075 NA
HETATM    3  C6  UNL     1      24.802   2.343  51.207  1.00  0.00     0.139 A 
HETATM    4  C7  UNL     1      23.653   1.642  51.501  1.00  0.00     0.053 A 
HETATM    5  C8  UNL     1      23.545   0.995  52.713  1.00  0.00     0.089 A 
HETATM    6  N4  UNL     1      24.575   1.071  53.574  1.00  0.00    -0.062 NA
ENDROOT
BRANCH   1   7
HETATM    7  N1  UNL     1      26.784   1.839  54.187  1.00  0.00    -0.186 N 
HETATM    8  H5  UNL     1      26.812   2.494  54.984  1.00  0.00     0.184 HD
BRANCH   7   9
HETATM    9  C4  UNL     1      27.877   0.948  53.986  1.00  0.00     0.071 A 
HETATM   10  C3  UNL     1      27.592  -0.429  53.550  1.00  0.00     0.035 A 
HETATM   11  C2  UNL     1      28.737  -1.085  53.423  1.00  0.00    -0.076 A 
HETATM   12  C1  UNL     1      28.911  -2.498  53.006  1.00  0.00     0.044 C 
HETATM   13  C15 UNL     1      29.876  -0.194  53.765  1.00  0.00     0.092 A 
HETATM   14  C14 UNL     1      29.190   1.067  54.104  1.00  0.00     0.034 A 
BRANCH  14  15
HETATM   15  N5  UNL     1      29.782   2.293  54.512  1.00  0.00    -0.400 N 
HETATM   16  H12 UNL     1      29.701   3.234  54.038  1.00  0.00     0.156 HD
HETATM   17  H13 UNL     1      30.401   2.538  55.335  1.00  0.00     0.156 HD
ENDBRANCH  14  15
ENDBRANCH   7   9
ENDBRANCH   1   7
BRANCH   5  18
HETATM   18  C9  UNL     1      22.378   0.228  53.125  1.00  0.00     0.011 A 
HETATM   19  C10 UNL     1      22.575  -0.887  53.901  1.00  0.00     0.017 A 
HETATM   20  C11 UNL     1      21.515  -1.678  54.341  1.00  0.00     0.020 A 
HETATM   21  C12 UNL     1      20.236  -1.275  53.947  1.00  0.00     0.116 A 
HETATM   22  N3  UNL     1      20.018  -0.185  53.185  1.00  0.00    -0.272 NA
HETATM   23  C13 UNL     1      21.084   0.555  52.781  1.00  0.00     0.130 A 
ENDBRANCH   5  18
TORSDOF 4
ENDMDL
MODEL 2
REMARK VINA RESULT:      -7.9      2.348      5.094
REMARK  4 active torsions:
REMARK  status: ('A' for Active; 'I' for Inactive)
REMARK    1  A    between atoms: C4_4  and  N1_5 
REMARK    2  A    between atoms: N1_5  and  C5_6 
REMARK    3  A    between atoms: C8_10  and  C9_11 
REMARK    4  A    between atoms: C14_18  and  N5_19 
ROOT
HETATM    1  C5  UNL     1      24.960   1.636  52.572  1.00  0.00     0.727 A 
HETATM    2  N2  UNL     1      23.790   1.110  52.196  1.00  0.00    -0.075 NA
HETATM    3  C6  UNL     1      23.194   1.587  51.084  1.00  0.00     0.139 A 
HETATM    4  C7  UNL     1      23.774   2.596  50.348  1.00  0.00     0.053 A 
HETATM    5  C8  UNL     1      24.980   3.124  50.753  1.00  0.00     0.089 A 
HETATM    6  N4  UNL     1      25.554   2.631  51.865  1.00  0.00    -0.062 NA
ENDROOT
BRANCH   1   7
HETATM    7  N1  UNL     1      25.586   1.123  53.754  1.00  0.00    -0.186 N 
HETATM    8  H5  UNL     1      25.115   1.065  54.671  1.00  0.00     0.184 HD
BRANCH   7   9
HETATM    9  C4  UNL     1      26.932   0.673  53.639  1.00  0.00     0.071 A 
HETATM   10  C3  UNL     1      27.180  -0.764  53.432  1.00  0.00     0.035 A 
HETATM   11  C2  UNL     1      28.486  -0.968  53.353  1.00  0.00    -0.076 A 
HETATM   12  C1  UNL     1      29.173  -2.267  53.148  1.00  0.00     0.044 C 
HETATM   13  C15 UNL     1      29.214   0.320  53.502  1.00  0.00     0.092 A 
HETATM   14  C14 UNL     1      28.108   1.280  53.677  1.00  0.00     0.034 A 
BRANCH  14  15
HETATM   15  N5  UNL     1      28.202   2.685  53.866  1.00  0.00    -0.400 N 
HETATM   16  H12 UNL     1      28.012   3.442  53.154  1.00  0.00     0.156 HD
HETATM   17  H13 UNL     1      28.467   3.268  54.709  1.00  0.00     0.156 HD
ENDBRANCH  14  15
ENDBRANCH   7   9
ENDBRANCH   1   7
BRANCH   5  18
HETATM   18  C9  UNL     1      25.680   4.191  50.051  1.00  0.00     0.011 A 
HETATM   19  C10 UNL     1      26.823   3.874  49.361  1.00  0.00     0.017 A 
HETATM   20  C11 UNL     1      27.554   4.832  48.662  1.00  0.00     0.020 A 
HETATM   21  C12 UNL     1      27.060   6.139  48.700  1.00  0.00     0.116 A 
HETATM   22  N3  UNL     1      25.939   6.474  49.371  1.00  0.00    -0.272 NA
HETATM   23  C13 UNL     1      25.260   5.504  50.038  1.00  0.00     0.130 A 
ENDBRANCH   5  18
TORSDOF 4
ENDMDL
MODEL 3
REMARK VINA RESULT:      -7.8      3.158      6.518
REMARK  4 active torsions:
REMARK  status: ('A' for Active; 'I' for Inactive)
REMARK    1  A    between atoms: C4_4  and  N1_5 
REMARK    2  A    between atoms: N1_5  and  C5_6 
REMARK    3  A    between atoms: C8_10  and  C9_11 
REMARK    4  A    between atoms: C14_18  and  N5_19 
ROOT
HETATM    1  C5  UNL     1      25.466   2.669  51.082  1.00  0.00     0.727 A 
HETATM    2  N2  UNL     1      24.618   3.179  51.979  1.00  0.00    -0.075 NA
HETATM    3  C6  UNL     1      24.696   2.754  53.258  1.00  0.00     0.139 A 
HETATM    4  C7  UNL     1      25.629   1.814  53.635  1.00  0.00     0.053 A 
HETATM    5  C8  UNL     1      26.494   1.301  52.694  1.00  0.00     0.089 A 
HETATM    6  N4  UNL     1      26.396   1.741  51.426  1.00  0.00    -0.062 NA
ENDROOT
BRANCH   1   7
HETATM    7  N1  UNL     1      25.377   3.126  49.727  1.00  0.00    -0.186 N 
HETATM    8  H5  UNL     1      24.925   2.586  48.972  1.00  0.00     0.184 HD
BRANCH   7   9
HETATM    9  C4  UNL     1      25.947   4.395  49.424  1.00  0.00     0.071 A 
HETATM   10  C3  UNL     1      27.283   4.438  48.806  1.00  0.00     0.035 A 
HETATM   11  C2  UNL     1      27.625   5.702  48.609  1.00  0.00    -0.076 A 
HETATM   12  C1  UNL     1      28.888   6.199  48.011  1.00  0.00     0.044 C 
HETATM   13  C15 UNL     1      26.541   6.604  49.081  1.00  0.00     0.092 A 
HETATM   14  C14 UNL     1      25.536   5.644  49.575  1.00  0.00     0.034 A 
BRANCH  14  15
HETATM   15  N5  UNL     1      24.269   5.935  50.150  1.00  0.00    -0.400 N 
HETATM   16  H12 UNL     1      23.754   5.376  50.884  1.00  0.00     0.156 HD
HETATM   17  H13 UNL     1      23.587   6.729  49.991  1.00  0.00     0.156 HD
ENDBRANCH  14  15
ENDBRANCH   7   9
ENDBRANCH   1   7
BRANCH   5  18
HETATM   18  C9  UNL     1      27.516   0.305  52.983  1.00  0.00     0.011 A 
HETATM   19  C10 UNL     1      28.772   0.742  53.322  1.00  0.00     0.017 A 
HETATM   20  C11 UNL     1      29.809  -0.142  53.614  1.00  0.00     0.020 A 
HETATM   21  C12 UNL     1      29.500  -1.503  53.543  1.00  0.00     0.116 A 
HETATM   22  N3  UNL     1      28.275  -1.957  53.213  1.00  0.00    -0.272 NA
HETATM   23  C13 UNL     1      27.296  -1.055  52.936  1.00  0.00     0.130 A 
ENDBRANCH   5  18
TORSDOF 4
ENDMDL
MODEL 4
REMARK VINA RESULT:      -7.7      1.641      2.766
REMARK  4 active torsions:
REMARK  status: ('A' for Active; 'I' for Inactive)
REMARK    1  A    between atoms: C4_4  and  N1_5 
REMARK    2  A    between atoms: N1_5  and  C5_6 
REMARK    3  A    between atoms: C8_10  and  C9_11 
REMARK    4  A    between atoms: C14_18  and  N5_19 
ROOT
HETATM    1  C5  UNL     1      24.241  -0.202  53.363  1.00  0.00     0.727 A 
HETATM    2  N2  UNL     1      24.568  -0.723  54.549  1.00  0.00    -0.075 NA
HETATM    3  C6  UNL     1      23.585  -1.210  55.335  1.00  0.00     0.139 A 
HETATM    4  C7  UNL     1      22.271  -1.173  54.928  1.00  0.00     0.053 A 
HETATM    5  C8  UNL     1      21.955  -0.632  53.701  1.00  0.00     0.089 A 
HETATM    6  N4  UNL     1      22.953  -0.153  52.936  1.00  0.00    -0.062 NA
ENDROOT
BRANCH   1   7
HETATM    7  N1  UNL     1      25.291   0.313  52.535  1.00  0.00    -0.186 N 
HETATM    8  H5  UNL     1      25.141   0.662  51.576  1.00  0.00     0.184 HD
BRANCH   7   9
HETATM    9  C4  UNL     1      26.605   0.337  53.083  1.00  0.00     0.071 A 
HETATM   10  C3  UNL     1      27.458  -0.852  52.920  1.00  0.00     0.035 A 
HETATM   11  C2  UNL     1      28.629  -0.623  53.497  1.00  0.00    -0.076 A 
HETATM   12  C1  UNL     1      29.782  -1.554  53.568  1.00  0.00     0.044 C 
HETATM   13  C15 UNL     1      28.648   0.739  54.090  1.00  0.00     0.092 A 
HETATM   14  C14 UNL     1      27.302   1.240  53.755  1.00  0.00     0.034 A 
BRANCH  14  15
HETATM   15  N5  UNL     1      26.745   2.508  54.073  1.00  0.00    -0.400 N 
HETATM   16  H12 UNL     1      26.504   3.289  53.403  1.00  0.00     0.156 HD
HETATM   17  H13 UNL     1      26.456   2.942  54.995  1.00  0.00     0.156 HD
ENDBRANCH  14  15
ENDBRANCH   7   9
ENDBRANCH   1   7
BRANCH   5  18
HETATM   18  C9  UNL     1      20.601  -0.543  53.173  1.00  0.00     0.011 A 
HETATM   19  C10 UNL     1      19.626  -1.317  53.751  1.00  0.00     0.017 A 
HETATM   20  C11 UNL     1      18.304  -1.294  53.309  1.00  0.00     0.020 A 
HETATM   21  C12 UNL     1      18.024  -0.437  52.241  1.00  0.00     0.116 A 
HETATM   22  N3  UNL     1      18.964   0.333  51.657  1.00  0.00    -0.272 NA
HETATM   23  C13 UNL     1      20.239   0.275  52.124  1.00  0.00     0.130 A 
ENDBRANCH   5  18
TORSDOF 4
ENDMDL
MODEL 5
REMARK VINA RESULT:      -7.5      2.668      6.527
REMARK  4 active torsions:
REMARK  status: ('A' for Active; 'I' for Inactive)
REMARK    1  A    between atoms: C4_4  and  N1_5 
REMARK    2  A    between atoms: N1_5  and  C5_6 
REMARK    3  A    between atoms: C8_10  and  C9_11 
REMARK    4  A    between atoms: C14_18  and  N5_19 
ROOT
HETATM    1  C5  UNL     1      25.440   2.621  51.807  1.00  0.00     0.727 A 
HETATM    2  N2  UNL     1      24.166   2.485  52.186  1.00  0.00    -0.075 NA
HETATM    3  C6  UNL     1      23.789   1.340  52.792  1.00  0.00     0.139 A 
HETATM    4  C7  UNL     1      24.695   0.329  53.018  1.00  0.00     0.053 A 
HETATM    5  C8  UNL     1      26.004   0.489  52.620  1.00  0.00     0.089 A 
HETATM    6  N4  UNL     1      26.354   1.639  52.017  1.00  0.00    -0.062 NA
ENDROOT
BRANCH   1   7
HETATM    7  N1  UNL     1      25.831   3.839  51.164  1.00  0.00    -0.186 N 
HETATM    8  H5  UNL     1      26.803   4.187  51.142  1.00  0.00     0.184 HD
BRANCH   7   9
HETATM    9  C4  UNL     1      24.811   4.600  50.524  1.00  0.00     0.071 A 
HETATM   10  C3  UNL     1      24.291   4.134  49.228  1.00  0.00     0.035 A 
HETATM   11  C2  UNL     1      23.358   4.976  48.811  1.00  0.00    -0.076 A 
HETATM   12  C1  UNL     1      22.576   4.886  47.554  1.00  0.00     0.044 C 
HETATM   13  C15 UNL     1      23.182   6.073  49.798  1.00  0.00     0.092 A 
HETATM   14  C14 UNL     1      24.165   5.712  50.837  1.00  0.00     0.034 A 
BRANCH  14  15
HETATM   15  N5  UNL     1      24.446   6.409  52.044  1.00  0.00    -0.400 N 
HETATM   16  H12 UNL     1      23.902   7.212  52.462  1.00  0.00     0.156 HD
HETATM   17  H13 UNL     1      25.216   6.296  52.762  1.00  0.00     0.156 HD
ENDBRANCH  14  15
ENDBRANCH   7   9
ENDBRANCH   1   7
BRANCH   5  18
HETATM   18  C9  UNL     1      27.043  -0.515  52.809  1.00  0.00     0.011 A 
HETATM   19  C10 UNL     1      28.272  -0.101  53.254  1.00  0.00     0.017 A 
HETATM   20  C11 UNL     1      29.322  -0.993  53.463  1.00  0.00     0.020 A 
HETATM   21  C12 UNL     1      29.055  -2.339  53.193  1.00  0.00     0.116 A 
HETATM   22  N3  UNL     1      27.855  -2.769  52.754  1.00  0.00    -0.272 NA
HETATM   23  C13 UNL     1      26.862  -1.860  52.566  1.00  0.00     0.130 A 
ENDBRANCH   5  18
TORSDOF 4
ENDMDL
MODEL 6
REMARK VINA RESULT:      -7.4      1.986      6.109
REMARK  4 active torsions:
REMARK  status: ('A' for Active; 'I' for Inactive)
REMARK    1  A    between atoms: C4_4  and  N1_5 
REMARK    2  A    between atoms: N1_5  and  C5_6 
REMARK    3  A    between atoms: C8_10  and  C9_11 
REMARK    4  A    between atoms: C14_18  and  N5_19 
ROOT
HETATM    1  C5  UNL     1      22.676   1.245  53.083  1.00  0.00     0.727 A 
HETATM    2  N2  UNL     1      21.768   0.432  53.629  1.00  0.00    -0.075 NA
HETATM    3  C6  UNL     1      22.194  -0.666  54.289  1.00  0.00     0.139 A 
HETATM    4  C7  UNL     1      23.537  -0.946  54.401  1.00  0.00     0.053 A 
HETATM    5  C8  UNL     1      24.458  -0.094  53.832  1.00  0.00     0.089 A 
HETATM    6  N4  UNL     1      24.007   0.992  53.179  1.00  0.00    -0.062 NA
ENDROOT
BRANCH   1   7
HETATM    7  N1  UNL     1      22.215   2.407  52.384  1.00  0.00    -0.186 N 
HETATM    8  H5  UNL     1      21.494   3.046  52.754  1.00  0.00     0.184 HD
BRANCH   7   9
HETATM    9  C4  UNL     1      22.794   2.679  51.112  1.00  0.00     0.071 A 
HETATM   10  C3  UNL     1      22.119   2.169  49.907  1.00  0.00     0.035 A 
HETATM   11  C2  UNL     1      22.816   2.530  48.839  1.00  0.00    -0.076 A 
HETATM   12  C1  UNL     1      22.494   2.227  47.423  1.00  0.00     0.044 C 
HETATM   13  C15 UNL     1      24.013   3.310  49.250  1.00  0.00     0.092 A 
HETATM   14  C14 UNL     1      23.877   3.330  50.718  1.00  0.00     0.034 A 
BRANCH  14  15
HETATM   15  N5  UNL     1      24.748   3.943  51.660  1.00  0.00    -0.400 N 
HETATM   16  H12 UNL     1      25.720   3.633  51.931  1.00  0.00     0.156 HD
HETATM   17  H13 UNL     1      24.635   4.800  52.272  1.00  0.00     0.156 HD
ENDBRANCH  14  15
ENDBRANCH   7   9
ENDBRANCH   1   7
BRANCH   5  18
HETATM   18  C9  UNL     1      25.899  -0.295  53.890  1.00  0.00     0.011 A 
HETATM   19  C10 UNL     1      26.502  -0.977  52.864  1.00  0.00     0.017 A 
HETATM   20  C11 UNL     1      27.875  -1.214  52.839  1.00  0.00     0.020 A 
HETATM   21  C12 UNL     1      28.609  -0.718  53.920  1.00  0.00     0.116 A 
HETATM   22  N3  UNL     1      28.039  -0.045  54.940  1.00  0.00    -0.272 NA
HETATM   23  C13 UNL     1      26.695   0.161  54.919  1.00  0.00     0.130 A 
ENDBRANCH   5  18
TORSDOF 4
ENDMDL
MODEL 7
REMARK VINA RESULT:      -7.4      2.201      5.994
REMARK  4 active torsions:
REMARK  status: ('A' for Active; 'I' for Inactive)
REMARK    1  A    between atoms: C4_4  and  N1_5 
REMARK    2  A    between atoms: N1_5  and  C5_6 
REMARK    3  A    between atoms: C8_10  and  C9_11 
REMARK    4  A    between atoms: C14_18  and  N5_19 
ROOT
HETATM    1  C5  UNL     1      23.375   1.278  51.489  1.00  0.00     0.727 A 
HETATM    2  N2  UNL     1      22.300   0.698  52.031  1.00  0.00    -0.075 NA
HETATM    3  C6  UNL     1      22.473  -0.128  53.085  1.00  0.00     0.139 A 
HETATM    4  C7  UNL     1      23.728  -0.371  53.594  1.00  0.00     0.053 A 
HETATM    5  C8  UNL     1      24.823   0.237  53.021  1.00  0.00     0.089 A 
HETATM    6  N4  UNL     1      24.625   1.056  51.972  1.00  0.00    -0.062 NA
ENDROOT
BRANCH   1   7
HETATM    7  N1  UNL     1      23.183   2.153  50.372  1.00  0.00    -0.186 N 
HETATM    8  H5  UNL     1      22.496   1.978  49.621  1.00  0.00     0.184 HD
BRANCH   7   9
HETATM    9  C4  UNL     1      23.992   3.323  50.309  1.00  0.00     0.071 A 
HETATM   10  C3  UNL     1      25.198   3.302  49.464  1.00  0.00     0.035 A 
HETATM   11  C2  UNL     1      25.801   4.478  49.547  1.00  0.00    -0.076 A 
HETATM   12  C1  UNL     1      27.049   4.888  48.857  1.00  0.00     0.044 C 
HETATM   13  C15 UNL     1      25.044   5.378  50.455  1.00  0.00     0.092 A 
HETATM   14  C14 UNL     1      23.918   4.520  50.870  1.00  0.00     0.034 A 
BRANCH  14  15
HETATM   15  N5  UNL     1      22.853   4.853  51.750  1.00  0.00    -0.400 N 
HETATM   16  H12 UNL     1      22.702   4.503  52.735  1.00  0.00     0.156 HD
HETATM   17  H13 UNL     1      22.014   5.489  51.635  1.00  0.00     0.156 HD
ENDBRANCH  14  15
ENDBRANCH   7   9
ENDBRANCH   1   7
BRANCH   5  18
HETATM   18  C9  UNL     1      26.193   0.050  53.479  1.00  0.00     0.011 A 
HETATM   19  C10 UNL     1      26.994  -0.827  52.792  1.00  0.00     0.017 A 
HETATM   20  C11 UNL     1      28.316  -1.065  53.161  1.00  0.00     0.020 A 
HETATM   21  C12 UNL     1      28.785  -0.361  54.274  1.00  0.00     0.116 A 
HETATM   22  N3  UNL     1      28.017   0.505  54.965  1.00  0.00    -0.272 NA
HETATM   23  C13 UNL     1      26.733   0.704  54.566  1.00  0.00     0.130 A 
ENDBRANCH   5  18
TORSDOF 4
ENDMDL
MODEL 8
REMARK VINA RESULT:      -7.4      2.123      4.999
REMARK  4 active torsions:
REMARK  status: ('A' for Active; 'I' for Inactive)
REMARK    1  A    between atoms: C4_4  and  N1_5 
REMARK    2  A    between atoms: N1_5  and  C5_6 
REMARK    3  A    between atoms: C8_10  and  C9_11 
REMARK    4  A    between atoms: C14_18  and  N5_19 
ROOT
HETATM    1  C5  UNL     1      25.845   1.954  52.093  1.00  0.00     0.727 A 
HETATM    2  N2  UNL     1      26.984   1.258  52.045  1.00  0.00    -0.075 NA
HETATM    3  C6  UNL     1      26.985  -0.013  52.498  1.00  0.00     0.139 A 
HETATM    4  C7  UNL     1      25.838  -0.586  52.999  1.00  0.00     0.053 A 
HETATM    5  C8  UNL     1      24.674   0.149  53.039  1.00  0.00     0.089 A 
HETATM    6  N4  UNL     1      24.699   1.414  52.582  1.00  0.00    -0.062 NA
ENDROOT
BRANCH   1   7
HETATM    7  N1  UNL     1      25.853   3.303  51.610  1.00  0.00    -0.186 N 
HETATM    8  H5  UNL     1      26.665   3.935  51.695  1.00  0.00     0.184 HD
BRANCH   7   9
HETATM    9  C4  UNL     1      24.668   3.781  50.983  1.00  0.00     0.071 A 
HETATM   10  C3  UNL     1      24.319   3.264  49.649  1.00  0.00     0.035 A 
HETATM   11  C2  UNL     1      23.191   3.833  49.249  1.00  0.00    -0.076 A 
HETATM   12  C1  UNL     1      22.483   3.599  47.966  1.00  0.00     0.044 C 
HETATM   13  C15 UNL     1      22.698   4.775  50.287  1.00  0.00     0.092 A 
HETATM   14  C14 UNL     1      23.729   4.646  51.335  1.00  0.00     0.034 A 
BRANCH  14  15
HETATM   15  N5  UNL     1      23.785   5.321  52.584  1.00  0.00    -0.400 N 
HETATM   16  H12 UNL     1      24.438   5.124  53.391  1.00  0.00     0.156 HD
HETATM   17  H13 UNL     1      23.223   6.128  52.976  1.00  0.00     0.156 HD
ENDBRANCH  14  15
ENDBRANCH   7   9
ENDBRANCH   1   7
BRANCH   5  18
HETATM   18  C9  UNL     1      23.407  -0.358  53.548  1.00  0.00     0.011 A 
HETATM   19  C10 UNL     1      22.269  -0.103  52.826  1.00  0.00     0.017 A 
HETATM   20  C11 UNL     1      21.015  -0.550  53.240  1.00  0.00     0.020 A 
HETATM   21  C12 UNL     1      20.979  -1.274  54.435  1.00  0.00     0.116 A 
HETATM   22  N3  UNL     1      22.084  -1.537  55.161  1.00  0.00    -0.272 NA
HETATM   23  C13 UNL     1      23.284  -1.079  54.716  1.00  0.00     0.130 A 
ENDBRANCH   5  18
TORSDOF 4
ENDMDL
MODEL 9
REMARK VINA RESULT:      -7.2      3.759      7.150
REMARK  4 active torsions:
REMARK  status: ('A' for Active; 'I' for Inactive)
REMARK    1  A    between atoms: C4_4  and  N1_5 
REMARK    2  A    between atoms: N1_5  and  C5_6 
REMARK    3  A    between atoms: C8_10  and  C9_11 
REMARK    4  A    between atoms: C14_18  and  N5_19 
ROOT
HETATM    1  C5  UNL     1      24.052   4.482  51.163  1.00  0.00     0.727 A 
HETATM    2  N2  UNL     1      22.900   4.603  50.497  1.00  0.00    -0.075 NA
HETATM    3  C6  UNL     1      22.930   5.066  49.230  1.00  0.00     0.139 A 
HETATM    4  C7  UNL     1      24.121   5.408  48.631  1.00  0.00     0.053 A 
HETATM    5  C8  UNL     1      25.298   5.276  49.334  1.00  0.00     0.089 A 
HETATM    6  N4  UNL     1      25.241   4.812  50.596  1.00  0.00    -0.062 NA
ENDROOT
BRANCH   1   7
HETATM    7  N1  UNL     1      24.011   3.990  52.508  1.00  0.00    -0.186 N 
HETATM    8  H5  UNL     1      23.781   4.579  53.324  1.00  0.00     0.184 HD
BRANCH   7   9
HETATM    9  C4  UNL     1      24.308   2.612  52.710  1.00  0.00     0.071 A 
HETATM   10  C3  UNL     1      23.191   1.672  52.902  1.00  0.00     0.035 A 
HETATM   11  C2  UNL     1      23.680   0.453  53.072  1.00  0.00    -0.076 A 
HETATM   12  C1  UNL     1      22.906  -0.792  53.298  1.00  0.00     0.044 C 
HETATM   13  C15 UNL     1      25.164   0.484  53.008  1.00  0.00     0.092 A 
HETATM   14  C14 UNL     1      25.432   1.916  52.773  1.00  0.00     0.034 A 
BRANCH  14  15
HETATM   15  N5  UNL     1      26.696   2.548  52.624  1.00  0.00    -0.400 N 
HETATM   16  H12 UNL     1      27.438   2.682  53.364  1.00  0.00     0.156 HD
HETATM   17  H13 UNL     1      27.163   3.005  51.791  1.00  0.00     0.156 HD
ENDBRANCH  14  15
ENDBRANCH   7   9
ENDBRANCH   1   7
BRANCH   5  18
HETATM   18  C9  UNL     1      26.610   5.608  48.798  1.00  0.00     0.011 A 
HETATM   19  C10 UNL     1      26.800   6.863  48.275  1.00  0.00     0.017 A 
HETATM   20  C11 UNL     1      28.023   7.265  47.741  1.00  0.00     0.020 A 
HETATM   21  C12 UNL     1      29.051   6.317  47.766  1.00  0.00     0.116 A 
HETATM   22  N3  UNL     1      28.889   5.079  48.274  1.00  0.00    -0.272 NA
HETATM   23  C13 UNL     1      27.676   4.734  48.784  1.00  0.00     0.130 A 
ENDBRANCH   5  18
TORSDOF 4
ENDMDL
