MODEL 1
REMARK VINA RESULT:      -8.4      0.000      0.000
REMARK  4 active torsions:
REMARK  status: ('A' for Active; 'I' for Inactive)
REMARK    1  A    between atoms: O1_2  and  C2_3 
REMARK    2  A    between atoms: C5_6  and  N1_7 
REMARK    3  A    between atoms: N1_7  and  C6_8 
REMARK    4  A    between atoms: C9_11  and  C10_12 
ROOT
HETATM    1  C6  UNL     1      20.277  -0.436  53.761  1.00  0.00     0.029 A 
HETATM    2  C7  UNL     1      21.160  -1.302  54.366  1.00  0.00     0.030 A 
HETATM    3  C8  UNL     1      22.511  -1.053  54.237  1.00  0.00     0.016 A 
HETATM    4  C9  UNL     1      22.980   0.020  53.530  1.00  0.00     0.000 A 
HETATM    5  C17 UNL     1      22.093   0.902  52.913  1.00  0.00     0.016 A 
HETATM    6  C18 UNL     1      20.747   0.644  53.049  1.00  0.00     0.030 A 
ENDROOT
BRANCH   1   7
HETATM    7  N1  UNL     1      18.893  -0.669  53.888  1.00  0.00    -0.367 N 
HETATM    8  H8  UNL     1      18.365  -0.090  54.582  1.00  0.00     0.161 HD
BRANCH   7   9
HETATM    9  C5  UNL     1      18.100  -1.637  53.155  1.00  0.00     0.212 C 
HETATM   10  C4  UNL     1      16.769  -1.076  52.750  1.00  0.00     0.107 C 
HETATM   11  C3  UNL     1      15.876  -2.173  52.339  1.00  0.00     0.035 C 
HETATM   12  C2  UNL     1      15.049  -1.973  51.298  1.00  0.00     0.159 C 
HETATM   13  N4  UNL     1      15.804  -3.437  52.969  1.00  0.00    -0.353 N 
HETATM   14  C19 UNL     1      17.007  -3.669  53.690  1.00  0.00     0.203 C 
HETATM   15  H18 UNL     1      15.027  -4.100  52.932  1.00  0.00     0.166 HD
HETATM   16  N3  UNL     1      18.006  -2.890  53.774  1.00  0.00    -0.259 NA
BRANCH  12  17
HETATM   17  O1  UNL     1      14.487  -1.243  50.268  1.00  0.00    -0.366 OA
HETATM   18  C1  UNL     1      15.159  -0.872  49.085  1.00  0.00     0.209 C 
ENDBRANCH  12  17
ENDBRANCH   7   9
ENDBRANCH   1   7
BRANCH   4  19
HETATM   19  C10 UNL     1      24.391   0.313  53.414  1.00  0.00     0.114 C 
HETATM   20  N2  UNL     1      25.326  -0.670  53.390  1.00  0.00    -0.253 NA
HETATM   21  C11 UNL     1      26.582  -0.399  53.746  1.00  0.00     0.114 C 
HETATM   22  C12 UNL     1      27.875  -0.118  54.122  1.00  0.00    -0.001 C 
HETATM   23  C13 UNL     1      28.682   0.968  53.770  1.00  0.00     0.038 A 
HETATM   24  C14 UNL     1      28.962   2.342  53.604  1.00  0.00     0.024 A 
HETATM   25  C15 UNL     1      27.645   2.258  53.505  1.00  0.00     0.054 A 
HETATM   26  C16 UNL     1      26.491   2.164  53.420  1.00  0.00    -0.092 C 
HETATM   27  S1  UNL     1      24.853   2.000  53.304  1.00  0.00    -0.030 SA
ENDBRANCH   4  19
TORSDOF 4
ENDMDL
MODEL 2
REMARK VINA RESULT:      -8.2      1.444      1.776
REMARK  4 active torsions:
REMARK  status: ('A' for Active; 'I' for Inactive)
REMARK    1  A    between atoms: O1_2  and  C2_3 
REMARK    2  A    between atoms: C5_6  and  N1_7 
REMARK    3  A    between atoms: N1_7  and  C6_8 
REMARK    4  A    between atoms: C9_11  and  C10_12 
ROOT
HETATM    1  C6  UNL     1      21.001  -0.210  53.538  1.00  0.00     0.029 A 
HETATM    2  C7  UNL     1      21.478  -0.954  54.594  1.00  0.00     0.030 A 
HETATM    3  C8  UNL     1      22.844  -1.085  54.735  1.00  0.00     0.016 A 
HETATM    4  C9  UNL     1      23.718  -0.501  53.860  1.00  0.00     0.000 A 
HETATM    5  C17 UNL     1      23.244   0.253  52.786  1.00  0.00     0.016 A 
HETATM    6  C18 UNL     1      21.878   0.379  52.655  1.00  0.00     0.030 A 
ENDROOT
BRANCH   1   7
HETATM    7  N1  UNL     1      19.609  -0.057  53.381  1.00  0.00    -0.367 N 
HETATM    8  H8  UNL     1      19.176   0.832  53.725  1.00  0.00     0.161 HD
BRANCH   7   9
HETATM    9  C5  UNL     1      18.688  -1.007  52.787  1.00  0.00     0.212 C 
HETATM   10  C4  UNL     1      17.436  -0.340  52.300  1.00  0.00     0.107 C 
HETATM   11  C3  UNL     1      16.403  -1.358  52.043  1.00  0.00     0.035 C 
HETATM   12  C2  UNL     1      15.595  -1.201  50.979  1.00  0.00     0.159 C 
HETATM   13  N4  UNL     1      16.176  -2.501  52.844  1.00  0.00    -0.353 N 
HETATM   14  C19 UNL     1      17.348  -2.784  53.597  1.00  0.00     0.203 C 
HETATM   15  H18 UNL     1      15.320  -3.056  52.897  1.00  0.00     0.166 HD
HETATM   16  N3  UNL     1      18.440  -2.138  53.576  1.00  0.00    -0.259 NA
BRANCH  12  17
HETATM   17  O1  UNL     1      15.119  -0.555  49.854  1.00  0.00    -0.366 OA
HETATM   18  C1  UNL     1      15.455  -0.897  48.527  1.00  0.00     0.209 C 
ENDBRANCH  12  17
ENDBRANCH   7   9
ENDBRANCH   1   7
BRANCH   4  19
HETATM   19  C10 UNL     1      25.151  -0.602  54.013  1.00  0.00     0.114 C 
HETATM   20  N2  UNL     1      25.800  -0.031  55.060  1.00  0.00    -0.253 NA
HETATM   21  C11 UNL     1      27.096   0.267  54.954  1.00  0.00     0.114 C 
HETATM   22  C12 UNL     1      28.429   0.583  54.837  1.00  0.00    -0.001 C 
HETATM   23  C13 UNL     1      29.476  -0.182  54.313  1.00  0.00     0.038 A 
HETATM   24  C14 UNL     1      30.095  -0.985  53.331  1.00  0.00     0.024 A 
HETATM   25  C15 UNL     1      28.798  -1.165  53.137  1.00  0.00     0.054 A 
HETATM   26  C16 UNL     1      27.656  -1.310  52.983  1.00  0.00    -0.092 C 
HETATM   27  S1  UNL     1      26.028  -1.496  52.788  1.00  0.00    -0.030 SA
ENDBRANCH   4  19
TORSDOF 4
ENDMDL
MODEL 3
REMARK VINA RESULT:      -8.2      3.678      4.694
REMARK  4 active torsions:
REMARK  status: ('A' for Active; 'I' for Inactive)
REMARK    1  A    between atoms: O1_2  and  C2_3 
REMARK    2  A    between atoms: C5_6  and  N1_7 
REMARK    3  A    between atoms: N1_7  and  C6_8 
REMARK    4  A    between atoms: C9_11  and  C10_12 
ROOT
HETATM    1  C6  UNL     1      21.439   1.422  51.597  1.00  0.00     0.029 A 
HETATM    2  C7  UNL     1      21.626   0.510  52.612  1.00  0.00     0.030 A 
HETATM    3  C8  UNL     1      22.913   0.274  53.048  1.00  0.00     0.016 A 
HETATM    4  C9  UNL     1      23.989   0.918  52.500  1.00  0.00     0.000 A 
HETATM    5  C17 UNL     1      23.810   1.842  51.471  1.00  0.00     0.016 A 
HETATM    6  C18 UNL     1      22.521   2.071  51.044  1.00  0.00     0.030 A 
ENDROOT
BRANCH   1   7
HETATM    7  N1  UNL     1      20.132   1.684  51.142  1.00  0.00    -0.367 N 
HETATM    8  H8  UNL     1      19.601   0.892  50.710  1.00  0.00     0.161 HD
BRANCH   7   9
HETATM    9  C5  UNL     1      19.422   2.947  51.205  1.00  0.00     0.212 C 
HETATM   10  C4  UNL     1      17.987   2.761  51.598  1.00  0.00     0.107 C 
HETATM   11  C3  UNL     1      17.232   3.991  51.304  1.00  0.00     0.035 C 
HETATM   12  C2  UNL     1      16.279   4.384  52.168  1.00  0.00     0.159 C 
HETATM   13  N4  UNL     1      17.419   4.802  50.160  1.00  0.00    -0.353 N 
HETATM   14  C19 UNL     1      18.713   4.559  49.622  1.00  0.00     0.203 C 
HETATM   15  H18 UNL     1      16.752   5.464  49.759  1.00  0.00     0.166 HD
HETATM   16  N3  UNL     1      19.584   3.754  50.072  1.00  0.00    -0.259 NA
BRANCH  12  17
HETATM   17  O1  UNL     1      15.507   4.284  53.310  1.00  0.00    -0.366 OA
HETATM   18  C1  UNL     1      14.108   4.107  53.321  1.00  0.00     0.209 C 
ENDBRANCH  12  17
ENDBRANCH   7   9
ENDBRANCH   1   7
BRANCH   4  19
HETATM   19  C10 UNL     1      25.340   0.705  52.969  1.00  0.00     0.114 C 
HETATM   20  N2  UNL     1      26.062   1.701  53.543  1.00  0.00    -0.253 NA
HETATM   21  C11 UNL     1      27.394   1.640  53.539  1.00  0.00     0.114 C 
HETATM   22  C12 UNL     1      28.768   1.579  53.525  1.00  0.00    -0.001 C 
HETATM   23  C13 UNL     1      29.608   0.498  53.810  1.00  0.00     0.038 A 
HETATM   24  C14 UNL     1      30.046  -0.838  53.685  1.00  0.00     0.024 A 
HETATM   25  C15 UNL     1      28.758  -0.883  53.387  1.00  0.00     0.054 A 
HETATM   26  C16 UNL     1      27.626  -0.901  53.129  1.00  0.00    -0.092 C 
HETATM   27  S1  UNL     1      26.016  -0.898  52.767  1.00  0.00    -0.030 SA
ENDBRANCH   4  19
TORSDOF 4
ENDMDL
MODEL 4
REMARK VINA RESULT:      -8.1      7.338     12.130
REMARK  4 active torsions:
REMARK  status: ('A' for Active; 'I' for Inactive)
REMARK    1  A    between atoms: O1_2  and  C2_3 
REMARK    2  A    between atoms: C5_6  and  N1_7 
REMARK    3  A    between atoms: N1_7  and  C6_8 
REMARK    4  A    between atoms: C9_11  and  C10_12 
ROOT
HETATM    1  C6  UNL     1      26.573   5.899  48.568  1.00  0.00     0.029 A 
HETATM    2  C7  UNL     1      25.359   6.126  49.177  1.00  0.00     0.030 A 
HETATM    3  C8  UNL     1      24.857   5.153  50.016  1.00  0.00     0.016 A 
HETATM    4  C9  UNL     1      25.532   3.986  50.250  1.00  0.00     0.000 A 
HETATM    5  C17 UNL     1      26.762   3.747  49.637  1.00  0.00     0.016 A 
HETATM    6  C18 UNL     1      27.254   4.725  48.802  1.00  0.00     0.030 A 
ENDROOT
BRANCH   1   7
HETATM    7  N1  UNL     1      27.106   6.883  47.714  1.00  0.00    -0.367 N 
HETATM    8  H8  UNL     1      26.910   6.795  46.689  1.00  0.00     0.161 HD
BRANCH   7   9
HETATM    9  C5  UNL     1      27.911   8.028  48.096  1.00  0.00     0.212 C 
HETATM   10  C4  UNL     1      29.316   7.631  48.439  1.00  0.00     0.107 C 
HETATM   11  C3  UNL     1      29.980   8.736  49.151  1.00  0.00     0.035 C 
HETATM   12  C2  UNL     1      31.276   8.983  48.891  1.00  0.00     0.159 C 
HETATM   13  N4  UNL     1      29.361   9.566  50.115  1.00  0.00    -0.353 N 
HETATM   14  C19 UNL     1      27.951   9.518  49.936  1.00  0.00     0.203 C 
HETATM   15  H18 UNL     1      29.823  10.122  50.837  1.00  0.00     0.166 HD
HETATM   16  N3  UNL     1      27.318   8.851  49.062  1.00  0.00    -0.259 NA
BRANCH  12  17
HETATM   17  O1  UNL     1      32.490   8.769  48.266  1.00  0.00    -0.366 OA
HETATM   18  C1  UNL     1      33.339   7.670  48.511  1.00  0.00     0.209 C 
ENDBRANCH  12  17
ENDBRANCH   7   9
ENDBRANCH   1   7
BRANCH   4  19
HETATM   19  C10 UNL     1      25.036   2.972  51.153  1.00  0.00     0.114 C 
HETATM   20  N2  UNL     1      25.848   2.348  52.043  1.00  0.00    -0.253 NA
HETATM   21  C11 UNL     1      25.514   1.146  52.515  1.00  0.00     0.114 C 
HETATM   22  C12 UNL     1      25.171  -0.097  52.993  1.00  0.00    -0.001 C 
HETATM   23  C13 UNL     1      23.934  -0.557  53.455  1.00  0.00     0.038 A 
HETATM   24  C14 UNL     1      22.540  -0.758  53.367  1.00  0.00     0.024 A 
HETATM   25  C15 UNL     1      22.768   0.310  52.621  1.00  0.00     0.054 A 
HETATM   26  C16 UNL     1      22.989   1.247  51.970  1.00  0.00    -0.092 C 
HETATM   27  S1  UNL     1      23.332   2.575  51.053  1.00  0.00    -0.030 SA
ENDBRANCH   4  19
TORSDOF 4
ENDMDL
MODEL 5
REMARK VINA RESULT:      -8.0      8.120     12.728
REMARK  4 active torsions:
REMARK  status: ('A' for Active; 'I' for Inactive)
REMARK    1  A    between atoms: O1_2  and  C2_3 
REMARK    2  A    between atoms: C5_6  and  N1_7 
REMARK    3  A    between atoms: N1_7  and  C6_8 
REMARK    4  A    between atoms: C9_11  and  C10_12 
ROOT
HETATM    1  C6  UNL     1      27.307   6.463  48.554  1.00  0.00     0.029 A 
HETATM    2  C7  UNL     1      26.127   6.703  49.222  1.00  0.00     0.030 A 
HETATM    3  C8  UNL     1      25.481   5.635  49.809  1.00  0.00     0.016 A 
HETATM    4  C9  UNL     1      25.982   4.364  49.741  1.00  0.00     0.000 A 
HETATM    5  C17 UNL     1      27.176   4.111  49.066  1.00  0.00     0.016 A 
HETATM    6  C18 UNL     1      27.813   5.184  48.484  1.00  0.00     0.030 A 
ENDROOT
BRANCH   1   7
HETATM    7  N1  UNL     1      27.986   7.541  47.954  1.00  0.00    -0.367 N 
HETATM    8  H8  UNL     1      27.933   7.630  46.912  1.00  0.00     0.161 HD
BRANCH   7   9
HETATM    9  C5  UNL     1      28.767   8.563  48.625  1.00  0.00     0.212 C 
HETATM   10  C4  UNL     1      28.391   9.941  48.169  1.00  0.00     0.107 C 
HETATM   11  C3  UNL     1      29.426  10.900  48.591  1.00  0.00     0.035 C 
HETATM   12  C2  UNL     1      29.042  12.119  49.009  1.00  0.00     0.159 C 
HETATM   13  N4  UNL     1      30.817  10.646  48.580  1.00  0.00    -0.353 N 
HETATM   14  C19 UNL     1      31.036   9.241  48.591  1.00  0.00     0.203 C 
HETATM   15  H18 UNL     1      31.569  11.337  48.567  1.00  0.00     0.166 HD
HETATM   16  N3  UNL     1      30.149   8.334  48.609  1.00  0.00    -0.259 NA
BRANCH  12  17
HETATM   17  O1  UNL     1      28.124  13.109  49.304  1.00  0.00    -0.366 OA
HETATM   18  C1  UNL     1      27.393  13.840  48.344  1.00  0.00     0.209 C 
ENDBRANCH  12  17
ENDBRANCH   7   9
ENDBRANCH   1   7
BRANCH   4  19
HETATM   19  C10 UNL     1      25.334   3.240  50.380  1.00  0.00     0.114 C 
HETATM   20  N2  UNL     1      24.023   2.959  50.172  1.00  0.00    -0.253 NA
HETATM   21  C11 UNL     1      23.345   2.253  51.078  1.00  0.00     0.114 C 
HETATM   22  C12 UNL     1      22.647   1.533  52.019  1.00  0.00    -0.001 C 
HETATM   23  C13 UNL     1      23.021   0.371  52.701  1.00  0.00     0.038 A 
HETATM   24  C14 UNL     1      23.897  -0.422  53.472  1.00  0.00     0.024 A 
HETATM   25  C15 UNL     1      24.691   0.422  52.834  1.00  0.00     0.054 A 
HETATM   26  C16 UNL     1      25.371   1.171  52.264  1.00  0.00    -0.092 C 
HETATM   27  S1  UNL     1      26.313   2.248  51.441  1.00  0.00    -0.030 SA
ENDBRANCH   4  19
TORSDOF 4
ENDMDL
MODEL 6
REMARK VINA RESULT:      -7.8      4.576      6.109
REMARK  4 active torsions:
REMARK  status: ('A' for Active; 'I' for Inactive)
REMARK    1  A    between atoms: O1_2  and  C2_3 
REMARK    2  A    between atoms: C5_6  and  N1_7 
REMARK    3  A    between atoms: N1_7  and  C6_8 
REMARK    4  A    between atoms: C9_11  and  C10_12 
ROOT
HETATM    1  C6  UNL     1      24.485   1.651  52.362  1.00  0.00     0.029 A 
HETATM    2  C7  UNL     1      23.694   2.673  51.885  1.00  0.00     0.030 A 
HETATM    3  C8  UNL     1      24.249   3.563  50.990  1.00  0.00     0.016 A 
HETATM    4  C9  UNL     1      25.548   3.452  50.574  1.00  0.00     0.000 A 
HETATM    5  C17 UNL     1      26.357   2.421  51.053  1.00  0.00     0.016 A 
HETATM    6  C18 UNL     1      25.793   1.537  51.946  1.00  0.00     0.030 A 
ENDROOT
BRANCH   1   7
HETATM    7  N1  UNL     1      23.935   0.726  53.271  1.00  0.00    -0.367 N 
HETATM    8  H8  UNL     1      24.418   0.604  54.192  1.00  0.00     0.161 HD
BRANCH   7   9
HETATM    9  C5  UNL     1      22.754  -0.093  53.076  1.00  0.00     0.212 C 
HETATM   10  C4  UNL     1      21.508   0.738  52.985  1.00  0.00     0.107 C 
HETATM   11  C3  UNL     1      20.327  -0.126  53.148  1.00  0.00     0.035 C 
HETATM   12  C2  UNL     1      19.237   0.125  52.401  1.00  0.00     0.159 C 
HETATM   13  N4  UNL     1      20.235  -1.211  54.052  1.00  0.00    -0.353 N 
HETATM   14  C19 UNL     1      21.545  -1.645  54.394  1.00  0.00     0.203 C 
HETATM   15  H18 UNL     1      19.382  -1.636  54.419  1.00  0.00     0.166 HD
HETATM   16  N3  UNL     1      22.640  -1.162  53.974  1.00  0.00    -0.259 NA
BRANCH  12  17
HETATM   17  O1  UNL     1      18.499   0.812  51.456  1.00  0.00    -0.366 OA
HETATM   18  C1  UNL     1      19.018   1.327  50.249  1.00  0.00     0.209 C 
ENDBRANCH  12  17
ENDBRANCH   7   9
ENDBRANCH   1   7
BRANCH   4  19
HETATM   19  C10 UNL     1      26.133   4.357  49.612  1.00  0.00     0.114 C 
HETATM   20  N2  UNL     1      27.341   4.112  49.041  1.00  0.00    -0.253 NA
HETATM   21  C11 UNL     1      28.057   5.122  48.546  1.00  0.00     0.114 C 
HETATM   22  C12 UNL     1      28.798   6.167  48.045  1.00  0.00    -0.001 C 
HETATM   23  C13 UNL     1      28.387   7.241  47.249  1.00  0.00     0.038 A 
HETATM   24  C14 UNL     1      27.552   8.329  46.917  1.00  0.00     0.024 A 
HETATM   25  C15 UNL     1      26.785   7.535  47.647  1.00  0.00     0.054 A 
HETATM   26  C16 UNL     1      26.129   6.824  48.290  1.00  0.00    -0.092 C 
HETATM   27  S1  UNL     1      25.220   5.796  49.205  1.00  0.00    -0.030 SA
ENDBRANCH   4  19
TORSDOF 4
ENDMDL
MODEL 7
REMARK VINA RESULT:      -7.8      6.500      9.296
REMARK  4 active torsions:
REMARK  status: ('A' for Active; 'I' for Inactive)
REMARK    1  A    between atoms: O1_2  and  C2_3 
REMARK    2  A    between atoms: C5_6  and  N1_7 
REMARK    3  A    between atoms: N1_7  and  C6_8 
REMARK    4  A    between atoms: C9_11  and  C10_12 
ROOT
HETATM    1  C6  UNL     1      25.148   3.472  50.059  1.00  0.00     0.029 A 
HETATM    2  C7  UNL     1      26.407   3.267  49.539  1.00  0.00     0.030 A 
HETATM    3  C8  UNL     1      27.114   4.363  49.092  1.00  0.00     0.016 A 
HETATM    4  C9  UNL     1      26.598   5.629  49.155  1.00  0.00     0.000 A 
HETATM    5  C17 UNL     1      25.324   5.846  49.679  1.00  0.00     0.016 A 
HETATM    6  C18 UNL     1      24.626   4.744  50.123  1.00  0.00     0.030 A 
ENDROOT
BRANCH   1   7
HETATM    7  N1  UNL     1      24.412   2.366  50.528  1.00  0.00    -0.367 N 
HETATM    8  H8  UNL     1      23.844   1.829  49.831  1.00  0.00     0.161 HD
BRANCH   7   9
HETATM    9  C5  UNL     1      24.347   1.876  51.892  1.00  0.00     0.212 C 
HETATM   10  C4  UNL     1      25.341   0.780  52.138  1.00  0.00     0.107 C 
HETATM   11  C3  UNL     1      25.004   0.081  53.390  1.00  0.00     0.035 C 
HETATM   12  C2  UNL     1      26.005  -0.322  54.192  1.00  0.00     0.159 C 
HETATM   13  N4  UNL     1      23.691  -0.222  53.820  1.00  0.00    -0.353 N 
HETATM   14  C19 UNL     1      22.774   0.646  53.165  1.00  0.00     0.203 C 
HETATM   15  H18 UNL     1      23.413  -0.940  54.490  1.00  0.00     0.166 HD
HETATM   16  N3  UNL     1      23.055   1.557  52.327  1.00  0.00    -0.259 NA
BRANCH  12  17
HETATM   17  O1  UNL     1      27.328  -0.476  54.561  1.00  0.00    -0.366 OA
HETATM   18  C1  UNL     1      28.308   0.536  54.485  1.00  0.00     0.209 C 
ENDBRANCH  12  17
ENDBRANCH   7   9
ENDBRANCH   1   7
BRANCH   4  19
HETATM   19  C10 UNL     1      27.340   6.790  48.721  1.00  0.00     0.114 C 
HETATM   20  N2  UNL     1      28.301   6.709  47.765  1.00  0.00    -0.253 NA
HETATM   21  C11 UNL     1      29.261   7.634  47.710  1.00  0.00     0.114 C 
HETATM   22  C12 UNL     1      30.254   8.583  47.662  1.00  0.00    -0.001 C 
HETATM   23  C13 UNL     1      30.154   9.974  47.763  1.00  0.00     0.038 A 
HETATM   24  C14 UNL     1      29.724  11.177  48.364  1.00  0.00     0.024 A 
HETATM   25  C15 UNL     1      28.824  10.281  48.736  1.00  0.00     0.054 A 
HETATM   26  C16 UNL     1      28.044   9.479  49.051  1.00  0.00    -0.092 C 
HETATM   27  S1  UNL     1      26.952   8.320  49.481  1.00  0.00    -0.030 SA
ENDBRANCH   4  19
TORSDOF 4
ENDMDL
MODEL 8
REMARK VINA RESULT:      -7.8      6.504      9.453
REMARK  4 active torsions:
REMARK  status: ('A' for Active; 'I' for Inactive)
REMARK    1  A    between atoms: O1_2  and  C2_3 
REMARK    2  A    between atoms: C5_6  and  N1_7 
REMARK    3  A    between atoms: N1_7  and  C6_8 
REMARK    4  A    between atoms: C9_11  and  C10_12 
ROOT
HETATM    1  C6  UNL     1      24.900   3.015  50.562  1.00  0.00     0.029 A 
HETATM    2  C7  UNL     1      24.344   4.275  50.543  1.00  0.00     0.030 A 
HETATM    3  C8  UNL     1      25.033   5.282  49.900  1.00  0.00     0.016 A 
HETATM    4  C9  UNL     1      26.237   5.056  49.291  1.00  0.00     0.000 A 
HETATM    5  C17 UNL     1      26.808   3.784  49.305  1.00  0.00     0.016 A 
HETATM    6  C18 UNL     1      26.112   2.785  49.950  1.00  0.00     0.030 A 
ENDROOT
BRANCH   1   7
HETATM    7  N1  UNL     1      24.209   1.971  51.207  1.00  0.00    -0.367 N 
HETATM    8  H8  UNL     1      23.451   1.486  50.671  1.00  0.00     0.161 HD
BRANCH   7   9
HETATM    9  C5  UNL     1      24.429   1.480  52.554  1.00  0.00     0.212 C 
HETATM   10  C4  UNL     1      25.825   0.964  52.738  1.00  0.00     0.107 C 
HETATM   11  C3  UNL     1      25.896   0.164  53.973  1.00  0.00     0.035 C 
HETATM   12  C2  UNL     1      26.998   0.255  54.737  1.00  0.00     0.159 C 
HETATM   13  N4  UNL     1      24.887  -0.720  54.423  1.00  0.00    -0.353 N 
HETATM   14  C19 UNL     1      23.650  -0.363  53.822  1.00  0.00     0.203 C 
HETATM   15  H18 UNL     1      24.998  -1.499  55.075  1.00  0.00     0.166 HD
HETATM   16  N3  UNL     1      23.447   0.590  53.009  1.00  0.00    -0.259 NA
BRANCH  12  17
HETATM   17  O1  UNL     1      28.256   0.723  55.068  1.00  0.00    -0.366 OA
HETATM   18  C1  UNL     1      29.354   0.775  54.184  1.00  0.00     0.209 C 
ENDBRANCH  12  17
ENDBRANCH   7   9
ENDBRANCH   1   7
BRANCH   4  19
HETATM   19  C10 UNL     1      26.954   6.093  48.584  1.00  0.00     0.114 C 
HETATM   20  N2  UNL     1      26.342   7.233  48.173  1.00  0.00    -0.253 NA
HETATM   21  C11 UNL     1      26.857   7.934  47.162  1.00  0.00     0.114 C 
HETATM   22  C12 UNL     1      27.385   8.649  46.113  1.00  0.00    -0.001 C 
HETATM   23  C13 UNL     1      28.714   9.007  45.866  1.00  0.00     0.038 A 
HETATM   24  C14 UNL     1      30.095   8.748  45.732  1.00  0.00     0.024 A 
HETATM   25  C15 UNL     1      29.659   7.802  46.547  1.00  0.00     0.054 A 
HETATM   26  C16 UNL     1      29.257   6.979  47.262  1.00  0.00    -0.092 C 
HETATM   27  S1  UNL     1      28.658   5.824  48.276  1.00  0.00    -0.030 SA
ENDBRANCH   4  19
TORSDOF 4
ENDMDL
MODEL 9
REMARK VINA RESULT:      -7.7      5.458      7.084
REMARK  4 active torsions:
REMARK  status: ('A' for Active; 'I' for Inactive)
REMARK    1  A    between atoms: O1_2  and  C2_3 
REMARK    2  A    between atoms: C5_6  and  N1_7 
REMARK    3  A    between atoms: N1_7  and  C6_8 
REMARK    4  A    between atoms: C9_11  and  C10_12 
ROOT
HETATM    1  C6  UNL     1      22.225   3.495  52.304  1.00  0.00     0.029 A 
HETATM    2  C7  UNL     1      23.360   4.219  52.595  1.00  0.00     0.030 A 
HETATM    3  C8  UNL     1      24.504   3.529  52.938  1.00  0.00     0.016 A 
HETATM    4  C9  UNL     1      24.532   2.162  52.993  1.00  0.00     0.000 A 
HETATM    5  C17 UNL     1      23.388   1.421  52.700  1.00  0.00     0.016 A 
HETATM    6  C18 UNL     1      22.251   2.119  52.359  1.00  0.00     0.030 A 
ENDROOT
BRANCH   1   7
HETATM    7  N1  UNL     1      21.048   4.180  51.944  1.00  0.00    -0.367 N 
HETATM    8  H8  UNL     1      20.236   4.131  52.603  1.00  0.00     0.161 HD
BRANCH   7   9
HETATM    9  C5  UNL     1      20.826   4.961  50.742  1.00  0.00     0.212 C 
HETATM   10  C4  UNL     1      21.180   6.404  50.941  1.00  0.00     0.107 C 
HETATM   11  C3  UNL     1      20.613   7.207  49.844  1.00  0.00     0.035 C 
HETATM   12  C2  UNL     1      21.337   8.229  49.354  1.00  0.00     0.159 C 
HETATM   13  N4  UNL     1      19.341   6.998  49.262  1.00  0.00    -0.353 N 
HETATM   14  C19 UNL     1      18.923   5.664  49.520  1.00  0.00     0.203 C 
HETATM   15  H18 UNL     1      18.786   7.676  48.737  1.00  0.00     0.166 HD
HETATM   16  N3  UNL     1      19.564   4.777  50.162  1.00  0.00    -0.259 NA
BRANCH  12  17
HETATM   17  O1  UNL     1      22.438   9.060  49.279  1.00  0.00    -0.366 OA
HETATM   18  C1  UNL     1      23.768   8.619  49.108  1.00  0.00     0.209 C 
ENDBRANCH  12  17
ENDBRANCH   7   9
ENDBRANCH   1   7
BRANCH   4  19
HETATM   19  C10 UNL     1      25.732   1.425  53.318  1.00  0.00     0.114 C 
HETATM   20  N2  UNL     1      26.753   1.990  54.012  1.00  0.00    -0.253 NA
HETATM   21  C11 UNL     1      27.985   1.492  53.902  1.00  0.00     0.114 C 
HETATM   22  C12 UNL     1      29.256   0.981  53.779  1.00  0.00    -0.001 C 
HETATM   23  C13 UNL     1      29.679  -0.352  53.801  1.00  0.00     0.038 A 
HETATM   24  C14 UNL     1      29.636  -1.705  53.403  1.00  0.00     0.024 A 
HETATM   25  C15 UNL     1      28.408  -1.259  53.194  1.00  0.00     0.054 A 
HETATM   26  C16 UNL     1      27.335  -0.849  53.018  1.00  0.00    -0.092 C 
HETATM   27  S1  UNL     1      25.821  -0.239  52.778  1.00  0.00    -0.030 SA
ENDBRANCH   4  19
TORSDOF 4
ENDMDL
