MODEL 1
REMARK VINA RESULT:      -8.5      0.000      0.000
REMARK  3 active torsions:
REMARK  status: ('A' for Active; 'I' for Inactive)
REMARK    1  A    between atoms: C3_3  and  C4_4 
REMARK       I    between atoms: C4_4  and  N1_6 
REMARK    2  A    between atoms: C8_12  and  N4_13 
REMARK    3  A    between atoms: N4_13  and  C9_14 
ROOT
HETATM    1  C4  UNL     1      22.703  -0.892  54.547  1.00  0.00     0.247 C 
HETATM    2  O1  UNL     1      23.104  -1.266  55.688  1.00  0.00    -0.268 OA
HETATM    3  N1  UNL     1      23.599  -0.149  53.742  1.00  0.00    -0.319 N 
HETATM    4  C5  UNL     1      24.895   0.114  54.252  1.00  0.00     0.127 A 
HETATM    5  C6  UNL     1      25.856   0.775  53.629  1.00  0.00     0.087 A 
HETATM    6  N2  UNL     1      27.051   0.960  54.222  1.00  0.00    -0.240 NA
HETATM    7  C7  UNL     1      28.042   1.632  53.615  1.00  0.00     0.236 A 
HETATM    8  N3  UNL     1      27.789   2.111  52.394  1.00  0.00    -0.224 NA
HETATM    9  C8  UNL     1      26.642   1.980  51.725  1.00  0.00     0.141 A 
HETATM   10  C15 UNL     1      25.648   1.290  52.370  1.00  0.00     0.038 A 
HETATM   11  C16 UNL     1      24.454   1.067  51.878  1.00  0.00     0.011 A 
HETATM   12  C17 UNL     1      23.268   0.360  52.425  1.00  0.00     0.160 A 
ENDROOT
BRANCH   9  13
HETATM   13  N4  UNL     1      26.402   2.499  50.431  1.00  0.00    -0.340 N 
HETATM   14  H8  UNL     1      26.241   1.884  49.611  1.00  0.00     0.167 HD
BRANCH  13  15
HETATM   15  C9  UNL     1      26.329   3.841  49.977  1.00  0.00     0.035 A 
HETATM   16  C10 UNL     1      27.151   4.431  49.036  1.00  0.00     0.029 A 
HETATM   17  C11 UNL     1      27.033   5.740  48.642  1.00  0.00     0.004 A 
HETATM   18  C12 UNL     1      26.077   6.555  49.168  1.00  0.00     0.019 A 
HETATM   19  C13 UNL     1      25.232   6.005  50.115  1.00  0.00     0.013 A 
HETATM   20 BR1  UNL     1      23.909   7.198  50.818  1.00  0.00    -0.051 Br
HETATM   21  C14 UNL     1      25.379   4.703  50.481  1.00  0.00     0.048 A 
ENDBRANCH  13  15
ENDBRANCH   9  13
BRANCH   1  22
HETATM   22  C3  UNL     1      21.336  -1.238  54.104  1.00  0.00     0.070 C 
HETATM   23  C2  UNL     1      20.197  -0.609  53.806  1.00  0.00    -0.026 C 
HETATM   24  C1  UNL     1      18.914  -1.236  53.366  1.00  0.00     0.036 C 
ENDBRANCH   1  22
TORSDOF 3
ENDMDL
MODEL 2
REMARK VINA RESULT:      -8.1      3.754      7.179
REMARK  3 active torsions:
REMARK  status: ('A' for Active; 'I' for Inactive)
REMARK    1  A    between atoms: C3_3  and  C4_4 
REMARK       I    between atoms: C4_4  and  N1_6 
REMARK    2  A    between atoms: C8_12  and  N4_13 
REMARK    3  A    between atoms: N4_13  and  C9_14 
ROOT
HETATM    1  C4  UNL     1      27.452   1.539  53.842  1.00  0.00     0.247 C 
HETATM    2  O1  UNL     1      27.914   2.647  54.244  1.00  0.00    -0.268 OA
HETATM    3  N1  UNL     1      26.137   1.522  53.317  1.00  0.00    -0.319 N 
HETATM    4  C5  UNL     1      25.426   2.747  53.257  1.00  0.00     0.127 A 
HETATM    5  C6  UNL     1      24.202   2.912  52.784  1.00  0.00     0.087 A 
HETATM    6  N2  UNL     1      23.633   4.132  52.779  1.00  0.00    -0.240 NA
HETATM    7  C7  UNL     1      22.389   4.328  52.310  1.00  0.00     0.236 A 
HETATM    8  N3  UNL     1      21.742   3.255  51.847  1.00  0.00    -0.224 NA
HETATM    9  C8  UNL     1      22.219   2.009  51.809  1.00  0.00     0.141 A 
HETATM   10  C15 UNL     1      23.490   1.840  52.295  1.00  0.00     0.038 A 
HETATM   11  C16 UNL     1      24.123   0.694  52.348  1.00  0.00     0.011 A 
HETATM   12  C17 UNL     1      25.475   0.324  52.839  1.00  0.00     0.160 A 
ENDROOT
BRANCH   9  13
HETATM   13  N4  UNL     1      21.510   0.891  51.313  1.00  0.00    -0.340 N 
HETATM   14  H8  UNL     1      21.856   0.327  50.514  1.00  0.00     0.167 HD
BRANCH  13  15
HETATM   15  C9  UNL     1      20.281   0.320  51.735  1.00  0.00     0.035 A 
HETATM   16  C10 UNL     1      20.039  -0.290  52.951  1.00  0.00     0.029 A 
HETATM   17  C11 UNL     1      18.826  -0.828  53.299  1.00  0.00     0.004 A 
HETATM   18  C12 UNL     1      17.764  -0.794  52.448  1.00  0.00     0.019 A 
HETATM   19  C13 UNL     1      17.963  -0.192  51.218  1.00  0.00     0.013 A 
HETATM   20 BR1  UNL     1      16.435  -0.173  50.063  1.00  0.00    -0.051 Br
HETATM   21  C14 UNL     1      19.179   0.331  50.908  1.00  0.00     0.048 A 
ENDBRANCH  13  15
ENDBRANCH   9  13
BRANCH   1  22
HETATM   22  C3  UNL     1      28.287   0.323  53.933  1.00  0.00     0.070 C 
HETATM   23  C2  UNL     1      29.481  -0.099  53.507  1.00  0.00    -0.026 C 
HETATM   24  C1  UNL     1      30.100  -1.435  53.756  1.00  0.00     0.036 C 
ENDBRANCH   1  22
TORSDOF 3
ENDMDL
MODEL 3
REMARK VINA RESULT:      -7.8      3.546      8.067
REMARK  3 active torsions:
REMARK  status: ('A' for Active; 'I' for Inactive)
REMARK    1  A    between atoms: C3_3  and  C4_4 
REMARK       I    between atoms: C4_4  and  N1_6 
REMARK    2  A    between atoms: C8_12  and  N4_13 
REMARK    3  A    between atoms: N4_13  and  C9_14 
ROOT
HETATM    1  C4  UNL     1      25.783   1.860  51.615  1.00  0.00     0.247 C 
HETATM    2  O1  UNL     1      26.863   1.307  51.975  1.00  0.00    -0.268 OA
HETATM    3  N1  UNL     1      24.576   1.386  52.182  1.00  0.00    -0.319 N 
HETATM    4  C5  UNL     1      24.650   0.334  53.129  1.00  0.00     0.127 A 
HETATM    5  C6  UNL     1      23.628  -0.215  53.764  1.00  0.00     0.087 A 
HETATM    6  N2  UNL     1      23.829  -1.211  54.646  1.00  0.00    -0.240 NA
HETATM    7  C7  UNL     1      22.808  -1.790  55.300  1.00  0.00     0.236 A 
HETATM    8  N3  UNL     1      21.582  -1.331  55.035  1.00  0.00    -0.224 NA
HETATM    9  C8  UNL     1      21.282  -0.351  54.180  1.00  0.00     0.141 A 
HETATM   10  C15 UNL     1      22.344   0.220  53.527  1.00  0.00     0.038 A 
HETATM   11  C16 UNL     1      22.246   1.187  52.648  1.00  0.00     0.011 A 
HETATM   12  C17 UNL     1      23.267   1.912  51.848  1.00  0.00     0.160 A 
ENDROOT
BRANCH   9  13
HETATM   13  N4  UNL     1      19.972   0.115  53.919  1.00  0.00    -0.340 N 
HETATM   14  H8  UNL     1      19.663   1.069  54.180  1.00  0.00     0.167 HD
BRANCH  13  15
HETATM   15  C9  UNL     1      18.871  -0.535  53.302  1.00  0.00     0.035 A 
HETATM   16  C10 UNL     1      18.074  -0.017  52.300  1.00  0.00     0.029 A 
HETATM   17  C11 UNL     1      17.018  -0.696  51.746  1.00  0.00     0.004 A 
HETATM   18  C12 UNL     1      16.685  -1.949  52.161  1.00  0.00     0.019 A 
HETATM   19  C13 UNL     1      17.457  -2.506  53.164  1.00  0.00     0.013 A 
HETATM   20 BR1  UNL     1      16.941  -4.268  53.706  1.00  0.00    -0.051 Br
HETATM   21  C14 UNL     1      18.496  -1.803  53.689  1.00  0.00     0.048 A 
ENDBRANCH  13  15
ENDBRANCH   9  13
BRANCH   1  22
HETATM   22  C3  UNL     1      25.820   2.965  50.633  1.00  0.00     0.070 C 
HETATM   23  C2  UNL     1      26.732   3.644  49.933  1.00  0.00    -0.026 C 
HETATM   24  C1  UNL     1      26.476   4.760  48.973  1.00  0.00     0.036 C 
ENDBRANCH   1  22
TORSDOF 3
ENDMDL
MODEL 4
REMARK VINA RESULT:      -7.8      2.369      4.671
REMARK  3 active torsions:
REMARK  status: ('A' for Active; 'I' for Inactive)
REMARK    1  A    between atoms: C3_3  and  C4_4 
REMARK       I    between atoms: C4_4  and  N1_6 
REMARK    2  A    between atoms: C8_12  and  N4_13 
REMARK    3  A    between atoms: N4_13  and  C9_14 
ROOT
HETATM    1  C4  UNL     1      26.186  -0.565  53.655  1.00  0.00     0.247 C 
HETATM    2  O1  UNL     1      25.558  -1.245  54.517  1.00  0.00    -0.268 OA
HETATM    3  N1  UNL     1      25.455   0.384  52.900  1.00  0.00    -0.319 N 
HETATM    4  C5  UNL     1      24.070   0.527  53.167  1.00  0.00     0.127 A 
HETATM    5  C6  UNL     1      23.247   1.371  52.570  1.00  0.00     0.087 A 
HETATM    6  N2  UNL     1      21.946   1.413  52.915  1.00  0.00    -0.240 NA
HETATM    7  C7  UNL     1      21.086   2.257  52.321  1.00  0.00     0.236 A 
HETATM    8  N3  UNL     1      21.581   3.054  51.370  1.00  0.00    -0.224 NA
HETATM    9  C8  UNL     1      22.850   3.087  50.959  1.00  0.00     0.141 A 
HETATM   10  C15 UNL     1      23.704   2.214  51.583  1.00  0.00     0.038 A 
HETATM   11  C16 UNL     1      24.981   2.096  51.311  1.00  0.00     0.011 A 
HETATM   12  C17 UNL     1      26.040   1.216  51.867  1.00  0.00     0.160 A 
ENDROOT
BRANCH   9  13
HETATM   13  N4  UNL     1      23.346   3.943  49.948  1.00  0.00    -0.340 N 
HETATM   14  H8  UNL     1      23.167   3.770  48.942  1.00  0.00     0.167 HD
BRANCH  13  15
HETATM   15  C9  UNL     1      24.128   5.123  50.045  1.00  0.00     0.035 A 
HETATM   16  C10 UNL     1      23.853   6.222  50.836  1.00  0.00     0.029 A 
HETATM   17  C11 UNL     1      24.649   7.339  50.883  1.00  0.00     0.004 A 
HETATM   18  C12 UNL     1      25.782   7.434  50.134  1.00  0.00     0.019 A 
HETATM   19  C13 UNL     1      26.095   6.355  49.326  1.00  0.00     0.013 A 
HETATM   20 BR1  UNL     1      27.698   6.546  48.298  1.00  0.00    -0.051 Br
HETATM   21  C14 UNL     1      25.283   5.265  49.307  1.00  0.00     0.048 A 
ENDBRANCH  13  15
ENDBRANCH   9  13
BRANCH   1  22
HETATM   22  C3  UNL     1      27.637  -0.780  53.470  1.00  0.00     0.070 C 
HETATM   23  C2  UNL     1      28.785  -0.276  53.930  1.00  0.00    -0.026 C 
HETATM   24  C1  UNL     1      30.166  -0.703  53.553  1.00  0.00     0.036 C 
ENDBRANCH   1  22
TORSDOF 3
ENDMDL
MODEL 5
REMARK VINA RESULT:      -7.6      2.417      4.922
REMARK  3 active torsions:
REMARK  status: ('A' for Active; 'I' for Inactive)
REMARK    1  A    between atoms: C3_3  and  C4_4 
REMARK       I    between atoms: C4_4  and  N1_6 
REMARK    2  A    between atoms: C8_12  and  N4_13 
REMARK    3  A    between atoms: N4_13  and  C9_14 
ROOT
HETATM    1  C4  UNL     1      26.073  -0.294  54.288  1.00  0.00     0.247 C 
HETATM    2  O1  UNL     1      25.578  -1.091  55.138  1.00  0.00    -0.268 OA
HETATM    3  N1  UNL     1      25.180   0.460  53.490  1.00  0.00    -0.319 N 
HETATM    4  C5  UNL     1      23.788   0.291  53.702  1.00  0.00     0.127 A 
HETATM    5  C6  UNL     1      22.822   0.925  53.059  1.00  0.00     0.087 A 
HETATM    6  N2  UNL     1      21.532   0.678  53.355  1.00  0.00    -0.240 NA
HETATM    7  C7  UNL     1      20.530   1.303  52.713  1.00  0.00     0.236 A 
HETATM    8  N3  UNL     1      20.873   2.181  51.768  1.00  0.00    -0.224 NA
HETATM    9  C8  UNL     1      22.118   2.494  51.404  1.00  0.00     0.141 A 
HETATM   10  C15 UNL     1      23.119   1.840  52.076  1.00  0.00     0.038 A 
HETATM   11  C16 UNL     1      24.400   2.008  51.853  1.00  0.00     0.011 A 
HETATM   12  C17 UNL     1      25.606   1.393  52.465  1.00  0.00     0.160 A 
ENDROOT
BRANCH   9  13
HETATM   13  N4  UNL     1      22.451   3.430  50.398  1.00  0.00    -0.340 N 
HETATM   14  H8  UNL     1      22.618   3.147  49.414  1.00  0.00     0.167 HD
BRANCH  13  15
HETATM   15  C9  UNL     1      22.623   4.837  50.472  1.00  0.00     0.035 A 
HETATM   16  C10 UNL     1      21.630   5.770  50.700  1.00  0.00     0.029 A 
HETATM   17  C11 UNL     1      21.860   7.122  50.756  1.00  0.00     0.004 A 
HETATM   18  C12 UNL     1      23.109   7.636  50.584  1.00  0.00     0.019 A 
HETATM   19  C13 UNL     1      24.134   6.736  50.352  1.00  0.00     0.013 A 
HETATM   20 BR1  UNL     1      25.867   7.517  50.118  1.00  0.00    -0.051 Br
HETATM   21  C14 UNL     1      23.868   5.403  50.304  1.00  0.00     0.048 A 
ENDBRANCH  13  15
ENDBRANCH   9  13
BRANCH   1  22
HETATM   22  C3  UNL     1      27.541  -0.181  54.162  1.00  0.00     0.070 C 
HETATM   23  C2  UNL     1      28.524  -0.730  53.443  1.00  0.00    -0.026 C 
HETATM   24  C1  UNL     1      29.981  -0.412  53.527  1.00  0.00     0.036 C 
ENDBRANCH   1  22
TORSDOF 3
ENDMDL
MODEL 6
REMARK VINA RESULT:      -7.3      4.203      8.852
REMARK  3 active torsions:
REMARK  status: ('A' for Active; 'I' for Inactive)
REMARK    1  A    between atoms: C3_3  and  C4_4 
REMARK       I    between atoms: C4_4  and  N1_6 
REMARK    2  A    between atoms: C8_12  and  N4_13 
REMARK    3  A    between atoms: N4_13  and  C9_14 
ROOT
HETATM    1  C4  UNL     1      28.372   7.580  47.688  1.00  0.00     0.247 C 
HETATM    2  O1  UNL     1      27.920   8.761  47.731  1.00  0.00    -0.268 OA
HETATM    3  N1  UNL     1      27.663   6.573  48.386  1.00  0.00    -0.319 N 
HETATM    4  C5  UNL     1      26.481   6.944  49.075  1.00  0.00     0.127 A 
HETATM    5  C6  UNL     1      25.694   6.132  49.760  1.00  0.00     0.087 A 
HETATM    6  N2  UNL     1      24.593   6.607  50.372  1.00  0.00    -0.240 NA
HETATM    7  C7  UNL     1      23.778   5.806  51.079  1.00  0.00     0.236 A 
HETATM    8  N3  UNL     1      24.111   4.514  51.147  1.00  0.00    -0.224 NA
HETATM    9  C8  UNL     1      25.177   3.950  50.576  1.00  0.00     0.141 A 
HETATM   10  C15 UNL     1      25.990   4.792  49.862  1.00  0.00     0.038 A 
HETATM   11  C16 UNL     1      27.083   4.424  49.240  1.00  0.00     0.011 A 
HETATM   12  C17 UNL     1      28.076   5.184  48.438  1.00  0.00     0.160 A 
ENDROOT
BRANCH   9  13
HETATM   13  N4  UNL     1      25.505   2.576  50.666  1.00  0.00    -0.340 N 
HETATM   14  H8  UNL     1      25.843   2.036  49.848  1.00  0.00     0.167 HD
BRANCH  13  15
HETATM   15  C9  UNL     1      25.458   1.691  51.773  1.00  0.00     0.035 A 
HETATM   16  C10 UNL     1      24.328   1.084  52.287  1.00  0.00     0.029 A 
HETATM   17  C11 UNL     1      24.348   0.238  53.367  1.00  0.00     0.004 A 
HETATM   18  C12 UNL     1      25.509  -0.061  54.012  1.00  0.00     0.019 A 
HETATM   19  C13 UNL     1      26.666   0.526  53.530  1.00  0.00     0.013 A 
HETATM   20 BR1  UNL     1      28.266   0.069  54.477  1.00  0.00    -0.051 Br
HETATM   21  C14 UNL     1      26.607   1.359  52.457  1.00  0.00     0.048 A 
ENDBRANCH  13  15
ENDBRANCH   9  13
BRANCH   1  22
HETATM   22  C3  UNL     1      29.605   7.298  46.922  1.00  0.00     0.070 C 
HETATM   23  C2  UNL     1      30.910   7.570  47.000  1.00  0.00    -0.026 C 
HETATM   24  C1  UNL     1      31.975   7.139  46.045  1.00  0.00     0.036 C 
ENDBRANCH   1  22
TORSDOF 3
ENDMDL
MODEL 7
REMARK VINA RESULT:      -7.0      3.765      5.632
REMARK  3 active torsions:
REMARK  status: ('A' for Active; 'I' for Inactive)
REMARK    1  A    between atoms: C3_3  and  C4_4 
REMARK       I    between atoms: C4_4  and  N1_6 
REMARK    2  A    between atoms: C8_12  and  N4_13 
REMARK    3  A    between atoms: N4_13  and  C9_14 
ROOT
HETATM    1  C4  UNL     1      26.039  -0.569  53.760  1.00  0.00     0.247 C 
HETATM    2  O1  UNL     1      25.618  -1.341  54.671  1.00  0.00    -0.268 OA
HETATM    3  N1  UNL     1      25.091   0.245  53.094  1.00  0.00    -0.319 N 
HETATM    4  C5  UNL     1      23.735   0.160  53.498  1.00  0.00     0.127 A 
HETATM    5  C6  UNL     1      22.730   0.857  52.996  1.00  0.00     0.087 A 
HETATM    6  N2  UNL     1      21.481   0.687  53.467  1.00  0.00    -0.240 NA
HETATM    7  C7  UNL     1      20.440   1.377  52.972  1.00  0.00     0.236 A 
HETATM    8  N3  UNL     1      20.702   2.241  51.988  1.00  0.00    -0.224 NA
HETATM    9  C8  UNL     1      21.902   2.481  51.455  1.00  0.00     0.141 A 
HETATM   10  C15 UNL     1      22.944   1.761  51.981  1.00  0.00     0.038 A 
HETATM   11  C16 UNL     1      24.189   1.853  51.582  1.00  0.00     0.011 A 
HETATM   12  C17 UNL     1      25.428   1.159  52.020  1.00  0.00     0.160 A 
ENDROOT
BRANCH   9  13
HETATM   13  N4  UNL     1      22.149   3.404  50.412  1.00  0.00    -0.340 N 
HETATM   14  H8  UNL     1      22.768   4.226  50.538  1.00  0.00     0.167 HD
BRANCH  13  15
HETATM   15  C9  UNL     1      21.666   3.434  49.078  1.00  0.00     0.035 A 
HETATM   16  C10 UNL     1      22.436   3.474  47.932  1.00  0.00     0.029 A 
HETATM   17  C11 UNL     1      21.907   3.507  46.666  1.00  0.00     0.004 A 
HETATM   18  C12 UNL     1      20.561   3.504  46.459  1.00  0.00     0.019 A 
HETATM   19  C13 UNL     1      19.753   3.465  47.581  1.00  0.00     0.013 A 
HETATM   20 BR1  UNL     1      17.871   3.463  47.229  1.00  0.00    -0.051 Br
HETATM   21  C14 UNL     1      20.313   3.433  48.820  1.00  0.00     0.048 A 
ENDBRANCH  13  15
ENDBRANCH   9  13
BRANCH   1  22
HETATM   22  C3  UNL     1      27.480  -0.544  53.431  1.00  0.00     0.070 C 
HETATM   23  C2  UNL     1      28.645  -0.413  54.070  1.00  0.00    -0.026 C 
HETATM   24  C1  UNL     1      30.008  -0.425  53.460  1.00  0.00     0.036 C 
ENDBRANCH   1  22
TORSDOF 3
ENDMDL
MODEL 8
REMARK VINA RESULT:      -7.0      2.372      3.265
REMARK  3 active torsions:
REMARK  status: ('A' for Active; 'I' for Inactive)
REMARK    1  A    between atoms: C3_3  and  C4_4 
REMARK       I    between atoms: C4_4  and  N1_6 
REMARK    2  A    between atoms: C8_12  and  N4_13 
REMARK    3  A    between atoms: N4_13  and  C9_14 
ROOT
HETATM    1  C4  UNL     1      18.928  -0.473  52.479  1.00  0.00     0.247 C 
HETATM    2  O1  UNL     1      18.981  -1.060  53.599  1.00  0.00    -0.268 OA
HETATM    3  N1  UNL     1      20.093   0.192  52.025  1.00  0.00    -0.319 N 
HETATM    4  C5  UNL     1      21.251   0.145  52.842  1.00  0.00     0.127 A 
HETATM    5  C6  UNL     1      22.420   0.695  52.564  1.00  0.00     0.087 A 
HETATM    6  N2  UNL     1      23.449   0.578  53.424  1.00  0.00    -0.240 NA
HETATM    7  C7  UNL     1      24.647   1.132  53.169  1.00  0.00     0.236 A 
HETATM    8  N3  UNL     1      24.770   1.804  52.022  1.00  0.00    -0.224 NA
HETATM    9  C8  UNL     1      23.813   1.975  51.108  1.00  0.00     0.141 A 
HETATM   10  C15 UNL     1      22.602   1.399  51.396  1.00  0.00     0.038 A 
HETATM   11  C16 UNL     1      21.543   1.465  50.626  1.00  0.00     0.011 A 
HETATM   12  C17 UNL     1      20.169   0.921  50.774  1.00  0.00     0.160 A 
ENDROOT
BRANCH   9  13
HETATM   13  N4  UNL     1      23.973   2.693  49.900  1.00  0.00    -0.340 N 
HETATM   14  H8  UNL     1      23.324   2.578  49.100  1.00  0.00     0.167 HD
BRANCH  13  15
HETATM   15  C9  UNL     1      24.954   3.646  49.520  1.00  0.00     0.035 A 
HETATM   16  C10 UNL     1      26.316   3.429  49.442  1.00  0.00     0.029 A 
HETATM   17  C11 UNL     1      27.216   4.396  49.072  1.00  0.00     0.004 A 
HETATM   18  C12 UNL     1      26.812   5.657  48.753  1.00  0.00     0.019 A 
HETATM   19  C13 UNL     1      25.454   5.917  48.818  1.00  0.00     0.013 A 
HETATM   20 BR1  UNL     1      24.946   7.705  48.359  1.00  0.00    -0.051 Br
HETATM   21  C14 UNL     1      24.592   4.934  49.189  1.00  0.00     0.048 A 
ENDBRANCH  13  15
ENDBRANCH   9  13
BRANCH   1  22
HETATM   22  C3  UNL     1      17.674  -0.502  51.697  1.00  0.00     0.070 C 
HETATM   23  C2  UNL     1      16.578   0.245  51.546  1.00  0.00    -0.026 C 
HETATM   24  C1  UNL     1      15.417  -0.037  50.648  1.00  0.00     0.036 C 
ENDBRANCH   1  22
TORSDOF 3
ENDMDL
MODEL 9
REMARK VINA RESULT:      -6.9      3.205      7.563
REMARK  3 active torsions:
REMARK  status: ('A' for Active; 'I' for Inactive)
REMARK    1  A    between atoms: C3_3  and  C4_4 
REMARK       I    between atoms: C4_4  and  N1_6 
REMARK    2  A    between atoms: C8_12  and  N4_13 
REMARK    3  A    between atoms: N4_13  and  C9_14 
ROOT
HETATM    1  C4  UNL     1      25.900   1.929  51.804  1.00  0.00     0.247 C 
HETATM    2  O1  UNL     1      26.646   1.616  52.776  1.00  0.00    -0.268 OA
HETATM    3  N1  UNL     1      24.553   1.493  51.836  1.00  0.00    -0.319 N 
HETATM    4  C5  UNL     1      24.118   0.748  52.961  1.00  0.00     0.127 A 
HETATM    5  C6  UNL     1      22.898   0.280  53.158  1.00  0.00     0.087 A 
HETATM    6  N2  UNL     1      22.607  -0.414  54.274  1.00  0.00    -0.240 NA
HETATM    7  C7  UNL     1      21.377  -0.906  54.497  1.00  0.00     0.236 A 
HETATM    8  N3  UNL     1      20.454  -0.674  53.560  1.00  0.00    -0.224 NA
HETATM    9  C8  UNL     1      20.644   0.001  52.425  1.00  0.00     0.141 A 
HETATM   10  C15 UNL     1      21.909   0.490  52.225  1.00  0.00     0.038 A 
HETATM   11  C16 UNL     1      22.287   1.169  51.169  1.00  0.00     0.011 A 
HETATM   12  C17 UNL     1      23.593   1.761  50.782  1.00  0.00     0.160 A 
ENDROOT
BRANCH   9  13
HETATM   13  N4  UNL     1      19.645   0.231  51.450  1.00  0.00    -0.340 N 
HETATM   14  H8  UNL     1      19.842   0.167  50.433  1.00  0.00     0.167 HD
BRANCH  13  15
HETATM   15  C9  UNL     1      18.276   0.572  51.599  1.00  0.00     0.035 A 
HETATM   16  C10 UNL     1      17.239  -0.307  51.848  1.00  0.00     0.029 A 
HETATM   17  C11 UNL     1      15.930   0.085  51.977  1.00  0.00     0.004 A 
HETATM   18  C12 UNL     1      15.567   1.393  51.864  1.00  0.00     0.019 A 
HETATM   19  C13 UNL     1      16.575   2.306  51.614  1.00  0.00     0.013 A 
HETATM   20 BR1  UNL     1      16.005   4.128  51.465  1.00  0.00    -0.051 Br
HETATM   21  C14 UNL     1      17.861   1.881  51.492  1.00  0.00     0.048 A 
ENDBRANCH  13  15
ENDBRANCH   9  13
BRANCH   1  22
HETATM   22  C3  UNL     1      26.450   2.727  50.688  1.00  0.00     0.070 C 
HETATM   23  C2  UNL     1      26.269   3.932  50.141  1.00  0.00    -0.026 C 
HETATM   24  C1  UNL     1      26.996   4.502  48.967  1.00  0.00     0.036 C 
ENDBRANCH   1  22
TORSDOF 3
ENDMDL
