MODEL 1
REMARK VINA RESULT:      -8.3      0.000      0.000
REMARK  3 active torsions:
REMARK  status: ('A' for Active; 'I' for Inactive)
REMARK    1  A    between atoms: N2_16  and  C13_17 
REMARK    2  A    between atoms: C13_17  and  C14_18 
REMARK    3  A    between atoms: C14_18  and  C15_19 
ROOT
HETATM    1  O1  UNL     1      24.931   2.315  52.660  1.00  0.00    -0.120 OA
HETATM    2  C1  UNL     1      24.421   3.300  53.121  1.00  0.00     0.452 A 
HETATM    3  N1  UNL     1      25.642   2.777  53.721  1.00  0.00     0.142 N 
HETATM    4  C2  UNL     1      26.667   1.730  53.691  1.00  0.00     0.182 A 
HETATM    5  C3  UNL     1      27.903   2.270  53.587  1.00  0.00     0.041 A 
HETATM    6  C4  UNL     1      29.019   1.480  53.526  1.00  0.00     0.002 A 
HETATM    7  C5  UNL     1      28.800   0.128  53.577  1.00  0.00     0.001 A 
HETATM    8  C6  UNL     1      27.533  -0.403  53.683  1.00  0.00     0.013 A 
HETATM    9  C7  UNL     1      26.354   0.354  53.750  1.00  0.00     0.017 A 
HETATM   10  C8  UNL     1      25.279  -0.668  53.857  1.00  0.00     0.228 C 
HETATM   11  F1  UNL     1      25.383  -1.524  52.754  1.00  0.00    -0.240 F 
HETATM   12  C9  UNL     1      23.899  -0.114  53.741  1.00  0.00     0.011 C 
HETATM   13  C10 UNL     1      23.363   0.311  52.574  1.00  0.00    -0.026 C 
HETATM   14  C11 UNL     1      22.426   0.875  51.520  1.00  0.00     0.046 C 
HETATM   15  C12 UNL     1      23.154   2.099  50.892  1.00  0.00     0.125 C 
HETATM   16  N2  UNL     1      23.466   3.021  52.040  1.00  0.00    -0.348 N 
HETATM   17  H1  UNL     1      25.809   3.498  54.507  1.00  0.00     0.332 HD
ENDROOT
BRANCH  16  18
HETATM   18  C13 UNL     1      22.568   4.116  52.331  1.00  0.00     0.126 C 
BRANCH  18  19
HETATM   19  C14 UNL     1      22.568   5.185  51.262  1.00  0.00     0.055 C 
BRANCH  19  20
HETATM   20  C15 UNL     1      23.682   6.146  51.444  1.00  0.00    -0.054 A 
HETATM   21  O2  UNL     1      24.541   7.123  51.912  1.00  0.00     0.000 OA
HETATM   22  H17 UNL     1      24.227   7.905  52.475  1.00  0.00     0.000 HD
HETATM   23  C16 UNL     1      24.678   6.241  50.547  1.00  0.00     0.266 A 
HETATM   24 CL1  UNL     1      24.574   5.162  49.160  1.00  0.00    -0.250 Cl
ENDBRANCH  19  20
ENDBRANCH  18  19
ENDBRANCH  16  18
TORSDOF 3
ENDMDL
MODEL 2
REMARK VINA RESULT:      -7.9      3.275      6.143
REMARK  3 active torsions:
REMARK  status: ('A' for Active; 'I' for Inactive)
REMARK    1  A    between atoms: N2_16  and  C13_17 
REMARK    2  A    between atoms: C13_17  and  C14_18 
REMARK    3  A    between atoms: C14_18  and  C15_19 
ROOT
HETATM    1  O1  UNL     1      25.854   3.262  50.920  1.00  0.00    -0.120 OA
HETATM    2  C1  UNL     1      26.223   2.121  50.871  1.00  0.00     0.452 A 
HETATM    3  N1  UNL     1      26.522   3.019  49.763  1.00  0.00     0.142 N 
HETATM    4  C2  UNL     1      26.378   4.368  49.211  1.00  0.00     0.182 A 
HETATM    5  C3  UNL     1      27.587   4.900  48.918  1.00  0.00     0.041 A 
HETATM    6  C4  UNL     1      27.700   6.163  48.403  1.00  0.00     0.002 A 
HETATM    7  C5  UNL     1      26.523   6.838  48.209  1.00  0.00     0.001 A 
HETATM    8  C6  UNL     1      25.302   6.280  48.513  1.00  0.00     0.013 A 
HETATM    9  C7  UNL     1      25.123   4.993  49.042  1.00  0.00     0.017 A 
HETATM   10  C8  UNL     1      23.648   4.868  49.186  1.00  0.00     0.228 C 
HETATM   11  F1  UNL     1      23.200   5.919  49.996  1.00  0.00    -0.240 F 
HETATM   12  C9  UNL     1      23.209   3.648  49.923  1.00  0.00     0.011 C 
HETATM   13  C10 UNL     1      23.342   3.498  51.261  1.00  0.00    -0.026 C 
HETATM   14  C11 UNL     1      23.311   2.949  52.677  1.00  0.00     0.046 C 
HETATM   15  C12 UNL     1      24.787   2.927  53.173  1.00  0.00     0.125 C 
HETATM   16  N2  UNL     1      25.541   2.095  52.173  1.00  0.00    -0.348 N 
HETATM   17  H1  UNL     1      27.078   2.362  49.111  1.00  0.00     0.332 HD
ENDROOT
BRANCH  16  18
HETATM   18  C13 UNL     1      25.770   0.693  52.447  1.00  0.00     0.126 C 
BRANCH  18  19
HETATM   19  C14 UNL     1      27.232   0.310  52.401  1.00  0.00     0.055 C 
BRANCH  19  20
HETATM   20  C15 UNL     1      27.779   0.061  53.756  1.00  0.00    -0.054 A 
HETATM   21  O2  UNL     1      28.131  -0.489  54.975  1.00  0.00     0.000 OA
HETATM   22  H17 UNL     1      27.560  -1.178  55.451  1.00  0.00     0.000 HD
HETATM   23  C16 UNL     1      28.493   0.996  54.406  1.00  0.00     0.266 A 
HETATM   24 CL1  UNL     1      28.733   2.516  53.551  1.00  0.00    -0.250 Cl
ENDBRANCH  19  20
ENDBRANCH  18  19
ENDBRANCH  16  18
TORSDOF 3
ENDMDL
MODEL 3
REMARK VINA RESULT:      -7.6      1.986      2.694
REMARK  3 active torsions:
REMARK  status: ('A' for Active; 'I' for Inactive)
REMARK    1  A    between atoms: N2_16  and  C13_17 
REMARK    2  A    between atoms: C13_17  and  C14_18 
REMARK    3  A    between atoms: C14_18  and  C15_19 
ROOT
HETATM    1  O1  UNL     1      25.026   2.608  50.750  1.00  0.00    -0.120 OA
HETATM    2  C1  UNL     1      25.469   3.723  50.721  1.00  0.00     0.452 A 
HETATM    3  N1  UNL     1      25.971   2.779  51.711  1.00  0.00     0.142 N 
HETATM    4  C2  UNL     1      25.879   1.426  52.266  1.00  0.00     0.182 A 
HETATM    5  C3  UNL     1      27.086   0.816  52.248  1.00  0.00     0.041 A 
HETATM    6  C4  UNL     1      27.240  -0.465  52.704  1.00  0.00     0.002 A 
HETATM    7  C5  UNL     1      26.106  -1.075  53.173  1.00  0.00     0.001 A 
HETATM    8  C6  UNL     1      24.886  -0.437  53.183  1.00  0.00     0.013 A 
HETATM    9  C7  UNL     1      24.665   0.872  52.729  1.00  0.00     0.017 A 
HETATM   10  C8  UNL     1      23.211   1.088  52.951  1.00  0.00     0.228 C 
HETATM   11  F1  UNL     1      22.513   0.088  52.263  1.00  0.00    -0.240 F 
HETATM   12  C9  UNL     1      22.685   2.351  52.359  1.00  0.00     0.011 C 
HETATM   13  C10 UNL     1      22.497   2.529  51.030  1.00  0.00    -0.026 C 
HETATM   14  C11 UNL     1      22.158   3.118  49.672  1.00  0.00     0.046 C 
HETATM   15  C12 UNL     1      23.467   3.066  48.831  1.00  0.00     0.125 C 
HETATM   16  N2  UNL     1      24.494   3.825  49.626  1.00  0.00    -0.348 N 
HETATM   17  H1  UNL     1      26.709   3.384  52.215  1.00  0.00     0.332 HD
ENDROOT
BRANCH  16  18
HETATM   18  C13 UNL     1      24.738   5.217  49.321  1.00  0.00     0.126 C 
BRANCH  18  19
HETATM   19  C14 UNL     1      24.568   6.125  50.518  1.00  0.00     0.055 C 
BRANCH  19  20
HETATM   20  C15 UNL     1      25.518   7.262  50.486  1.00  0.00    -0.054 A 
HETATM   21  O2  UNL     1      26.627   8.081  50.600  1.00  0.00     0.000 OA
HETATM   22  H17 UNL     1      27.324   7.962  51.325  1.00  0.00     0.000 HD
HETATM   23  C16 UNL     1      25.156   8.465  50.008  1.00  0.00     0.266 A 
HETATM   24 CL1  UNL     1      23.498   8.598  49.431  1.00  0.00    -0.250 Cl
ENDBRANCH  19  20
ENDBRANCH  18  19
ENDBRANCH  16  18
TORSDOF 3
ENDMDL
MODEL 4
REMARK VINA RESULT:      -7.6      2.122      4.640
REMARK  3 active torsions:
REMARK  status: ('A' for Active; 'I' for Inactive)
REMARK    1  A    between atoms: N2_16  and  C13_17 
REMARK    2  A    between atoms: C13_17  and  C14_18 
REMARK    3  A    between atoms: C14_18  and  C15_19 
ROOT
HETATM    1  O1  UNL     1      22.852   1.699  51.920  1.00  0.00    -0.120 OA
HETATM    2  C1  UNL     1      23.283   1.948  50.828  1.00  0.00     0.452 A 
HETATM    3  N1  UNL     1      22.185   0.999  50.966  1.00  0.00     0.142 N 
HETATM    4  C2  UNL     1      21.288   0.295  51.885  1.00  0.00     0.182 A 
HETATM    5  C3  UNL     1      19.994   0.517  51.558  1.00  0.00     0.041 A 
HETATM    6  C4  UNL     1      18.974  -0.029  52.289  1.00  0.00     0.002 A 
HETATM    7  C5  UNL     1      19.349  -0.804  53.356  1.00  0.00     0.001 A 
HETATM    8  C6  UNL     1      20.672  -1.019  53.672  1.00  0.00     0.013 A 
HETATM    9  C7  UNL     1      21.759  -0.487  52.962  1.00  0.00     0.017 A 
HETATM   10  C8  UNL     1      22.948  -1.005  53.688  1.00  0.00     0.228 C 
HETATM   11  F1  UNL     1      22.850  -0.604  55.026  1.00  0.00    -0.240 F 
HETATM   12  C9  UNL     1      24.241  -0.413  53.241  1.00  0.00     0.011 C 
HETATM   13  C10 UNL     1      24.624   0.851  53.539  1.00  0.00    -0.026 C 
HETATM   14  C11 UNL     1      25.398   2.154  53.640  1.00  0.00     0.046 C 
HETATM   15  C12 UNL     1      24.484   3.257  53.032  1.00  0.00     0.125 C 
HETATM   16  N2  UNL     1      24.168   2.800  51.634  1.00  0.00    -0.348 N 
HETATM   17  H1  UNL     1      22.005   0.743  49.933  1.00  0.00     0.332 HD
ENDROOT
BRANCH  16  18
HETATM   18  C13 UNL     1      24.957   3.301  50.531  1.00  0.00     0.126 C 
BRANCH  18  19
HETATM   19  C14 UNL     1      24.339   4.507  49.858  1.00  0.00     0.055 C 
BRANCH  19  20
HETATM   20  C15 UNL     1      24.734   5.771  50.522  1.00  0.00    -0.054 A 
HETATM   21  O2  UNL     1      24.844   6.856  51.373  1.00  0.00     0.000 OA
HETATM   22  H17 UNL     1      24.059   7.224  51.897  1.00  0.00     0.000 HD
HETATM   23  C16 UNL     1      25.713   6.548  50.027  1.00  0.00     0.266 A 
HETATM   24 CL1  UNL     1      26.485   5.969  48.555  1.00  0.00    -0.250 Cl
ENDBRANCH  19  20
ENDBRANCH  18  19
ENDBRANCH  16  18
TORSDOF 3
ENDMDL
MODEL 5
REMARK VINA RESULT:      -7.4      2.650      3.297
REMARK  3 active torsions:
REMARK  status: ('A' for Active; 'I' for Inactive)
REMARK    1  A    between atoms: N2_16  and  C13_17 
REMARK    2  A    between atoms: C13_17  and  C14_18 
REMARK    3  A    between atoms: C14_18  and  C15_19 
ROOT
HETATM    1  O1  UNL     1      23.408   1.537  50.880  1.00  0.00    -0.120 OA
HETATM    2  C1  UNL     1      23.278   2.708  50.646  1.00  0.00     0.452 A 
HETATM    3  N1  UNL     1      24.363   2.266  51.514  1.00  0.00     0.142 N 
HETATM    4  C2  UNL     1      25.022   1.130  52.164  1.00  0.00     0.182 A 
HETATM    5  C3  UNL     1      26.335   1.087  51.841  1.00  0.00     0.041 A 
HETATM    6  C4  UNL     1      27.151   0.099  52.322  1.00  0.00     0.002 A 
HETATM    7  C5  UNL     1      26.554  -0.827  53.139  1.00  0.00     0.001 A 
HETATM    8  C6  UNL     1      25.216  -0.765  53.456  1.00  0.00     0.013 A 
HETATM    9  C7  UNL     1      24.331   0.221  52.995  1.00  0.00     0.017 A 
HETATM   10  C8  UNL     1      23.030  -0.150  53.612  1.00  0.00     0.228 C 
HETATM   11  F1  UNL     1      22.724  -1.460  53.225  1.00  0.00    -0.240 F 
HETATM   12  C9  UNL     1      21.870   0.642  53.110  1.00  0.00     0.011 C 
HETATM   13  C10 UNL     1      21.326   0.469  51.882  1.00  0.00    -0.026 C 
HETATM   14  C11 UNL     1      20.458   0.593  50.642  1.00  0.00     0.046 C 
HETATM   15  C12 UNL     1      21.419   0.930  49.465  1.00  0.00     0.125 C 
HETATM   16  N2  UNL     1      22.142   2.184  49.875  1.00  0.00    -0.348 N 
HETATM   17  H1  UNL     1      24.841   3.207  51.739  1.00  0.00     0.332 HD
ENDROOT
BRANCH  16  18
HETATM   18  C13 UNL     1      21.654   3.465  49.416  1.00  0.00     0.126 C 
BRANCH  18  19
HETATM   19  C14 UNL     1      21.320   4.412  50.547  1.00  0.00     0.055 C 
BRANCH  19  20
HETATM   20  C15 UNL     1      20.070   4.022  51.241  1.00  0.00    -0.054 A 
HETATM   21  O2  UNL     1      19.132   3.488  52.105  1.00  0.00     0.000 OA
HETATM   22  H17 UNL     1      19.274   2.612  52.596  1.00  0.00     0.000 HD
HETATM   23  C16 UNL     1      18.867   4.428  50.799  1.00  0.00     0.266 A 
HETATM   24 CL1  UNL     1      18.876   5.441  49.359  1.00  0.00    -0.250 Cl
ENDBRANCH  19  20
ENDBRANCH  18  19
ENDBRANCH  16  18
TORSDOF 3
ENDMDL
MODEL 6
REMARK VINA RESULT:      -7.3      1.902      2.373
REMARK  3 active torsions:
REMARK  status: ('A' for Active; 'I' for Inactive)
REMARK    1  A    between atoms: N2_16  and  C13_17 
REMARK    2  A    between atoms: C13_17  and  C14_18 
REMARK    3  A    between atoms: C14_18  and  C15_19 
ROOT
HETATM    1  O1  UNL     1      22.700   2.016  51.959  1.00  0.00    -0.120 OA
HETATM    2  C1  UNL     1      22.441   3.161  52.210  1.00  0.00     0.452 A 
HETATM    3  N1  UNL     1      23.719   2.606  52.636  1.00  0.00     0.142 N 
HETATM    4  C2  UNL     1      24.584   1.425  52.683  1.00  0.00     0.182 A 
HETATM    5  C3  UNL     1      25.792   1.692  52.135  1.00  0.00     0.041 A 
HETATM    6  C4  UNL     1      26.762   0.729  52.054  1.00  0.00     0.002 A 
HETATM    7  C5  UNL     1      26.429  -0.502  52.558  1.00  0.00     0.001 A 
HETATM    8  C6  UNL     1      25.193  -0.753  53.111  1.00  0.00     0.013 A 
HETATM    9  C7  UNL     1      24.161   0.190  53.222  1.00  0.00     0.017 A 
HETATM   10  C8  UNL     1      23.059  -0.561  53.878  1.00  0.00     0.228 C 
HETATM   11  F1  UNL     1      22.767  -1.682  53.091  1.00  0.00    -0.240 F 
HETATM   12  C9  UNL     1      21.764   0.177  53.929  1.00  0.00     0.011 C 
HETATM   13  C10 UNL     1      20.974   0.369  52.847  1.00  0.00    -0.026 C 
HETATM   14  C11 UNL     1      19.846   0.792  51.922  1.00  0.00     0.046 C 
HETATM   15  C12 UNL     1      20.495   1.660  50.805  1.00  0.00     0.125 C 
HETATM   16  N2  UNL     1      21.201   2.781  51.517  1.00  0.00    -0.348 N 
HETATM   17  H1  UNL     1      24.168   3.467  53.109  1.00  0.00     0.332 HD
ENDROOT
BRANCH  16  18
HETATM   18  C13 UNL     1      20.535   4.055  51.669  1.00  0.00     0.126 C 
BRANCH  18  19
HETATM   19  C14 UNL     1      20.664   4.942  50.452  1.00  0.00     0.055 C 
BRANCH  19  20
HETATM   20  C15 UNL     1      21.404   6.190  50.756  1.00  0.00    -0.054 A 
HETATM   21  O2  UNL     1      21.794   7.434  51.218  1.00  0.00     0.000 OA
HETATM   22  H17 UNL     1      21.136   8.185  51.391  1.00  0.00     0.000 HD
HETATM   23  C16 UNL     1      22.649   6.397  50.293  1.00  0.00     0.266 A 
HETATM   24 CL1  UNL     1      23.333   5.104  49.315  1.00  0.00    -0.250 Cl
ENDBRANCH  19  20
ENDBRANCH  18  19
ENDBRANCH  16  18
TORSDOF 3
ENDMDL
MODEL 7
REMARK VINA RESULT:      -7.2      3.959      4.648
REMARK  3 active torsions:
REMARK  status: ('A' for Active; 'I' for Inactive)
REMARK    1  A    between atoms: N2_16  and  C13_17 
REMARK    2  A    between atoms: C13_17  and  C14_18 
REMARK    3  A    between atoms: C14_18  and  C15_19 
ROOT
HETATM    1  O1  UNL     1      21.997   1.626  52.050  1.00  0.00    -0.120 OA
HETATM    2  C1  UNL     1      21.659   2.772  52.167  1.00  0.00     0.452 A 
HETATM    3  N1  UNL     1      22.999   2.375  52.581  1.00  0.00     0.142 N 
HETATM    4  C2  UNL     1      23.957   1.277  52.725  1.00  0.00     0.182 A 
HETATM    5  C3  UNL     1      25.110   1.556  52.075  1.00  0.00     0.041 A 
HETATM    6  C4  UNL     1      26.149   0.665  52.058  1.00  0.00     0.002 A 
HETATM    7  C5  UNL     1      25.943  -0.509  52.735  1.00  0.00     0.001 A 
HETATM    8  C6  UNL     1      24.762  -0.775  53.392  1.00  0.00     0.013 A 
HETATM    9  C7  UNL     1      23.664   0.097  53.444  1.00  0.00     0.017 A 
HETATM   10  C8  UNL     1      22.661  -0.640  54.258  1.00  0.00     0.228 C 
HETATM   11  F1  UNL     1      22.421  -1.873  53.640  1.00  0.00    -0.240 F 
HETATM   12  C9  UNL     1      21.315   0.001  54.293  1.00  0.00     0.011 C 
HETATM   13  C10 UNL     1      20.458  -0.011  53.246  1.00  0.00    -0.026 C 
HETATM   14  C11 UNL     1      19.253   0.202  52.347  1.00  0.00     0.046 C 
HETATM   15  C12 UNL     1      19.771   0.959  51.089  1.00  0.00     0.125 C 
HETATM   16  N2  UNL     1      20.420   2.214  51.606  1.00  0.00    -0.348 N 
HETATM   17  H1  UNL     1      23.400   3.321  52.910  1.00  0.00     0.332 HD
ENDROOT
BRANCH  16  18
HETATM   18  C13 UNL     1      19.661   3.444  51.635  1.00  0.00     0.126 C 
BRANCH  18  19
HETATM   19  C14 UNL     1      18.371   3.364  50.850  1.00  0.00     0.055 C 
BRANCH  19  20
HETATM   20  C15 UNL     1      17.197   3.715  51.684  1.00  0.00    -0.054 A 
HETATM   21  O2  UNL     1      16.302   4.329  52.541  1.00  0.00     0.000 OA
HETATM   22  H17 UNL     1      16.597   4.915  53.314  1.00  0.00     0.000 HD
HETATM   23  C16 UNL     1      16.112   2.923  51.736  1.00  0.00     0.266 A 
HETATM   24 CL1  UNL     1      16.178   1.459  50.761  1.00  0.00    -0.250 Cl
ENDBRANCH  19  20
ENDBRANCH  18  19
ENDBRANCH  16  18
TORSDOF 3
ENDMDL
MODEL 8
REMARK VINA RESULT:      -7.2      3.223      4.068
REMARK  3 active torsions:
REMARK  status: ('A' for Active; 'I' for Inactive)
REMARK    1  A    between atoms: N2_16  and  C13_17 
REMARK    2  A    between atoms: C13_17  and  C14_18 
REMARK    3  A    between atoms: C14_18  and  C15_19 
ROOT
HETATM    1  O1  UNL     1      21.722   1.191  52.039  1.00  0.00    -0.120 OA
HETATM    2  C1  UNL     1      21.369   2.333  51.932  1.00  0.00     0.452 A 
HETATM    3  N1  UNL     1      22.698   2.040  52.453  1.00  0.00     0.142 N 
HETATM    4  C2  UNL     1      23.662   1.003  52.826  1.00  0.00     0.182 A 
HETATM    5  C3  UNL     1      24.833   1.176  52.171  1.00  0.00     0.041 A 
HETATM    6  C4  UNL     1      25.880   0.314  52.351  1.00  0.00     0.002 A 
HETATM    7  C5  UNL     1      25.664  -0.719  53.226  1.00  0.00     0.001 A 
HETATM    8  C6  UNL     1      24.465  -0.878  53.884  1.00  0.00     0.013 A 
HETATM    9  C7  UNL     1      23.357  -0.029  53.741  1.00  0.00     0.017 A 
HETATM   10  C8  UNL     1      22.336  -0.619  54.646  1.00  0.00     0.228 C 
HETATM   11  F1  UNL     1      22.128  -1.949  54.260  1.00  0.00    -0.240 F 
HETATM   12  C9  UNL     1      20.983  -0.004  54.522  1.00  0.00     0.011 C 
HETATM   13  C10 UNL     1      20.160  -0.222  53.469  1.00  0.00    -0.026 C 
HETATM   14  C11 UNL     1      18.984  -0.197  52.510  1.00  0.00     0.046 C 
HETATM   15  C12 UNL     1      19.535   0.323  51.150  1.00  0.00     0.125 C 
HETATM   16  N2  UNL     1      20.155   1.662  51.447  1.00  0.00    -0.348 N 
HETATM   17  H1  UNL     1      23.079   3.037  52.614  1.00  0.00     0.332 HD
ENDROOT
BRANCH  16  18
HETATM   18  C13 UNL     1      19.383   2.864  51.225  1.00  0.00     0.126 C 
BRANCH  18  19
HETATM   19  C14 UNL     1      19.888   3.687  50.060  1.00  0.00     0.055 C 
BRANCH  19  20
HETATM   20  C15 UNL     1      19.542   3.069  48.758  1.00  0.00    -0.054 A 
HETATM   21  O2  UNL     1      18.885   2.570  47.648  1.00  0.00     0.000 OA
HETATM   22  H17 UNL     1      17.947   2.189  47.691  1.00  0.00     0.000 HD
HETATM   23  C16 UNL     1      20.491   2.590  47.936  1.00  0.00     0.266 A 
HETATM   24 CL1  UNL     1      22.151   2.743  48.501  1.00  0.00    -0.250 Cl
ENDBRANCH  19  20
ENDBRANCH  18  19
ENDBRANCH  16  18
TORSDOF 3
ENDMDL
MODEL 9
REMARK VINA RESULT:      -7.1      3.383      4.700
REMARK  3 active torsions:
REMARK  status: ('A' for Active; 'I' for Inactive)
REMARK    1  A    between atoms: N2_16  and  C13_17 
REMARK    2  A    between atoms: C13_17  and  C14_18 
REMARK    3  A    between atoms: C14_18  and  C15_19 
ROOT
HETATM    1  O1  UNL     1      21.310   1.064  52.840  1.00  0.00    -0.120 OA
HETATM    2  C1  UNL     1      20.371   0.655  52.213  1.00  0.00     0.452 A 
HETATM    3  N1  UNL     1      21.307  -0.294  52.803  1.00  0.00     0.142 N 
HETATM    4  C2  UNL     1      22.534  -0.476  53.582  1.00  0.00     0.182 A 
HETATM    5  C3  UNL     1      22.306  -1.255  54.665  1.00  0.00     0.041 A 
HETATM    6  C4  UNL     1      23.307  -1.549  55.550  1.00  0.00     0.002 A 
HETATM    7  C5  UNL     1      24.535  -1.009  55.268  1.00  0.00     0.001 A 
HETATM    8  C6  UNL     1      24.748  -0.219  54.160  1.00  0.00     0.013 A 
HETATM    9  C7  UNL     1      23.763   0.117  53.219  1.00  0.00     0.017 A 
HETATM   10  C8  UNL     1      24.485   0.969  52.237  1.00  0.00     0.228 C 
HETATM   11  F1  UNL     1      25.048   2.048  52.929  1.00  0.00    -0.240 F 
HETATM   12  C9  UNL     1      23.599   1.623  51.232  1.00  0.00     0.011 C 
HETATM   13  C10 UNL     1      22.786   2.666  51.523  1.00  0.00    -0.026 C 
HETATM   14  C11 UNL     1      21.773   3.793  51.432  1.00  0.00     0.046 C 
HETATM   15  C12 UNL     1      20.651   3.461  52.459  1.00  0.00     0.125 C 
HETATM   16  N2  UNL     1      20.138   2.099  52.076  1.00  0.00    -0.348 N 
HETATM   17  H1  UNL     1      20.861  -1.232  52.509  1.00  0.00     0.332 HD
ENDROOT
BRANCH  16  18
HETATM   18  C13 UNL     1      18.960   1.995  51.245  1.00  0.00     0.126 C 
BRANCH  18  19
HETATM   19  C14 UNL     1      19.247   1.412  49.879  1.00  0.00     0.055 C 
BRANCH  19  20
HETATM   20  C15 UNL     1      19.442   2.469  48.859  1.00  0.00    -0.054 A 
HETATM   21  O2  UNL     1      19.310   3.571  48.034  1.00  0.00     0.000 OA
HETATM   22  H17 UNL     1      18.409   3.931  47.740  1.00  0.00     0.000 HD
HETATM   23  C16 UNL     1      20.532   2.491  48.073  1.00  0.00     0.266 A 
HETATM   24 CL1  UNL     1      21.697   1.197  48.332  1.00  0.00    -0.250 Cl
ENDBRANCH  19  20
ENDBRANCH  18  19
ENDBRANCH  16  18
TORSDOF 3
ENDMDL
