MODEL 1
REMARK VINA RESULT:      -7.9      0.000      0.000
REMARK  6 active torsions:
REMARK  status: ('A' for Active; 'I' for Inactive)
REMARK    1  A    between atoms: O1_2  and  C2_3 
REMARK    2  A    between atoms: C6_7  and  N1_8 
REMARK    3  A    between atoms: N1_8  and  C7_9 
REMARK    4  A    between atoms: C16_21  and  N4_22 
REMARK       I    between atoms: N4_22  and  C17_23 
REMARK    5  A    between atoms: C17_23  and  C18_25 
REMARK    6  A    between atoms: C19_26  and  N5_27 
ROOT
HETATM    1  C2  UNL     1      23.550   0.088  53.205  1.00  0.00     0.117 C 
HETATM    2  C3  UNL     1      24.759   0.641  53.110  1.00  0.00     0.046 C 
HETATM    3  C4  UNL     1      24.752   2.209  53.355  1.00  0.00     0.100 C 
HETATM    4  C5  UNL     1      24.459   2.139  51.821  1.00  0.00    -0.025 C 
HETATM    5  C6  UNL     1      25.580   2.091  51.120  1.00  0.00     0.053 C 
HETATM    6  C13 UNL     1      26.734   1.325  51.785  1.00  0.00     0.240 C 
HETATM    7  C14 UNL     1      27.656   2.144  52.461  1.00  0.00     0.091 C 
HETATM    8  N2  UNL     1      28.414   2.805  52.992  1.00  0.00    -0.195 NA
HETATM    9  N3  UNL     1      26.072   0.291  52.654  1.00  0.00    -0.369 N 
HETATM   10  C15 UNL     1      23.027   1.917  51.591  1.00  0.00     0.042 C 
HETATM   11  C16 UNL     1      22.551   0.842  52.328  1.00  0.00     0.071 C 
HETATM   12  H12 UNL     1      26.120  -0.688  53.118  1.00  0.00     0.161 HD
ENDROOT
BRANCH   5  13
HETATM   13  N1  UNL     1      25.142   2.811  49.930  1.00  0.00    -0.357 N 
HETATM   14  H6  UNL     1      24.331   2.464  49.401  1.00  0.00     0.166 HD
BRANCH  13  15
HETATM   15  C7  UNL     1      25.877   3.968  49.558  1.00  0.00     0.033 A 
HETATM   16  C8  UNL     1      27.128   3.955  48.977  1.00  0.00     0.029 A 
HETATM   17  C9  UNL     1      27.760   5.139  48.660  1.00  0.00     0.004 A 
HETATM   18  C10 UNL     1      27.131   6.321  48.929  1.00  0.00     0.019 A 
HETATM   19  C11 UNL     1      25.894   6.372  49.502  1.00  0.00     0.013 A 
HETATM   20 BR1  UNL     1      24.990   8.018  49.893  1.00  0.00    -0.051 Br
HETATM   21  C12 UNL     1      25.244   5.186  49.828  1.00  0.00     0.048 A 
ENDBRANCH  13  15
ENDBRANCH   5  13
BRANCH   1  22
HETATM   22  O1  UNL     1      23.685  -0.957  54.051  1.00  0.00    -0.352 OA
HETATM   23  C1  UNL     1      22.715  -1.240  55.027  1.00  0.00     0.210 C 
ENDBRANCH   1  22
BRANCH  11  24
HETATM   24  N4  UNL     1      21.253   0.398  52.319  1.00  0.00    -0.321 N 
HETATM   25  C17 UNL     1      20.041   1.017  52.644  1.00  0.00     0.247 C 
HETATM   26  O2  UNL     1      20.083   2.211  53.026  1.00  0.00    -0.268 OA
HETATM   27  H14 UNL     1      21.237  -0.595  51.999  1.00  0.00     0.169 HD
BRANCH  25  28
HETATM   28  C18 UNL     1      18.786   0.302  52.545  1.00  0.00     0.091 C 
HETATM   29  C19 UNL     1      18.623  -0.914  53.036  1.00  0.00     0.090 C 
BRANCH  29  30
HETATM   30  N5  UNL     1      17.374  -1.585  52.919  1.00  0.00    -0.398 N 
HETATM   31  C20 UNL     1      16.308  -0.857  52.266  1.00  0.00     0.148 C 
HETATM   32  C21 UNL     1      17.251  -2.946  53.461  1.00  0.00     0.148 C 
ENDBRANCH  29  30
ENDBRANCH  25  28
ENDBRANCH  11  24
TORSDOF 6
ENDMDL
MODEL 2
REMARK VINA RESULT:      -7.9      4.059      6.990
REMARK  6 active torsions:
REMARK  status: ('A' for Active; 'I' for Inactive)
REMARK    1  A    between atoms: O1_2  and  C2_3 
REMARK    2  A    between atoms: C6_7  and  N1_8 
REMARK    3  A    between atoms: N1_8  and  C7_9 
REMARK    4  A    between atoms: C16_21  and  N4_22 
REMARK       I    between atoms: N4_22  and  C17_23 
REMARK    5  A    between atoms: C17_23  and  C18_25 
REMARK    6  A    between atoms: C19_26  and  N5_27 
ROOT
HETATM    1  C2  UNL     1      25.479   6.032  50.338  1.00  0.00     0.117 C 
HETATM    2  C3  UNL     1      26.082   7.004  49.654  1.00  0.00     0.046 C 
HETATM    3  C4  UNL     1      25.998   6.809  48.081  1.00  0.00     0.100 C 
HETATM    4  C5  UNL     1      27.288   5.994  48.421  1.00  0.00    -0.025 C 
HETATM    5  C6  UNL     1      28.359   6.773  48.431  1.00  0.00     0.053 C 
HETATM    6  C13 UNL     1      28.120   8.205  48.931  1.00  0.00     0.240 C 
HETATM    7  C14 UNL     1      27.929   9.149  47.905  1.00  0.00     0.091 C 
HETATM    8  N2  UNL     1      27.794   9.919  47.079  1.00  0.00    -0.195 NA
HETATM    9  N3  UNL     1      26.972   8.101  49.896  1.00  0.00    -0.369 N 
HETATM   10  C15 UNL     1      26.929   4.641  48.860  1.00  0.00     0.042 C 
HETATM   11  C16 UNL     1      25.969   4.665  49.862  1.00  0.00     0.071 C 
HETATM   12  H12 UNL     1      26.474   8.487  50.779  1.00  0.00     0.161 HD
ENDROOT
BRANCH   5  13
HETATM   13  N1  UNL     1      29.349   5.810  47.963  1.00  0.00    -0.357 N 
HETATM   14  H6  UNL     1      29.038   4.970  47.458  1.00  0.00     0.166 HD
BRANCH  13  15
HETATM   15  C7  UNL     1      30.713   6.088  48.245  1.00  0.00     0.033 A 
HETATM   16  C8  UNL     1      31.181   7.256  48.809  1.00  0.00     0.029 A 
HETATM   17  C9  UNL     1      32.531   7.427  49.036  1.00  0.00     0.004 A 
HETATM   18  C10 UNL     1      33.395   6.426  48.694  1.00  0.00     0.019 A 
HETATM   19  C11 UNL     1      32.968   5.257  48.134  1.00  0.00     0.013 A 
HETATM   20 BR1  UNL     1      34.161   3.838  47.643  1.00  0.00    -0.051 Br
HETATM   21  C12 UNL     1      31.610   5.070  47.900  1.00  0.00     0.048 A 
ENDBRANCH  13  15
ENDBRANCH   5  13
BRANCH   1  22
HETATM   22  O1  UNL     1      24.656   6.649  51.215  1.00  0.00    -0.352 OA
HETATM   23  C1  UNL     1      23.501   7.323  50.788  1.00  0.00     0.210 C 
ENDBRANCH   1  22
BRANCH  11  24
HETATM   24  N4  UNL     1      25.438   3.555  50.466  1.00  0.00    -0.321 N 
HETATM   25  C17 UNL     1      25.999   2.560  51.275  1.00  0.00     0.247 C 
HETATM   26  O2  UNL     1      27.223   2.645  51.534  1.00  0.00    -0.268 OA
HETATM   27  H14 UNL     1      24.420   3.500  50.240  1.00  0.00     0.169 HD
BRANCH  25  28
HETATM   28  C18 UNL     1      25.194   1.474  51.791  1.00  0.00     0.091 C 
HETATM   29  C19 UNL     1      23.896   1.596  52.012  1.00  0.00     0.090 C 
BRANCH  29  30
HETATM   30  N5  UNL     1      23.137   0.506  52.519  1.00  0.00    -0.398 N 
HETATM   31  C20 UNL     1      23.791  -0.336  53.498  1.00  0.00     0.148 C 
HETATM   32  C21 UNL     1      21.766   0.309  52.025  1.00  0.00     0.148 C 
ENDBRANCH  29  30
ENDBRANCH  25  28
ENDBRANCH  11  24
TORSDOF 6
ENDMDL
MODEL 3
REMARK VINA RESULT:      -7.9      3.120      8.070
REMARK  6 active torsions:
REMARK  status: ('A' for Active; 'I' for Inactive)
REMARK    1  A    between atoms: O1_2  and  C2_3 
REMARK    2  A    between atoms: C6_7  and  N1_8 
REMARK    3  A    between atoms: N1_8  and  C7_9 
REMARK    4  A    between atoms: C16_21  and  N4_22 
REMARK       I    between atoms: N4_22  and  C17_23 
REMARK    5  A    between atoms: C17_23  and  C18_25 
REMARK    6  A    between atoms: C19_26  and  N5_27 
ROOT
HETATM    1  C2  UNL     1      22.982   2.757  50.021  1.00  0.00     0.117 C 
HETATM    2  C3  UNL     1      22.269   1.944  50.800  1.00  0.00     0.046 C 
HETATM    3  C4  UNL     1      21.787   2.631  52.147  1.00  0.00     0.100 C 
HETATM    4  C5  UNL     1      23.197   2.098  52.564  1.00  0.00    -0.025 C 
HETATM    5  C6  UNL     1      23.129   0.846  52.988  1.00  0.00     0.053 C 
HETATM    6  C13 UNL     1      22.082  -0.028  52.282  1.00  0.00     0.240 C 
HETATM    7  C14 UNL     1      20.865  -0.143  52.977  1.00  0.00     0.091 C 
HETATM    8  N2  UNL     1      19.886  -0.255  53.546  1.00  0.00    -0.195 NA
HETATM    9  N3  UNL     1      21.952   0.551  50.900  1.00  0.00    -0.369 N 
HETATM   10  C15 UNL     1      24.236   3.050  52.158  1.00  0.00     0.042 C 
HETATM   11  C16 UNL     1      24.114   3.402  50.821  1.00  0.00     0.071 C 
HETATM   12  H12 UNL     1      21.734   0.386  49.850  1.00  0.00     0.161 HD
ENDROOT
BRANCH   5  13
HETATM   13  N1  UNL     1      24.199   0.879  53.978  1.00  0.00    -0.357 N 
HETATM   14  H6  UNL     1      24.039   1.348  54.880  1.00  0.00     0.166 HD
BRANCH  13  15
HETATM   15  C7  UNL     1      25.429   0.257  53.632  1.00  0.00     0.033 A 
HETATM   16  C8  UNL     1      25.545  -0.936  52.951  1.00  0.00     0.029 A 
HETATM   17  C9  UNL     1      26.791  -1.458  52.670  1.00  0.00     0.004 A 
HETATM   18  C10 UNL     1      27.904  -0.778  53.075  1.00  0.00     0.019 A 
HETATM   19  C11 UNL     1      27.827   0.405  53.750  1.00  0.00     0.013 A 
HETATM   20 BR1  UNL     1      29.373   1.379  54.333  1.00  0.00    -0.051 Br
HETATM   21  C12 UNL     1      26.578   0.944  54.041  1.00  0.00     0.048 A 
ENDBRANCH  13  15
ENDBRANCH   5  13
BRANCH   1  22
HETATM   22  O1  UNL     1      22.421   2.685  48.794  1.00  0.00    -0.352 OA
HETATM   23  C1  UNL     1      21.218   3.347  48.498  1.00  0.00     0.210 C 
ENDBRANCH   1  22
BRANCH  11  24
HETATM   24  N4  UNL     1      24.941   4.274  50.161  1.00  0.00    -0.321 N 
HETATM   25  C17 UNL     1      26.206   4.122  49.582  1.00  0.00     0.247 C 
HETATM   26  O2  UNL     1      26.741   2.989  49.647  1.00  0.00    -0.268 OA
HETATM   27  H14 UNL     1      24.480   5.210  50.115  1.00  0.00     0.169 HD
BRANCH  25  28
HETATM   28  C18 UNL     1      26.871   5.232  48.934  1.00  0.00     0.091 C 
HETATM   29  C19 UNL     1      28.129   5.169  48.535  1.00  0.00     0.090 C 
BRANCH  29  30
HETATM   30  N5  UNL     1      28.749   6.281  47.901  1.00  0.00    -0.398 N 
HETATM   31  C20 UNL     1      30.183   6.204  47.717  1.00  0.00     0.148 C 
HETATM   32  C21 UNL     1      27.910   7.414  47.483  1.00  0.00     0.148 C 
ENDBRANCH  29  30
ENDBRANCH  25  28
ENDBRANCH  11  24
TORSDOF 6
ENDMDL
MODEL 4
REMARK VINA RESULT:      -7.8      4.161      9.283
REMARK  6 active torsions:
REMARK  status: ('A' for Active; 'I' for Inactive)
REMARK    1  A    between atoms: O1_2  and  C2_3 
REMARK    2  A    between atoms: C6_7  and  N1_8 
REMARK    3  A    between atoms: N1_8  and  C7_9 
REMARK    4  A    between atoms: C16_21  and  N4_22 
REMARK       I    between atoms: N4_22  and  C17_23 
REMARK    5  A    between atoms: C17_23  and  C18_25 
REMARK    6  A    between atoms: C19_26  and  N5_27 
ROOT
HETATM    1  C2  UNL     1      23.710   6.752  50.639  1.00  0.00     0.117 C 
HETATM    2  C3  UNL     1      22.741   5.932  51.043  1.00  0.00     0.046 C 
HETATM    3  C4  UNL     1      23.107   5.131  52.364  1.00  0.00     0.100 C 
HETATM    4  C5  UNL     1      23.697   4.190  51.262  1.00  0.00    -0.025 C 
HETATM    5  C6  UNL     1      22.782   3.347  50.811  1.00  0.00     0.053 C 
HETATM    6  C13 UNL     1      21.352   3.905  50.754  1.00  0.00     0.240 C 
HETATM    7  C14 UNL     1      20.555   3.560  51.860  1.00  0.00     0.091 C 
HETATM    8  N2  UNL     1      19.901   3.267  52.744  1.00  0.00    -0.195 NA
HETATM    9  N3  UNL     1      21.513   5.385  50.545  1.00  0.00    -0.369 N 
HETATM   10  C15 UNL     1      25.034   4.650  50.870  1.00  0.00     0.042 C 
HETATM   11  C16 UNL     1      25.039   6.001  50.552  1.00  0.00     0.071 C 
HETATM   12  H12 UNL     1      21.110   6.306  50.139  1.00  0.00     0.161 HD
ENDROOT
BRANCH   5  13
HETATM   13  N1  UNL     1      23.643   2.208  50.516  1.00  0.00    -0.357 N 
HETATM   14  H6  UNL     1      23.959   2.049  49.550  1.00  0.00     0.166 HD
BRANCH  13  15
HETATM   15  C7  UNL     1      23.997   1.359  51.599  1.00  0.00     0.033 A 
HETATM   16  C8  UNL     1      25.288   1.047  51.968  1.00  0.00     0.029 A 
HETATM   17  C9  UNL     1      25.523   0.204  53.035  1.00  0.00     0.004 A 
HETATM   18  C10 UNL     1      24.460  -0.313  53.719  1.00  0.00     0.019 A 
HETATM   19  C11 UNL     1      23.169  -0.025  53.384  1.00  0.00     0.013 A 
HETATM   20 BR1  UNL     1      21.660  -0.741  54.327  1.00  0.00    -0.051 Br
HETATM   21  C12 UNL     1      22.917   0.822  52.310  1.00  0.00     0.048 A 
ENDBRANCH  13  15
ENDBRANCH   5  13
BRANCH   1  22
HETATM   22  O1  UNL     1      23.125   7.955  50.447  1.00  0.00    -0.352 OA
HETATM   23  C1  UNL     1      22.963   8.494  49.160  1.00  0.00     0.210 C 
ENDBRANCH   1  22
BRANCH  11  24
HETATM   24  N4  UNL     1      26.143   6.709  50.153  1.00  0.00    -0.321 N 
HETATM   25  C17 UNL     1      26.575   7.160  48.900  1.00  0.00     0.247 C 
HETATM   26  O2  UNL     1      25.852   6.897  47.909  1.00  0.00    -0.268 OA
HETATM   27  H14 UNL     1      26.731   6.920  50.989  1.00  0.00     0.169 HD
BRANCH  25  28
HETATM   28  C18 UNL     1      27.808   7.902  48.757  1.00  0.00     0.091 C 
HETATM   29  C19 UNL     1      28.008   9.067  49.350  1.00  0.00     0.090 C 
BRANCH  29  30
HETATM   30  N5  UNL     1      29.234   9.768  49.186  1.00  0.00    -0.398 N 
HETATM   31  C20 UNL     1      29.136  11.174  48.858  1.00  0.00     0.148 C 
HETATM   32  C21 UNL     1      30.496   9.032  49.356  1.00  0.00     0.148 C 
ENDBRANCH  29  30
ENDBRANCH  25  28
ENDBRANCH  11  24
TORSDOF 6
ENDMDL
MODEL 5
REMARK VINA RESULT:      -7.7      4.853      7.900
REMARK  6 active torsions:
REMARK  status: ('A' for Active; 'I' for Inactive)
REMARK    1  A    between atoms: O1_2  and  C2_3 
REMARK    2  A    between atoms: C6_7  and  N1_8 
REMARK    3  A    between atoms: N1_8  and  C7_9 
REMARK    4  A    between atoms: C16_21  and  N4_22 
REMARK       I    between atoms: N4_22  and  C17_23 
REMARK    5  A    between atoms: C17_23  and  C18_25 
REMARK    6  A    between atoms: C19_26  and  N5_27 
ROOT
HETATM    1  C2  UNL     1      26.553   6.947  49.383  1.00  0.00     0.117 C 
HETATM    2  C3  UNL     1      27.581   7.630  48.879  1.00  0.00     0.046 C 
HETATM    3  C4  UNL     1      27.859   7.307  47.350  1.00  0.00     0.100 C 
HETATM    4  C5  UNL     1      28.703   6.195  48.056  1.00  0.00    -0.025 C 
HETATM    5  C6  UNL     1      29.917   6.631  48.352  1.00  0.00     0.053 C 
HETATM    6  C13 UNL     1      30.002   8.116  48.738  1.00  0.00     0.240 C 
HETATM    7  C14 UNL     1      30.384   8.964  47.683  1.00  0.00     0.091 C 
HETATM    8  N2  UNL     1      30.711   9.651  46.837  1.00  0.00    -0.195 NA
HETATM    9  N3  UNL     1      28.665   8.444  49.342  1.00  0.00    -0.369 N 
HETATM   10  C15 UNL     1      27.848   5.055  48.400  1.00  0.00     0.042 C 
HETATM   11  C16 UNL     1      26.713   5.455  49.090  1.00  0.00     0.071 C 
HETATM   12  H12 UNL     1      28.094   9.045  50.041  1.00  0.00     0.161 HD
ENDROOT
BRANCH   5  13
HETATM   13  N1  UNL     1      30.655   5.383  48.200  1.00  0.00    -0.357 N 
HETATM   14  H6  UNL     1      30.145   4.489  48.219  1.00  0.00     0.166 HD
BRANCH  13  15
HETATM   15  C7  UNL     1      32.064   5.471  48.040  1.00  0.00     0.033 A 
HETATM   16  C8  UNL     1      32.935   5.974  48.984  1.00  0.00     0.029 A 
HETATM   17  C9  UNL     1      34.289   6.021  48.724  1.00  0.00     0.004 A 
HETATM   18  C10 UNL     1      34.753   5.564  47.524  1.00  0.00     0.019 A 
HETATM   19  C11 UNL     1      33.920   5.060  46.568  1.00  0.00     0.013 A 
HETATM   20 BR1  UNL     1      34.545   4.414  44.873  1.00  0.00    -0.051 Br
HETATM   21  C12 UNL     1      32.553   5.006  46.815  1.00  0.00     0.048 A 
ENDBRANCH  13  15
ENDBRANCH   5  13
BRANCH   1  22
HETATM   22  O1  UNL     1      25.757   7.860  49.982  1.00  0.00    -0.352 OA
HETATM   23  C1  UNL     1      24.925   8.710  49.234  1.00  0.00     0.210 C 
ENDBRANCH   1  22
BRANCH  11  24
HETATM   24  N4  UNL     1      25.730   4.611  49.541  1.00  0.00    -0.321 N 
HETATM   25  C17 UNL     1      25.764   3.460  50.336  1.00  0.00     0.247 C 
HETATM   26  O2  UNL     1      26.884   3.074  50.749  1.00  0.00    -0.268 OA
HETATM   27  H14 UNL     1      24.807   4.948  49.189  1.00  0.00     0.169 HD
BRANCH  25  28
HETATM   28  C18 UNL     1      24.552   2.744  50.668  1.00  0.00     0.091 C 
HETATM   29  C19 UNL     1      24.506   1.835  51.626  1.00  0.00     0.090 C 
BRANCH  29  30
HETATM   30  N5  UNL     1      23.295   1.151  51.925  1.00  0.00    -0.398 N 
HETATM   31  C20 UNL     1      22.238   1.249  50.941  1.00  0.00     0.148 C 
HETATM   32  C21 UNL     1      23.198   0.406  53.189  1.00  0.00     0.148 C 
ENDBRANCH  29  30
ENDBRANCH  25  28
ENDBRANCH  11  24
TORSDOF 6
ENDMDL
MODEL 6
REMARK VINA RESULT:      -7.6      4.001      9.254
REMARK  6 active torsions:
REMARK  status: ('A' for Active; 'I' for Inactive)
REMARK    1  A    between atoms: O1_2  and  C2_3 
REMARK    2  A    between atoms: C6_7  and  N1_8 
REMARK    3  A    between atoms: N1_8  and  C7_9 
REMARK    4  A    between atoms: C16_21  and  N4_22 
REMARK       I    between atoms: N4_22  and  C17_23 
REMARK    5  A    between atoms: C17_23  and  C18_25 
REMARK    6  A    between atoms: C19_26  and  N5_27 
ROOT
HETATM    1  C2  UNL     1      23.946   6.060  49.891  1.00  0.00     0.117 C 
HETATM    2  C3  UNL     1      22.972   5.377  50.491  1.00  0.00     0.046 C 
HETATM    3  C4  UNL     1      23.355   4.893  51.954  1.00  0.00     0.100 C 
HETATM    4  C5  UNL     1      23.904   3.712  51.089  1.00  0.00    -0.025 C 
HETATM    5  C6  UNL     1      22.964   2.808  50.861  1.00  0.00     0.053 C 
HETATM    6  C13 UNL     1      21.543   3.368  50.703  1.00  0.00     0.240 C 
HETATM    7  C14 UNL     1      20.765   3.305  51.874  1.00  0.00     0.091 C 
HETATM    8  N2  UNL     1      20.127   3.237  52.813  1.00  0.00    -0.195 NA
HETATM    9  N3  UNL     1      21.724   4.757  50.156  1.00  0.00    -0.369 N 
HETATM   10  C15 UNL     1      25.239   4.040  50.577  1.00  0.00     0.042 C 
HETATM   11  C16 UNL     1      25.259   5.280  49.956  1.00  0.00     0.071 C 
HETATM   12  H12 UNL     1      21.327   5.568  49.556  1.00  0.00     0.161 HD
ENDROOT
BRANCH   5  13
HETATM   13  N1  UNL     1      23.798   1.612  50.822  1.00  0.00    -0.357 N 
HETATM   14  H6  UNL     1      24.251   1.341  49.939  1.00  0.00     0.166 HD
BRANCH  13  15
HETATM   15  C7  UNL     1      23.935   0.872  52.026  1.00  0.00     0.033 A 
HETATM   16  C8  UNL     1      25.117   0.697  52.716  1.00  0.00     0.029 A 
HETATM   17  C9  UNL     1      25.142  -0.049  53.876  1.00  0.00     0.004 A 
HETATM   18  C10 UNL     1      23.982  -0.610  54.330  1.00  0.00     0.019 A 
HETATM   19  C11 UNL     1      22.795  -0.458  53.675  1.00  0.00     0.013 A 
HETATM   20 BR1  UNL     1      21.154  -1.237  54.291  1.00  0.00    -0.051 Br
HETATM   21  C12 UNL     1      22.755   0.291  52.504  1.00  0.00     0.048 A 
ENDBRANCH  13  15
ENDBRANCH   5  13
BRANCH   1  22
HETATM   22  O1  UNL     1      23.377   7.199  49.438  1.00  0.00    -0.352 OA
HETATM   23  C1  UNL     1      23.938   8.457  49.709  1.00  0.00     0.210 C 
ENDBRANCH   1  22
BRANCH  11  24
HETATM   24  N4  UNL     1      26.366   5.853  49.384  1.00  0.00    -0.321 N 
HETATM   25  C17 UNL     1      27.503   5.311  48.774  1.00  0.00     0.247 C 
HETATM   26  O2  UNL     1      27.583   4.060  48.706  1.00  0.00    -0.268 OA
HETATM   27  H14 UNL     1      26.282   6.892  49.449  1.00  0.00     0.169 HD
BRANCH  25  28
HETATM   28  C18 UNL     1      28.545   6.162  48.243  1.00  0.00     0.091 C 
HETATM   29  C19 UNL     1      29.824   5.831  48.295  1.00  0.00     0.090 C 
BRANCH  29  30
HETATM   30  N5  UNL     1      30.821   6.693  47.761  1.00  0.00    -0.398 N 
HETATM   31  C20 UNL     1      31.841   6.073  46.942  1.00  0.00     0.148 C 
HETATM   32  C21 UNL     1      30.754   8.129  48.071  1.00  0.00     0.148 C 
ENDBRANCH  29  30
ENDBRANCH  25  28
ENDBRANCH  11  24
TORSDOF 6
ENDMDL
MODEL 7
REMARK VINA RESULT:      -7.6      5.657      8.995
REMARK  6 active torsions:
REMARK  status: ('A' for Active; 'I' for Inactive)
REMARK    1  A    between atoms: O1_2  and  C2_3 
REMARK    2  A    between atoms: C6_7  and  N1_8 
REMARK    3  A    between atoms: N1_8  and  C7_9 
REMARK    4  A    between atoms: C16_21  and  N4_22 
REMARK       I    between atoms: N4_22  and  C17_23 
REMARK    5  A    between atoms: C17_23  and  C18_25 
REMARK    6  A    between atoms: C19_26  and  N5_27 
ROOT
HETATM    1  C2  UNL     1      28.530   7.653  48.917  1.00  0.00     0.117 C 
HETATM    2  C3  UNL     1      29.821   7.924  48.726  1.00  0.00     0.046 C 
HETATM    3  C4  UNL     1      30.309   7.636  47.243  1.00  0.00     0.100 C 
HETATM    4  C5  UNL     1      30.510   6.235  47.907  1.00  0.00    -0.025 C 
HETATM    5  C6  UNL     1      31.696   6.145  48.488  1.00  0.00     0.053 C 
HETATM    6  C13 UNL     1      32.218   7.448  49.112  1.00  0.00     0.240 C 
HETATM    7  C14 UNL     1      33.111   8.162  48.294  1.00  0.00     0.091 C 
HETATM    8  N2  UNL     1      33.850   8.733  47.643  1.00  0.00    -0.195 NA
HETATM    9  N3  UNL     1      30.987   8.219  49.504  1.00  0.00    -0.369 N 
HETATM   10  C15 UNL     1      29.247   5.489  47.903  1.00  0.00     0.042 C 
HETATM   11  C16 UNL     1      28.205   6.242  48.426  1.00  0.00     0.071 C 
HETATM   12  H12 UNL     1      30.526   8.938  50.172  1.00  0.00     0.161 HD
ENDROOT
BRANCH   5  13
HETATM   13  N1  UNL     1      31.949   4.725  48.280  1.00  0.00    -0.357 N 
HETATM   14  H6  UNL     1      31.370   4.031  48.771  1.00  0.00     0.166 HD
BRANCH  13  15
HETATM   15  C7  UNL     1      33.006   4.371  47.399  1.00  0.00     0.033 A 
HETATM   16  C8  UNL     1      34.175   3.747  47.779  1.00  0.00     0.029 A 
HETATM   17  C9  UNL     1      35.144   3.453  46.842  1.00  0.00     0.004 A 
HETATM   18  C10 UNL     1      34.928   3.788  45.535  1.00  0.00     0.019 A 
HETATM   19  C11 UNL     1      33.783   4.406  45.123  1.00  0.00     0.013 A 
HETATM   20 BR1  UNL     1      33.457   4.889  43.295  1.00  0.00    -0.051 Br
HETATM   21  C12 UNL     1      32.798   4.708  46.056  1.00  0.00     0.048 A 
ENDBRANCH  13  15
ENDBRANCH   5  13
BRANCH   1  22
HETATM   22  O1  UNL     1      28.000   8.754  49.495  1.00  0.00    -0.352 OA
HETATM   23  C1  UNL     1      27.182   9.638  48.774  1.00  0.00     0.210 C 
ENDBRANCH   1  22
BRANCH  11  24
HETATM   24  N4  UNL     1      26.910   5.810  48.548  1.00  0.00    -0.321 N 
HETATM   25  C17 UNL     1      26.338   4.706  49.191  1.00  0.00     0.247 C 
HETATM   26  O2  UNL     1      27.111   3.921  49.791  1.00  0.00    -0.268 OA
HETATM   27  H14 UNL     1      26.282   6.476  48.045  1.00  0.00     0.169 HD
BRANCH  25  28
HETATM   28  C18 UNL     1      24.909   4.481  49.162  1.00  0.00     0.091 C 
HETATM   29  C19 UNL     1      24.368   3.319  49.485  1.00  0.00     0.090 C 
BRANCH  29  30
HETATM   30  N5  UNL     1      22.958   3.135  49.446  1.00  0.00    -0.398 N 
HETATM   31  C20 UNL     1      22.438   2.360  48.341  1.00  0.00     0.148 C 
HETATM   32  C21 UNL     1      22.138   3.735  50.509  1.00  0.00     0.148 C 
ENDBRANCH  29  30
ENDBRANCH  25  28
ENDBRANCH  11  24
TORSDOF 6
ENDMDL
MODEL 8
REMARK VINA RESULT:      -7.4      4.006      6.508
REMARK  6 active torsions:
REMARK  status: ('A' for Active; 'I' for Inactive)
REMARK    1  A    between atoms: O1_2  and  C2_3 
REMARK    2  A    between atoms: C6_7  and  N1_8 
REMARK    3  A    between atoms: N1_8  and  C7_9 
REMARK    4  A    between atoms: C16_21  and  N4_22 
REMARK       I    between atoms: N4_22  and  C17_23 
REMARK    5  A    between atoms: C17_23  and  C18_25 
REMARK    6  A    between atoms: C19_26  and  N5_27 
ROOT
HETATM    1  C2  UNL     1      24.083   5.474  51.107  1.00  0.00     0.117 C 
HETATM    2  C3  UNL     1      24.247   6.611  50.432  1.00  0.00     0.046 C 
HETATM    3  C4  UNL     1      24.412   6.393  48.868  1.00  0.00     0.100 C 
HETATM    4  C5  UNL     1      25.891   6.250  49.353  1.00  0.00    -0.025 C 
HETATM    5  C6  UNL     1      26.492   7.427  49.415  1.00  0.00     0.053 C 
HETATM    6  C13 UNL     1      25.588   8.600  49.826  1.00  0.00     0.240 C 
HETATM    7  C14 UNL     1      25.093   9.352  48.746  1.00  0.00     0.091 C 
HETATM    8  N2  UNL     1      24.707   9.975  47.875  1.00  0.00    -0.195 NA
HETATM    9  N3  UNL     1      24.523   7.992  50.696  1.00  0.00    -0.369 N 
HETATM   10  C15 UNL     1      26.137   4.882  49.822  1.00  0.00     0.042 C 
HETATM   11  C16 UNL     1      25.178   4.474  50.738  1.00  0.00     0.071 C 
HETATM   12  H12 UNL     1      23.823   8.115  51.515  1.00  0.00     0.161 HD
ENDROOT
BRANCH   5  13
HETATM   13  N1  UNL     1      27.849   7.014  49.078  1.00  0.00    -0.357 N 
HETATM   14  H6  UNL     1      28.227   6.146  49.481  1.00  0.00     0.166 HD
BRANCH  13  15
HETATM   15  C7  UNL     1      28.589   7.853  48.203  1.00  0.00     0.033 A 
HETATM   16  C8  UNL     1      28.784   7.614  46.858  1.00  0.00     0.029 A 
HETATM   17  C9  UNL     1      29.527   8.492  46.097  1.00  0.00     0.004 A 
HETATM   18  C10 UNL     1      30.065   9.598  46.692  1.00  0.00     0.019 A 
HETATM   19  C11 UNL     1      29.892   9.866  48.018  1.00  0.00     0.013 A 
HETATM   20 BR1  UNL     1      30.638  11.409  48.879  1.00  0.00    -0.051 Br
HETATM   21  C12 UNL     1      29.145   8.990  48.799  1.00  0.00     0.048 A 
ENDBRANCH  13  15
ENDBRANCH   5  13
BRANCH   1  22
HETATM   22  O1  UNL     1      22.991   5.657  51.883  1.00  0.00    -0.352 OA
HETATM   23  C1  UNL     1      21.699   5.376  51.409  1.00  0.00     0.210 C 
ENDBRANCH   1  22
BRANCH  11  24
HETATM   24  N4  UNL     1      25.147   3.245  51.347  1.00  0.00    -0.321 N 
HETATM   25  C17 UNL     1      24.273   2.158  51.237  1.00  0.00     0.247 C 
HETATM   26  O2  UNL     1      23.309   2.268  50.441  1.00  0.00    -0.268 OA
HETATM   27  H14 UNL     1      25.956   3.172  52.003  1.00  0.00     0.169 HD
BRANCH  25  28
HETATM   28  C18 UNL     1      24.475   0.954  52.013  1.00  0.00     0.091 C 
HETATM   29  C19 UNL     1      25.666   0.588  52.454  1.00  0.00     0.090 C 
BRANCH  29  30
HETATM   30  N5  UNL     1      25.826  -0.603  53.215  1.00  0.00    -0.398 N 
HETATM   31  C20 UNL     1      26.719  -1.603  52.670  1.00  0.00     0.148 C 
HETATM   32  C21 UNL     1      25.088  -0.738  54.480  1.00  0.00     0.148 C 
ENDBRANCH  29  30
ENDBRANCH  25  28
ENDBRANCH  11  24
TORSDOF 6
ENDMDL
MODEL 9
REMARK VINA RESULT:      -7.4      6.236     10.042
REMARK  6 active torsions:
REMARK  status: ('A' for Active; 'I' for Inactive)
REMARK    1  A    between atoms: O1_2  and  C2_3 
REMARK    2  A    between atoms: C6_7  and  N1_8 
REMARK    3  A    between atoms: N1_8  and  C7_9 
REMARK    4  A    between atoms: C16_21  and  N4_22 
REMARK       I    between atoms: N4_22  and  C17_23 
REMARK    5  A    between atoms: C17_23  and  C18_25 
REMARK    6  A    between atoms: C19_26  and  N5_27 
ROOT
HETATM    1  C2  UNL     1      29.062   8.532  48.925  1.00  0.00     0.117 C 
HETATM    2  C3  UNL     1      29.953   9.281  48.277  1.00  0.00     0.046 C 
HETATM    3  C4  UNL     1      29.718   9.318  46.707  1.00  0.00     0.100 C 
HETATM    4  C5  UNL     1      30.614   8.045  46.851  1.00  0.00    -0.025 C 
HETATM    5  C6  UNL     1      31.900   8.359  46.829  1.00  0.00     0.053 C 
HETATM    6  C13 UNL     1      32.255   9.707  47.474  1.00  0.00     0.240 C 
HETATM    7  C14 UNL     1      32.385  10.767  46.559  1.00  0.00     0.091 C 
HETATM    8  N2  UNL     1      32.511  11.623  45.821  1.00  0.00    -0.195 NA
HETATM    9  N3  UNL     1      31.207   9.927  48.530  1.00  0.00    -0.369 N 
HETATM   10  C15 UNL     1      29.789   6.884  47.199  1.00  0.00     0.042 C 
HETATM   11  C16 UNL     1      28.966   7.147  48.285  1.00  0.00     0.071 C 
HETATM   12  H12 UNL     1      30.943  10.364  49.487  1.00  0.00     0.161 HD
ENDROOT
BRANCH   5  13
HETATM   13  N1  UNL     1      32.420   7.157  46.187  1.00  0.00    -0.357 N 
HETATM   14  H6  UNL     1      32.148   6.944  45.218  1.00  0.00     0.166 HD
BRANCH  13  15
HETATM   15  C7  UNL     1      33.284   6.329  46.952  1.00  0.00     0.033 A 
HETATM   16  C8  UNL     1      34.388   6.772  47.650  1.00  0.00     0.029 A 
HETATM   17  C9  UNL     1      35.166   5.880  48.359  1.00  0.00     0.004 A 
HETATM   18  C10 UNL     1      34.828   4.557  48.360  1.00  0.00     0.019 A 
HETATM   19  C11 UNL     1      33.742   4.084  47.683  1.00  0.00     0.013 A 
HETATM   20 BR1  UNL     1      33.247   2.231  47.666  1.00  0.00    -0.051 Br
HETATM   21  C12 UNL     1      32.948   4.971  46.963  1.00  0.00     0.048 A 
ENDBRANCH  13  15
ENDBRANCH   5  13
BRANCH   1  22
HETATM   22  O1  UNL     1      28.586   9.304  49.927  1.00  0.00    -0.352 OA
HETATM   23  C1  UNL     1      27.252   9.742  49.945  1.00  0.00     0.210 C 
ENDBRANCH   1  22
BRANCH  11  24
HETATM   24  N4  UNL     1      28.083   6.254  48.836  1.00  0.00    -0.321 N 
HETATM   25  C17 UNL     1      26.701   6.082  48.695  1.00  0.00     0.247 C 
HETATM   26  O2  UNL     1      26.094   6.869  47.929  1.00  0.00    -0.268 OA
HETATM   27  H14 UNL     1      28.605   5.607  49.468  1.00  0.00     0.169 HD
BRANCH  25  28
HETATM   28  C18 UNL     1      26.001   5.036  49.408  1.00  0.00     0.091 C 
HETATM   29  C19 UNL     1      26.594   3.916  49.784  1.00  0.00     0.090 C 
BRANCH  29  30
HETATM   30  N5  UNL     1      25.873   2.909  50.484  1.00  0.00    -0.398 N 
HETATM   31  C20 UNL     1      26.651   2.021  51.322  1.00  0.00     0.148 C 
HETATM   32  C21 UNL     1      24.414   2.837  50.314  1.00  0.00     0.148 C 
ENDBRANCH  29  30
ENDBRANCH  25  28
ENDBRANCH  11  24
TORSDOF 6
ENDMDL
