MODEL 1
REMARK VINA RESULT:      -7.0      0.000      0.000
REMARK  7 active torsions:
REMARK  status: ('A' for Active; 'I' for Inactive)
REMARK    1  A    between atoms: C4_4  and  S1_5 
REMARK    2  A    between atoms: S1_5  and  C5_6 
REMARK    3  A    between atoms: C5_6  and  C6_7 
REMARK    4  A    between atoms: C6_7  and  C7_8 
REMARK    5  A    between atoms: C6_7  and  C13_15 
REMARK    6  A    between atoms: C7_8  and  C8_9 
REMARK    7  A    between atoms: C13_15  and  N2_16 
ROOT
HETATM    1  C6  UNL     1      23.897   2.794  51.893  1.00  0.00     0.025 C 
ENDROOT
BRANCH   1   2
HETATM    2  C5  UNL     1      24.580   3.309  50.685  1.00  0.00     0.085 C 
BRANCH   2   3
HETATM    3  S1  UNL     1      26.224   2.616  50.451  1.00  0.00    -0.130 SA
BRANCH   3   4
HETATM    4  C4  UNL     1      26.900   2.067  51.985  1.00  0.00    -0.003 C 
HETATM    5  C3  UNL     1      26.690   0.575  51.703  1.00  0.00     0.020 C 
HETATM    6  C2  UNL     1      27.028  -0.438  52.537  1.00  0.00    -0.082 C 
HETATM    7  C1  UNL     1      26.802  -1.917  52.257  1.00  0.00     0.043 C 
HETATM    8  C19 UNL     1      27.756  -0.270  53.808  1.00  0.00     0.042 C 
HETATM    9  C17 UNL     1      27.878   1.170  54.207  1.00  0.00     0.009 C 
HETATM   10  C16 UNL     1      27.446   2.081  53.161  1.00  0.00    -0.004 C 
HETATM   11  C18 UNL     1      29.344   1.411  54.614  1.00  0.00     0.014 C 
ENDBRANCH   3   4
ENDBRANCH   2   3
ENDBRANCH   1   2
BRANCH   1  12
HETATM   12  C7  UNL     1      23.227   1.458  51.784  1.00  0.00     0.043 C 
BRANCH  12  13
HETATM   13  C8  UNL     1      22.832   0.803  53.070  1.00  0.00     0.226 C 
HETATM   14  C9  UNL     1      23.478  -0.497  53.312  1.00  0.00     0.065 C 
HETATM   15  C10 UNL     1      23.133  -0.876  54.536  1.00  0.00    -0.033 C 
HETATM   16  C11 UNL     1      21.864  -0.930  54.802  1.00  0.00     0.025 C 
HETATM   17  C12 UNL     1      20.993   0.175  54.372  1.00  0.00     0.275 C 
HETATM   18  N1  UNL     1      21.378   0.523  53.006  1.00  0.00     0.088 N 
HETATM   19  H15 UNL     1      21.352  -0.404  52.469  1.00  0.00     0.316 HD
ENDBRANCH  12  13
ENDBRANCH   1  12
BRANCH   1  20
HETATM   20  C13 UNL     1      22.946   3.848  52.469  1.00  0.00     0.276 C 
BRANCH  20  21
HETATM   21  N2  UNL     1      21.868   4.193  51.619  1.00  0.00     0.080 N 
HETATM   22  C14 UNL     1      20.542   3.824  51.909  1.00  0.00     0.309 C 
HETATM   23  C15 UNL     1      21.925   5.650  51.435  1.00  0.00     0.309 C 
ENDBRANCH  20  21
ENDBRANCH   1  20
TORSDOF 7
ENDMDL
MODEL 2
REMARK VINA RESULT:      -6.8      2.699      6.396
REMARK  7 active torsions:
REMARK  status: ('A' for Active; 'I' for Inactive)
REMARK    1  A    between atoms: C4_4  and  S1_5 
REMARK    2  A    between atoms: S1_5  and  C5_6 
REMARK    3  A    between atoms: C5_6  and  C6_7 
REMARK    4  A    between atoms: C6_7  and  C7_8 
REMARK    5  A    between atoms: C6_7  and  C13_15 
REMARK    6  A    between atoms: C7_8  and  C8_9 
REMARK    7  A    between atoms: C13_15  and  N2_16 
ROOT
HETATM    1  C6  UNL     1      24.575   1.937  52.116  1.00  0.00     0.025 C 
ENDROOT
BRANCH   1   2
HETATM    2  C5  UNL     1      23.373   1.121  51.833  1.00  0.00     0.085 C 
BRANCH   2   3
HETATM    3  S1  UNL     1      23.010  -0.079  53.124  1.00  0.00    -0.130 SA
BRANCH   3   4
HETATM    4  C4  UNL     1      21.275  -0.371  53.241  1.00  0.00    -0.003 C 
HETATM    5  C3  UNL     1      20.937   0.262  51.887  1.00  0.00     0.020 C 
HETATM    6  C2  UNL     1      19.695   0.355  51.351  1.00  0.00    -0.082 C 
HETATM    7  C1  UNL     1      19.364   1.000  50.012  1.00  0.00     0.043 C 
HETATM    8  C19 UNL     1      18.481  -0.240  51.939  1.00  0.00     0.042 C 
HETATM    9  C17 UNL     1      18.717  -0.761  53.324  1.00  0.00     0.009 C 
HETATM   10  C16 UNL     1      20.123  -0.758  53.693  1.00  0.00    -0.004 C 
HETATM   11  C18 UNL     1      18.106  -2.173  53.395  1.00  0.00     0.014 C 
ENDBRANCH   3   4
ENDBRANCH   2   3
ENDBRANCH   1   2
BRANCH   1  12
HETATM   12  C7  UNL     1      25.162   1.838  53.491  1.00  0.00     0.043 C 
BRANCH  12  13
HETATM   13  C8  UNL     1      26.598   1.428  53.575  1.00  0.00     0.226 C 
HETATM   14  C9  UNL     1      26.887   0.438  54.626  1.00  0.00     0.065 C 
HETATM   15  C10 UNL     1      28.157   0.083  54.481  1.00  0.00    -0.033 C 
HETATM   16  C11 UNL     1      29.040   1.035  54.482  1.00  0.00     0.025 C 
HETATM   17  C12 UNL     1      28.784   2.252  53.698  1.00  0.00     0.275 C 
HETATM   18  N1  UNL     1      27.391   2.630  53.927  1.00  0.00     0.088 N 
HETATM   19  H15 UNL     1      27.287   2.662  54.993  1.00  0.00     0.316 HD
ENDBRANCH  12  13
ENDBRANCH   1  12
BRANCH   1  20
HETATM   20  C13 UNL     1      24.346   3.397  51.713  1.00  0.00     0.276 C 
BRANCH  20  21
HETATM   21  N2  UNL     1      25.152   3.844  50.639  1.00  0.00     0.080 N 
HETATM   22  C14 UNL     1      26.387   3.244  50.334  1.00  0.00     0.309 C 
HETATM   23  C15 UNL     1      24.305   3.823  49.438  1.00  0.00     0.309 C 
ENDBRANCH  20  21
ENDBRANCH   1  20
TORSDOF 7
ENDMDL
MODEL 3
REMARK VINA RESULT:      -6.8      2.350      5.670
REMARK  7 active torsions:
REMARK  status: ('A' for Active; 'I' for Inactive)
REMARK    1  A    between atoms: C4_4  and  S1_5 
REMARK    2  A    between atoms: S1_5  and  C5_6 
REMARK    3  A    between atoms: C5_6  and  C6_7 
REMARK    4  A    between atoms: C6_7  and  C7_8 
REMARK    5  A    between atoms: C6_7  and  C13_15 
REMARK    6  A    between atoms: C7_8  and  C8_9 
REMARK    7  A    between atoms: C13_15  and  N2_16 
ROOT
HETATM    1  C6  UNL     1      26.149  -0.680  52.696  1.00  0.00     0.025 C 
ENDROOT
BRANCH   1   2
HETATM    2  C5  UNL     1      26.609   0.354  51.741  1.00  0.00     0.085 C 
BRANCH   2   3
HETATM    3  S1  UNL     1      26.358   2.032  52.337  1.00  0.00    -0.130 SA
BRANCH   3   4
HETATM    4  C4  UNL     1      25.275   2.924  51.268  1.00  0.00    -0.003 C 
HETATM    5  C3  UNL     1      26.395   3.596  50.466  1.00  0.00     0.020 C 
HETATM    6  C2  UNL     1      26.215   4.451  49.429  1.00  0.00    -0.082 C 
HETATM    7  C1  UNL     1      27.333   5.127  48.646  1.00  0.00     0.043 C 
HETATM    8  C19 UNL     1      24.908   4.786  48.835  1.00  0.00     0.042 C 
HETATM    9  C17 UNL     1      23.763   4.267  49.651  1.00  0.00     0.009 C 
HETATM   10  C16 UNL     1      24.192   3.376  50.717  1.00  0.00    -0.004 C 
HETATM   11  C18 UNL     1      22.784   3.577  48.682  1.00  0.00     0.014 C 
ENDBRANCH   3   4
ENDBRANCH   2   3
ENDBRANCH   1   2
BRANCH   1  12
HETATM   12  C7  UNL     1      25.149  -0.260  53.730  1.00  0.00     0.043 C 
BRANCH  12  13
HETATM   13  C8  UNL     1      23.722  -0.620  53.461  1.00  0.00     0.226 C 
HETATM   14  C9  UNL     1      22.904   0.487  52.941  1.00  0.00     0.065 C 
HETATM   15  C10 UNL     1      21.719  -0.023  52.632  1.00  0.00    -0.033 C 
HETATM   16  C11 UNL     1      21.090  -0.667  53.567  1.00  0.00     0.025 C 
HETATM   17  C12 UNL     1      21.830  -1.629  54.398  1.00  0.00     0.275 C 
HETATM   18  N1  UNL     1      23.103  -1.005  54.752  1.00  0.00     0.088 N 
HETATM   19  H15 UNL     1      22.836  -0.053  55.165  1.00  0.00     0.316 HD
ENDBRANCH  12  13
ENDBRANCH   1  12
BRANCH   1  20
HETATM   20  C13 UNL     1      27.342  -1.397  53.335  1.00  0.00     0.276 C 
BRANCH  20  21
HETATM   21  N2  UNL     1      28.447  -0.559  53.620  1.00  0.00     0.080 N 
HETATM   22  C14 UNL     1      28.591   0.090  54.859  1.00  0.00     0.309 C 
HETATM   23  C15 UNL     1      29.657  -1.350  53.355  1.00  0.00     0.309 C 
ENDBRANCH  20  21
ENDBRANCH   1  20
TORSDOF 7
ENDMDL
MODEL 4
REMARK VINA RESULT:      -6.7      2.617      6.658
REMARK  7 active torsions:
REMARK  status: ('A' for Active; 'I' for Inactive)
REMARK    1  A    between atoms: C4_4  and  S1_5 
REMARK    2  A    between atoms: S1_5  and  C5_6 
REMARK    3  A    between atoms: C5_6  and  C6_7 
REMARK    4  A    between atoms: C6_7  and  C7_8 
REMARK    5  A    between atoms: C6_7  and  C13_15 
REMARK    6  A    between atoms: C7_8  and  C8_9 
REMARK    7  A    between atoms: C13_15  and  N2_16 
ROOT
HETATM    1  C6  UNL     1      26.466   2.126  52.413  1.00  0.00     0.025 C 
ENDROOT
BRANCH   1   2
HETATM    2  C5  UNL     1      25.163   2.091  53.114  1.00  0.00     0.085 C 
BRANCH   2   3
HETATM    3  S1  UNL     1      24.476   0.434  53.251  1.00  0.00    -0.130 SA
BRANCH   3   4
HETATM    4  C4  UNL     1      22.717   0.470  53.135  1.00  0.00    -0.003 C 
HETATM    5  C3  UNL     1      22.683   0.688  51.618  1.00  0.00     0.020 C 
HETATM    6  C2  UNL     1      21.562   0.800  50.865  1.00  0.00    -0.082 C 
HETATM    7  C1  UNL     1      21.536   1.032  49.360  1.00  0.00     0.043 C 
HETATM    8  C19 UNL     1      20.189   0.620  51.372  1.00  0.00     0.042 C 
HETATM    9  C17 UNL     1      20.143   0.534  52.868  1.00  0.00     0.009 C 
HETATM   10  C16 UNL     1      21.463   0.433  53.466  1.00  0.00    -0.004 C 
HETATM   11  C18 UNL     1      19.251  -0.669  53.232  1.00  0.00     0.014 C 
ENDBRANCH   3   4
ENDBRANCH   2   3
ENDBRANCH   1   2
BRANCH   1  12
HETATM   12  C7  UNL     1      26.451   2.483  50.958  1.00  0.00     0.043 C 
BRANCH  12  13
HETATM   13  C8  UNL     1      25.513   3.575  50.549  1.00  0.00     0.226 C 
HETATM   14  C9  UNL     1      24.618   3.221  49.435  1.00  0.00     0.065 C 
HETATM   15  C10 UNL     1      23.771   4.231  49.287  1.00  0.00    -0.033 C 
HETATM   16  C11 UNL     1      24.283   5.412  49.117  1.00  0.00     0.025 C 
HETATM   17  C12 UNL     1      25.402   5.839  49.971  1.00  0.00     0.275 C 
HETATM   18  N1  UNL     1      26.329   4.713  50.064  1.00  0.00     0.088 N 
HETATM   19  H15 UNL     1      26.522   4.432  49.048  1.00  0.00     0.316 HD
ENDBRANCH  12  13
ENDBRANCH   1  12
BRANCH   1  20
HETATM   20  C13 UNL     1      27.251   0.835  52.661  1.00  0.00     0.276 C 
BRANCH  20  21
HETATM   21  N2  UNL     1      28.377   0.984  53.506  1.00  0.00     0.080 N 
HETATM   22  C14 UNL     1      28.899   2.248  53.834  1.00  0.00     0.309 C 
HETATM   23  C15 UNL     1      28.073   0.259  54.748  1.00  0.00     0.309 C 
ENDBRANCH  20  21
ENDBRANCH   1  20
TORSDOF 7
ENDMDL
MODEL 5
REMARK VINA RESULT:      -6.7      1.867      4.076
REMARK  7 active torsions:
REMARK  status: ('A' for Active; 'I' for Inactive)
REMARK    1  A    between atoms: C4_4  and  S1_5 
REMARK    2  A    between atoms: S1_5  and  C5_6 
REMARK    3  A    between atoms: C5_6  and  C6_7 
REMARK    4  A    between atoms: C6_7  and  C7_8 
REMARK    5  A    between atoms: C6_7  and  C13_15 
REMARK    6  A    between atoms: C7_8  and  C8_9 
REMARK    7  A    between atoms: C13_15  and  N2_16 
ROOT
HETATM    1  C6  UNL     1      23.265   1.539  51.920  1.00  0.00     0.025 C 
ENDROOT
BRANCH   1   2
HETATM    2  C5  UNL     1      23.182   0.728  53.156  1.00  0.00     0.085 C 
BRANCH   2   3
HETATM    3  S1  UNL     1      24.492  -0.497  53.289  1.00  0.00    -0.130 SA
BRANCH   3   4
HETATM    4  C4  UNL     1      26.032   0.269  53.681  1.00  0.00    -0.003 C 
HETATM    5  C3  UNL     1      26.889  -0.946  53.310  1.00  0.00     0.020 C 
HETATM    6  C2  UNL     1      28.242  -1.005  53.383  1.00  0.00    -0.082 C 
HETATM    7  C1  UNL     1      29.087  -2.221  53.027  1.00  0.00     0.043 C 
HETATM    8  C19 UNL     1      29.114   0.133  53.728  1.00  0.00     0.042 C 
HETATM    9  C17 UNL     1      28.337   1.313  54.227  1.00  0.00     0.009 C 
HETATM   10  C16 UNL     1      26.902   1.153  54.060  1.00  0.00    -0.004 C 
HETATM   11  C18 UNL     1      28.868   2.558  53.490  1.00  0.00     0.014 C 
ENDBRANCH   3   4
ENDBRANCH   2   3
ENDBRANCH   1   2
BRANCH   1  12
HETATM   12  C7  UNL     1      23.898   2.893  52.032  1.00  0.00     0.043 C 
BRANCH  12  13
HETATM   13  C8  UNL     1      24.721   3.341  50.865  1.00  0.00     0.226 C 
HETATM   14  C9  UNL     1      26.038   2.693  50.767  1.00  0.00     0.065 C 
HETATM   15  C10 UNL     1      26.579   3.092  49.623  1.00  0.00    -0.033 C 
HETATM   16  C11 UNL     1      26.674   4.372  49.429  1.00  0.00     0.025 C 
HETATM   17  C12 UNL     1      25.526   5.234  49.750  1.00  0.00     0.275 C 
HETATM   18  N1  UNL     1      24.996   4.787  51.037  1.00  0.00     0.088 N 
HETATM   19  H15 UNL     1      25.843   4.777  51.693  1.00  0.00     0.316 HD
ENDBRANCH  12  13
ENDBRANCH   1  12
BRANCH   1  20
HETATM   20  C13 UNL     1      21.899   1.618  51.231  1.00  0.00     0.276 C 
BRANCH  20  21
HETATM   21  N2  UNL     1      21.239   2.862  51.376  1.00  0.00     0.080 N 
HETATM   22  C14 UNL     1      20.747   3.578  50.271  1.00  0.00     0.309 C 
HETATM   23  C15 UNL     1      20.142   2.649  52.331  1.00  0.00     0.309 C 
ENDBRANCH  20  21
ENDBRANCH   1  20
TORSDOF 7
ENDMDL
MODEL 6
REMARK VINA RESULT:      -6.7      3.332      5.795
REMARK  7 active torsions:
REMARK  status: ('A' for Active; 'I' for Inactive)
REMARK    1  A    between atoms: C4_4  and  S1_5 
REMARK    2  A    between atoms: S1_5  and  C5_6 
REMARK    3  A    between atoms: C5_6  and  C6_7 
REMARK    4  A    between atoms: C6_7  and  C7_8 
REMARK    5  A    between atoms: C6_7  and  C13_15 
REMARK    6  A    between atoms: C7_8  and  C8_9 
REMARK    7  A    between atoms: C13_15  and  N2_16 
ROOT
HETATM    1  C6  UNL     1      26.053   1.815  51.733  1.00  0.00     0.025 C 
ENDROOT
BRANCH   1   2
HETATM    2  C5  UNL     1      26.523   2.842  50.775  1.00  0.00     0.085 C 
BRANCH   2   3
HETATM    3  S1  UNL     1      25.212   3.483  49.723  1.00  0.00    -0.130 SA
BRANCH   3   4
HETATM    4  C4  UNL     1      25.619   5.088  49.118  1.00  0.00    -0.003 C 
HETATM    5  C3  UNL     1      27.100   4.774  48.879  1.00  0.00     0.020 C 
HETATM    6  C2  UNL     1      28.018   5.641  48.384  1.00  0.00    -0.082 C 
HETATM    7  C1  UNL     1      29.491   5.327  48.164  1.00  0.00     0.043 C 
HETATM    8  C19 UNL     1      27.711   6.996  47.891  1.00  0.00     0.042 C 
HETATM    9  C17 UNL     1      26.309   7.414  48.214  1.00  0.00     0.009 C 
HETATM   10  C16 UNL     1      25.506   6.325  48.744  1.00  0.00    -0.004 C 
HETATM   11  C18 UNL     1      25.699   8.008  46.930  1.00  0.00     0.014 C 
ENDBRANCH   3   4
ENDBRANCH   2   3
ENDBRANCH   1   2
BRANCH   1  12
HETATM   12  C7  UNL     1      25.086   2.256  52.789  1.00  0.00     0.043 C 
BRANCH  12  13
HETATM   13  C8  UNL     1      23.877   1.396  52.986  1.00  0.00     0.226 C 
HETATM   14  C9  UNL     1      24.172   0.032  53.452  1.00  0.00     0.065 C 
HETATM   15  C10 UNL     1      23.006  -0.549  53.704  1.00  0.00    -0.033 C 
HETATM   16  C11 UNL     1      22.133  -0.563  52.744  1.00  0.00     0.025 C 
HETATM   17  C12 UNL     1      21.906   0.662  51.962  1.00  0.00     0.275 C 
HETATM   18  N1  UNL     1      23.217   1.237  51.668  1.00  0.00     0.088 N 
HETATM   19  H15 UNL     1      23.778   0.434  51.233  1.00  0.00     0.316 HD
ENDBRANCH  12  13
ENDBRANCH   1  12
BRANCH   1  20
HETATM   20  C13 UNL     1      27.239   1.061  52.343  1.00  0.00     0.276 C 
BRANCH  20  21
HETATM   21  N2  UNL     1      27.516   1.395  53.690  1.00  0.00     0.080 N 
HETATM   22  C14 UNL     1      27.711   0.412  54.677  1.00  0.00     0.309 C 
HETATM   23  C15 UNL     1      28.685   2.287  53.672  1.00  0.00     0.309 C 
ENDBRANCH  20  21
ENDBRANCH   1  20
TORSDOF 7
ENDMDL
MODEL 7
REMARK VINA RESULT:      -6.6      2.202      5.703
REMARK  7 active torsions:
REMARK  status: ('A' for Active; 'I' for Inactive)
REMARK    1  A    between atoms: C4_4  and  S1_5 
REMARK    2  A    between atoms: S1_5  and  C5_6 
REMARK    3  A    between atoms: C5_6  and  C6_7 
REMARK    4  A    between atoms: C6_7  and  C7_8 
REMARK    5  A    between atoms: C6_7  and  C13_15 
REMARK    6  A    between atoms: C7_8  and  C8_9 
REMARK    7  A    between atoms: C13_15  and  N2_16 
ROOT
HETATM    1  C6  UNL     1      23.970   0.597  52.865  1.00  0.00     0.025 C 
ENDROOT
BRANCH   1   2
HETATM    2  C5  UNL     1      23.832   1.507  51.706  1.00  0.00     0.085 C 
BRANCH   2   3
HETATM    3  S1  UNL     1      22.654   2.838  51.985  1.00  0.00    -0.130 SA
BRANCH   3   4
HETATM    4  C4  UNL     1      23.360   4.400  51.570  1.00  0.00    -0.003 C 
HETATM    5  C3  UNL     1      24.530   3.815  50.773  1.00  0.00     0.020 C 
HETATM    6  C2  UNL     1      25.494   4.536  50.148  1.00  0.00    -0.082 C 
HETATM    7  C1  UNL     1      26.664   3.948  49.371  1.00  0.00     0.043 C 
HETATM    8  C19 UNL     1      25.506   6.006  50.044  1.00  0.00     0.042 C 
HETATM    9  C17 UNL     1      24.463   6.646  50.909  1.00  0.00     0.009 C 
HETATM   10  C16 UNL     1      23.543   5.681  51.486  1.00  0.00    -0.004 C 
HETATM   11  C18 UNL     1      23.734   7.696  50.050  1.00  0.00     0.014 C 
ENDBRANCH   3   4
ENDBRANCH   2   3
ENDBRANCH   1   2
BRANCH   1  12
HETATM   12  C7  UNL     1      25.243  -0.186  52.973  1.00  0.00     0.043 C 
BRANCH  12  13
HETATM   13  C8  UNL     1      26.423   0.536  53.543  1.00  0.00     0.226 C 
HETATM   14  C9  UNL     1      27.172   1.341  52.565  1.00  0.00     0.065 C 
HETATM   15  C10 UNL     1      28.091   2.015  53.244  1.00  0.00    -0.033 C 
HETATM   16  C11 UNL     1      28.895   1.325  53.994  1.00  0.00     0.025 C 
HETATM   17  C12 UNL     1      28.346   0.260  54.847  1.00  0.00     0.275 C 
HETATM   18  N1  UNL     1      27.378  -0.482  54.041  1.00  0.00     0.088 N 
HETATM   19  H15 UNL     1      27.909  -0.746  53.149  1.00  0.00     0.316 HD
ENDBRANCH  12  13
ENDBRANCH   1  12
BRANCH   1  20
HETATM   20  C13 UNL     1      22.745  -0.314  52.989  1.00  0.00     0.276 C 
BRANCH  20  21
HETATM   21  N2  UNL     1      22.059  -0.212  54.223  1.00  0.00     0.080 N 
HETATM   22  C14 UNL     1      20.795   0.395  54.326  1.00  0.00     0.309 C 
HETATM   23  C15 UNL     1      21.979  -1.572  54.775  1.00  0.00     0.309 C 
ENDBRANCH  20  21
ENDBRANCH   1  20
TORSDOF 7
ENDMDL
MODEL 8
REMARK VINA RESULT:      -6.6      2.741      6.440
REMARK  7 active torsions:
REMARK  status: ('A' for Active; 'I' for Inactive)
REMARK    1  A    between atoms: C4_4  and  S1_5 
REMARK    2  A    between atoms: S1_5  and  C5_6 
REMARK    3  A    between atoms: C5_6  and  C6_7 
REMARK    4  A    between atoms: C6_7  and  C7_8 
REMARK    5  A    between atoms: C6_7  and  C13_15 
REMARK    6  A    between atoms: C7_8  and  C8_9 
REMARK    7  A    between atoms: C13_15  and  N2_16 
ROOT
HETATM    1  C6  UNL     1      25.337   0.427  53.253  1.00  0.00     0.025 C 
ENDROOT
BRANCH   1   2
HETATM    2  C5  UNL     1      24.229  -0.494  52.912  1.00  0.00     0.085 C 
BRANCH   2   3
HETATM    3  S1  UNL     1      23.027  -0.678  54.238  1.00  0.00    -0.130 SA
BRANCH   3   4
HETATM    4  C4  UNL     1      21.389  -0.400  53.645  1.00  0.00    -0.003 C 
HETATM    5  C3  UNL     1      21.821   0.011  52.233  1.00  0.00     0.020 C 
HETATM    6  C2  UNL     1      20.984   0.362  51.226  1.00  0.00    -0.082 C 
HETATM    7  C1  UNL     1      21.421   0.784  49.830  1.00  0.00     0.043 C 
HETATM    8  C19 UNL     1      19.513   0.297  51.297  1.00  0.00     0.042 C 
HETATM    9  C17 UNL     1      19.022   0.029  52.688  1.00  0.00     0.009 C 
HETATM   10  C16 UNL     1      20.095  -0.317  53.604  1.00  0.00    -0.004 C 
HETATM   11  C18 UNL     1      17.962  -1.085  52.594  1.00  0.00     0.014 C 
ENDBRANCH   3   4
ENDBRANCH   2   3
ENDBRANCH   1   2
BRANCH   1  12
HETATM   12  C7  UNL     1      26.076   0.166  54.530  1.00  0.00     0.043 C 
BRANCH  12  13
HETATM   13  C8  UNL     1      27.543  -0.104  54.408  1.00  0.00     0.226 C 
HETATM   14  C9  UNL     1      28.343   1.063  54.006  1.00  0.00     0.065 C 
HETATM   15  C10 UNL     1      29.617   0.698  54.075  1.00  0.00    -0.033 C 
HETATM   16  C11 UNL     1      29.966  -0.359  53.407  1.00  0.00     0.025 C 
HETATM   17  C12 UNL     1      29.114  -1.557  53.462  1.00  0.00     0.275 C 
HETATM   18  N1  UNL     1      27.729  -1.108  53.334  1.00  0.00     0.088 N 
HETATM   19  H15 UNL     1      27.718  -0.498  52.453  1.00  0.00     0.316 HD
ENDBRANCH  12  13
ENDBRANCH   1  12
BRANCH   1  20
HETATM   20  C13 UNL     1      24.876   1.885  53.164  1.00  0.00     0.276 C 
BRANCH  20  21
HETATM   21  N2  UNL     1      24.579   2.329  51.854  1.00  0.00     0.080 N 
HETATM   22  C14 UNL     1      23.623   3.330  51.604  1.00  0.00     0.309 C 
HETATM   23  C15 UNL     1      25.855   2.729  51.243  1.00  0.00     0.309 C 
ENDBRANCH  20  21
ENDBRANCH   1  20
TORSDOF 7
ENDMDL
MODEL 9
REMARK VINA RESULT:      -6.5      3.148      6.035
REMARK  7 active torsions:
REMARK  status: ('A' for Active; 'I' for Inactive)
REMARK    1  A    between atoms: C4_4  and  S1_5 
REMARK    2  A    between atoms: S1_5  and  C5_6 
REMARK    3  A    between atoms: C5_6  and  C6_7 
REMARK    4  A    between atoms: C6_7  and  C7_8 
REMARK    5  A    between atoms: C6_7  and  C13_15 
REMARK    6  A    between atoms: C7_8  and  C8_9 
REMARK    7  A    between atoms: C13_15  and  N2_16 
ROOT
HETATM    1  C6  UNL     1      24.808   2.103  52.468  1.00  0.00     0.025 C 
ENDROOT
BRANCH   1   2
HETATM    2  C5  UNL     1      24.580   3.331  51.672  1.00  0.00     0.085 C 
BRANCH   2   3
HETATM    3  S1  UNL     1      25.347   3.275  50.046  1.00  0.00    -0.130 SA
BRANCH   3   4
HETATM    4  C4  UNL     1      25.580   4.902  49.405  1.00  0.00    -0.003 C 
HETATM    5  C3  UNL     1      27.044   4.686  49.009  1.00  0.00     0.020 C 
HETATM    6  C2  UNL     1      27.844   5.610  48.421  1.00  0.00    -0.082 C 
HETATM    7  C1  UNL     1      29.303   5.393  48.045  1.00  0.00     0.043 C 
HETATM    8  C19 UNL     1      27.396   6.939  47.968  1.00  0.00     0.042 C 
HETATM    9  C17 UNL     1      26.012   7.265  48.439  1.00  0.00     0.009 C 
HETATM   10  C16 UNL     1      25.345   6.127  49.049  1.00  0.00    -0.004 C 
HETATM   11  C18 UNL     1      25.230   7.811  47.229  1.00  0.00     0.014 C 
ENDBRANCH   3   4
ENDBRANCH   2   3
ENDBRANCH   1   2
BRANCH   1  12
HETATM   12  C7  UNL     1      25.641   1.027  51.841  1.00  0.00     0.043 C 
BRANCH  12  13
HETATM   13  C8  UNL     1      27.020   0.845  52.392  1.00  0.00     0.226 C 
HETATM   14  C9  UNL     1      27.233  -0.437  53.083  1.00  0.00     0.065 C 
HETATM   15  C10 UNL     1      28.523  -0.500  53.388  1.00  0.00    -0.033 C 
HETATM   16  C11 UNL     1      29.016   0.486  54.073  1.00  0.00     0.025 C 
HETATM   17  C12 UNL     1      28.674   1.866  53.695  1.00  0.00     0.275 C 
HETATM   18  N1  UNL     1      27.239   1.894  53.415  1.00  0.00     0.088 N 
HETATM   19  H15 UNL     1      26.783   1.459  54.282  1.00  0.00     0.316 HD
ENDBRANCH  12  13
ENDBRANCH   1  12
BRANCH   1  20
HETATM   20  C13 UNL     1      23.484   1.545  52.997  1.00  0.00     0.276 C 
BRANCH  20  21
HETATM   21  N2  UNL     1      23.352   0.140  52.886  1.00  0.00     0.080 N 
HETATM   22  C14 UNL     1      23.486  -0.711  53.997  1.00  0.00     0.309 C 
HETATM   23  C15 UNL     1      22.052  -0.114  52.248  1.00  0.00     0.309 C 
ENDBRANCH  20  21
ENDBRANCH   1  20
TORSDOF 7
ENDMDL
