MODEL 1
REMARK VINA RESULT:      -8.5      0.000      0.000
REMARK  9 active torsions:
REMARK  status: ('A' for Active; 'I' for Inactive)
REMARK    1  A    between atoms: C6_6  and  C7_7 
REMARK    2  A    between atoms: C7_7  and  S1_8 
REMARK    3  A    between atoms: S1_8  and  N1_11 
REMARK    4  A    between atoms: N1_11  and  C8_12 
REMARK    5  A    between atoms: C9_13  and  C10_14 
REMARK    6  A    between atoms: C10_14  and  C11_15 
REMARK    7  A    between atoms: C13_17  and  N2_18 
REMARK    8  A    between atoms: N2_18  and  O3_19 
REMARK    9  A    between atoms: C16_22  and  O4_23 
ROOT
HETATM    1  C8  UNL     1      24.093   2.277  53.036  1.00  0.00     0.096 C 
HETATM    2  C9  UNL     1      24.396   1.023  53.214  1.00  0.00    -0.008 C 
ENDROOT
BRANCH   2   3
HETATM    3  C10 UNL     1      25.510   0.096  53.328  1.00  0.00     0.044 C 
BRANCH   3   4
HETATM    4  C11 UNL     1      26.650   0.304  52.377  1.00  0.00     0.070 C 
HETATM    5  C12 UNL     1      27.479  -0.960  52.469  1.00  0.00     0.012 C 
HETATM    6  C13 UNL     1      28.419  -1.143  53.379  1.00  0.00     0.032 C 
HETATM    7  C14 UNL     1      28.688  -0.062  54.365  1.00  0.00     0.088 C 
HETATM    8  C15 UNL     1      28.501   1.244  53.683  1.00  0.00     0.012 C 
HETATM    9  C16 UNL     1      27.548   1.428  52.749  1.00  0.00     0.048 C 
BRANCH   6  10
HETATM   10  N2  UNL     1      29.148  -2.366  53.390  1.00  0.00    -0.273 N 
HETATM   11  H17 UNL     1      30.194  -2.393  53.378  1.00  0.00     0.193 HD
BRANCH  10  12
HETATM   12  O3  UNL     1      28.513  -3.559  53.416  1.00  0.00    -0.290 OA
HETATM   13  H18 UNL     1      28.666  -3.968  54.290  1.00  0.00     0.244 HD
ENDBRANCH  10  12
ENDBRANCH   6  10
BRANCH   9  14
HETATM   14  O4  UNL     1      27.567   2.746  52.248  1.00  0.00    -0.365 OA
HETATM   15  H22 UNL     1      27.807   2.933  51.268  1.00  0.00     0.217 HD
ENDBRANCH   9  14
ENDBRANCH   3   4
ENDBRANCH   2   3
BRANCH   1  16
HETATM   16  N1  UNL     1      24.527   3.599  52.833  1.00  0.00    -0.295 N 
HETATM   17  H10 UNL     1      25.370   4.043  53.314  1.00  0.00     0.177 HD
BRANCH  16  18
HETATM   18  S1  UNL     1      23.585   4.514  51.709  1.00  0.00     0.233 S 
HETATM   19  O1  UNL     1      22.145   4.189  51.932  1.00  0.00    -0.205 OA
HETATM   20  O2  UNL     1      23.791   5.983  51.983  1.00  0.00    -0.205 OA
BRANCH  18  21
HETATM   21  C7  UNL     1      23.998   4.153  50.027  1.00  0.00     0.191 C 
BRANCH  21  22
HETATM   22  C6  UNL     1      24.824   5.193  49.409  1.00  0.00    -0.002 C 
HETATM   23  C5  UNL     1      26.078   5.145  49.059  1.00  0.00    -0.052 A 
HETATM   24  C2  UNL     1      26.976   6.126  48.441  1.00  0.00    -0.059 A 
HETATM   25  C4  UNL     1      27.133   4.099  49.128  1.00  0.00     0.066 A 
HETATM   26  C1  UNL     1      26.843   7.545  47.968  1.00  0.00     0.048 C 
HETATM   27  C3  UNL     1      27.931   5.186  48.502  1.00  0.00    -0.015 A 
ENDBRANCH  21  22
ENDBRANCH  18  21
ENDBRANCH  16  18
ENDBRANCH   1  16
TORSDOF 9
ENDMDL
MODEL 2
REMARK VINA RESULT:      -8.3      1.212      1.691
REMARK  9 active torsions:
REMARK  status: ('A' for Active; 'I' for Inactive)
REMARK    1  A    between atoms: C6_6  and  C7_7 
REMARK    2  A    between atoms: C7_7  and  S1_8 
REMARK    3  A    between atoms: S1_8  and  N1_11 
REMARK    4  A    between atoms: N1_11  and  C8_12 
REMARK    5  A    between atoms: C9_13  and  C10_14 
REMARK    6  A    between atoms: C10_14  and  C11_15 
REMARK    7  A    between atoms: C13_17  and  N2_18 
REMARK    8  A    between atoms: N2_18  and  O3_19 
REMARK    9  A    between atoms: C16_22  and  O4_23 
ROOT
HETATM    1  C8  UNL     1      23.070   0.445  52.931  1.00  0.00     0.096 C 
HETATM    2  C9  UNL     1      24.213  -0.093  53.248  1.00  0.00    -0.008 C 
ENDROOT
BRANCH   2   3
HETATM    3  C10 UNL     1      25.576   0.213  53.652  1.00  0.00     0.044 C 
BRANCH   3   4
HETATM    4  C11 UNL     1      26.589   0.323  52.553  1.00  0.00     0.070 C 
HETATM    5  C12 UNL     1      27.432  -0.929  52.664  1.00  0.00     0.012 C 
HETATM    6  C13 UNL     1      28.477  -1.028  53.466  1.00  0.00     0.032 C 
HETATM    7  C14 UNL     1      28.858   0.143  54.302  1.00  0.00     0.088 C 
HETATM    8  C15 UNL     1      28.579   1.377  53.525  1.00  0.00     0.012 C 
HETATM    9  C16 UNL     1      27.517   1.473  52.701  1.00  0.00     0.048 C 
BRANCH   6  10
HETATM   10  N2  UNL     1      29.212  -2.247  53.506  1.00  0.00    -0.273 N 
HETATM   11  H17 UNL     1      30.235  -2.277  53.724  1.00  0.00     0.193 HD
BRANCH  10  12
HETATM   12  O3  UNL     1      28.612  -3.434  53.259  1.00  0.00    -0.290 OA
HETATM   13  H18 UNL     1      29.256  -4.015  52.811  1.00  0.00     0.244 HD
ENDBRANCH  10  12
ENDBRANCH   6  10
BRANCH   9  14
HETATM   14  O4  UNL     1      27.465   2.736  52.076  1.00  0.00    -0.365 OA
HETATM   15  H22 UNL     1      26.960   3.517  52.508  1.00  0.00     0.217 HD
ENDBRANCH   9  14
ENDBRANCH   3   4
ENDBRANCH   2   3
BRANCH   1  16
HETATM   16  N1  UNL     1      22.303   1.608  52.740  1.00  0.00    -0.295 N 
HETATM   17  H10 UNL     1      21.288   1.726  53.051  1.00  0.00     0.177 HD
BRANCH  16  18
HETATM   18  S1  UNL     1      23.125   2.904  51.946  1.00  0.00     0.233 S 
HETATM   19  O1  UNL     1      22.244   4.109  51.983  1.00  0.00    -0.205 OA
HETATM   20  O2  UNL     1      24.392   3.215  52.704  1.00  0.00    -0.205 OA
BRANCH  18  21
HETATM   21  C7  UNL     1      23.510   2.531  50.260  1.00  0.00     0.191 C 
BRANCH  21  22
HETATM   22  C6  UNL     1      24.759   3.150  49.813  1.00  0.00    -0.002 C 
HETATM   23  C5  UNL     1      24.980   4.381  49.443  1.00  0.00    -0.052 A 
HETATM   24  C2  UNL     1      26.185   5.081  48.985  1.00  0.00    -0.059 A 
HETATM   25  C4  UNL     1      24.128   5.594  49.321  1.00  0.00     0.066 A 
HETATM   26  C1  UNL     1      27.619   4.698  48.756  1.00  0.00     0.048 C 
HETATM   27  C3  UNL     1      25.421   6.177  48.874  1.00  0.00    -0.015 A 
ENDBRANCH  21  22
ENDBRANCH  18  21
ENDBRANCH  16  18
ENDBRANCH   1  16
TORSDOF 9
ENDMDL
MODEL 3
REMARK VINA RESULT:      -8.1      2.976      5.067
REMARK  9 active torsions:
REMARK  status: ('A' for Active; 'I' for Inactive)
REMARK    1  A    between atoms: C6_6  and  C7_7 
REMARK    2  A    between atoms: C7_7  and  S1_8 
REMARK    3  A    between atoms: S1_8  and  N1_11 
REMARK    4  A    between atoms: N1_11  and  C8_12 
REMARK    5  A    between atoms: C9_13  and  C10_14 
REMARK    6  A    between atoms: C10_14  and  C11_15 
REMARK    7  A    between atoms: C13_17  and  N2_18 
REMARK    8  A    between atoms: N2_18  and  O3_19 
REMARK    9  A    between atoms: C16_22  and  O4_23 
ROOT
HETATM    1  C8  UNL     1      23.994   3.319  52.206  1.00  0.00     0.096 C 
HETATM    2  C9  UNL     1      24.759   2.823  53.137  1.00  0.00    -0.008 C 
ENDROOT
BRANCH   2   3
HETATM    3  C10 UNL     1      25.637   1.709  53.456  1.00  0.00     0.044 C 
BRANCH   3   4
HETATM    4  C11 UNL     1      26.766   1.456  52.504  1.00  0.00     0.070 C 
HETATM    5  C12 UNL     1      26.740  -0.035  52.244  1.00  0.00     0.012 C 
HETATM    6  C13 UNL     1      27.346  -0.915  53.020  1.00  0.00     0.032 C 
HETATM    7  C14 UNL     1      28.098  -0.430  54.209  1.00  0.00     0.088 C 
HETATM    8  C15 UNL     1      28.723   0.872  53.863  1.00  0.00     0.012 C 
HETATM    9  C16 UNL     1      28.108   1.765  53.063  1.00  0.00     0.048 C 
BRANCH   6  10
HETATM   10  N2  UNL     1      27.266  -2.300  52.698  1.00  0.00    -0.273 N 
HETATM   11  H17 UNL     1      26.411  -2.725  52.269  1.00  0.00     0.193 HD
BRANCH  10  12
HETATM   12  O3  UNL     1      28.302  -3.135  52.936  1.00  0.00    -0.290 OA
HETATM   13  H18 UNL     1      28.735  -2.856  53.765  1.00  0.00     0.244 HD
ENDBRANCH  10  12
ENDBRANCH   6  10
BRANCH   9  14
HETATM   14  O4  UNL     1      28.896   2.920  52.881  1.00  0.00    -0.365 OA
HETATM   15  H22 UNL     1      28.463   3.845  52.797  1.00  0.00     0.217 HD
ENDBRANCH   9  14
ENDBRANCH   3   4
ENDBRANCH   2   3
BRANCH   1  16
HETATM   16  N1  UNL     1      23.454   3.209  50.912  1.00  0.00    -0.295 N 
HETATM   17  H10 UNL     1      23.988   3.412  50.010  1.00  0.00     0.177 HD
BRANCH  16  18
HETATM   18  S1  UNL     1      21.804   2.697  50.850  1.00  0.00     0.233 S 
HETATM   19  O1  UNL     1      21.094   3.262  52.036  1.00  0.00    -0.205 OA
HETATM   20  O2  UNL     1      21.167   3.258  49.602  1.00  0.00    -0.205 OA
BRANCH  18  21
HETATM   21  C7  UNL     1      21.638   0.936  50.870  1.00  0.00     0.191 C 
BRANCH  21  22
HETATM   22  C6  UNL     1      22.362   0.310  51.979  1.00  0.00    -0.002 C 
HETATM   23  C5  UNL     1      21.942   0.031  53.180  1.00  0.00    -0.052 A 
HETATM   24  C2  UNL     1      22.590  -0.588  54.341  1.00  0.00    -0.059 A 
HETATM   25  C4  UNL     1      20.650   0.212  53.894  1.00  0.00     0.066 A 
HETATM   26  C1  UNL     1      23.955  -1.142  54.632  1.00  0.00     0.048 C 
HETATM   27  C3  UNL     1      21.427  -0.427  54.989  1.00  0.00    -0.015 A 
ENDBRANCH  21  22
ENDBRANCH  18  21
ENDBRANCH  16  18
ENDBRANCH   1  16
TORSDOF 9
ENDMDL
MODEL 4
REMARK VINA RESULT:      -7.9      2.213      3.593
REMARK  9 active torsions:
REMARK  status: ('A' for Active; 'I' for Inactive)
REMARK    1  A    between atoms: C6_6  and  C7_7 
REMARK    2  A    between atoms: C7_7  and  S1_8 
REMARK    3  A    between atoms: S1_8  and  N1_11 
REMARK    4  A    between atoms: N1_11  and  C8_12 
REMARK    5  A    between atoms: C9_13  and  C10_14 
REMARK    6  A    between atoms: C10_14  and  C11_15 
REMARK    7  A    between atoms: C13_17  and  N2_18 
REMARK    8  A    between atoms: N2_18  and  O3_19 
REMARK    9  A    between atoms: C16_22  and  O4_23 
ROOT
HETATM    1  C8  UNL     1      23.990   3.002  52.511  1.00  0.00     0.096 C 
HETATM    2  C9  UNL     1      24.151   1.751  52.834  1.00  0.00    -0.008 C 
ENDROOT
BRANCH   2   3
HETATM    3  C10 UNL     1      25.155   0.723  53.060  1.00  0.00     0.044 C 
BRANCH   3   4
HETATM    4  C11 UNL     1      26.299   0.684  52.092  1.00  0.00     0.070 C 
HETATM    5  C12 UNL     1      27.000  -0.630  52.360  1.00  0.00     0.012 C 
HETATM    6  C13 UNL     1      27.928  -0.779  53.289  1.00  0.00     0.032 C 
HETATM    7  C14 UNL     1      28.314   0.396  54.118  1.00  0.00     0.088 C 
HETATM    8  C15 UNL     1      28.248   1.608  53.261  1.00  0.00     0.012 C 
HETATM    9  C16 UNL     1      27.308   1.754  52.308  1.00  0.00     0.048 C 
BRANCH   6  10
HETATM   10  N2  UNL     1      28.533  -2.055  53.471  1.00  0.00    -0.273 N 
HETATM   11  H17 UNL     1      29.311  -2.212  54.154  1.00  0.00     0.193 HD
BRANCH  10  12
HETATM   12  O3  UNL     1      28.125  -3.130  52.761  1.00  0.00    -0.290 OA
HETATM   13  H18 UNL     1      28.691  -3.206  51.969  1.00  0.00     0.244 HD
ENDBRANCH  10  12
ENDBRANCH   6  10
BRANCH   9  14
HETATM   14  O4  UNL     1      27.451   2.982  51.629  1.00  0.00    -0.365 OA
HETATM   15  H22 UNL     1      26.745   3.719  51.721  1.00  0.00     0.217 HD
ENDBRANCH   9  14
ENDBRANCH   3   4
ENDBRANCH   2   3
BRANCH   1  16
HETATM   16  N1  UNL     1      24.569   4.235  52.160  1.00  0.00    -0.295 N 
HETATM   17  H10 UNL     1      24.975   4.937  52.855  1.00  0.00     0.177 HD
BRANCH  16  18
HETATM   18  S1  UNL     1      24.597   4.574  50.466  1.00  0.00     0.233 S 
HETATM   19  O1  UNL     1      23.521   5.566  50.169  1.00  0.00    -0.205 OA
HETATM   20  O2  UNL     1      25.928   5.194  50.115  1.00  0.00    -0.205 OA
BRANCH  18  21
HETATM   21  C7  UNL     1      24.329   3.130  49.480  1.00  0.00     0.191 C 
BRANCH  21  22
HETATM   22  C6  UNL     1      22.990   3.088  48.888  1.00  0.00    -0.002 C 
HETATM   23  C5  UNL     1      22.009   2.266  49.135  1.00  0.00    -0.052 A 
HETATM   24  C2  UNL     1      20.650   2.151  48.596  1.00  0.00    -0.059 A 
HETATM   25  C4  UNL     1      21.834   1.108  50.050  1.00  0.00     0.066 A 
HETATM   26  C1  UNL     1      19.840   2.895  47.574  1.00  0.00     0.048 C 
HETATM   27  C3  UNL     1      20.487   1.105  49.419  1.00  0.00    -0.015 A 
ENDBRANCH  21  22
ENDBRANCH  18  21
ENDBRANCH  16  18
ENDBRANCH   1  16
TORSDOF 9
ENDMDL
MODEL 5
REMARK VINA RESULT:      -7.8      2.971      7.282
REMARK  9 active torsions:
REMARK  status: ('A' for Active; 'I' for Inactive)
REMARK    1  A    between atoms: C6_6  and  C7_7 
REMARK    2  A    between atoms: C7_7  and  S1_8 
REMARK    3  A    between atoms: S1_8  and  N1_11 
REMARK    4  A    between atoms: N1_11  and  C8_12 
REMARK    5  A    between atoms: C9_13  and  C10_14 
REMARK    6  A    between atoms: C10_14  and  C11_15 
REMARK    7  A    between atoms: C13_17  and  N2_18 
REMARK    8  A    between atoms: N2_18  and  O3_19 
REMARK    9  A    between atoms: C16_22  and  O4_23 
ROOT
HETATM    1  C8  UNL     1      27.076   1.986  52.724  1.00  0.00     0.096 C 
HETATM    2  C9  UNL     1      26.568   2.475  51.629  1.00  0.00    -0.008 C 
ENDROOT
BRANCH   2   3
HETATM    3  C10 UNL     1      25.352   3.022  51.049  1.00  0.00     0.044 C 
BRANCH   3   4
HETATM    4  C11 UNL     1      25.343   3.194  49.559  1.00  0.00     0.070 C 
HETATM    5  C12 UNL     1      26.588   3.995  49.245  1.00  0.00     0.012 C 
HETATM    6  C13 UNL     1      26.628   5.315  49.284  1.00  0.00     0.032 C 
HETATM    7  C14 UNL     1      25.394   6.063  49.651  1.00  0.00     0.088 C 
HETATM    8  C15 UNL     1      24.226   5.329  49.099  1.00  0.00     0.012 C 
HETATM    9  C16 UNL     1      24.191   3.983  49.051  1.00  0.00     0.048 C 
BRANCH   6  10
HETATM   10  N2  UNL     1      27.845   5.985  48.974  1.00  0.00    -0.273 N 
HETATM   11  H17 UNL     1      27.869   6.983  48.659  1.00  0.00     0.193 HD
BRANCH  10  12
HETATM   12  O3  UNL     1      29.036   5.353  49.072  1.00  0.00    -0.290 OA
HETATM   13  H18 UNL     1      29.632   5.715  48.387  1.00  0.00     0.244 HD
ENDBRANCH  10  12
ENDBRANCH   6  10
BRANCH   9  14
HETATM   14  O4  UNL     1      22.985   3.521  48.486  1.00  0.00    -0.365 OA
HETATM   15  H22 UNL     1      22.248   3.119  49.075  1.00  0.00     0.217 HD
ENDBRANCH   9  14
ENDBRANCH   3   4
ENDBRANCH   2   3
BRANCH   1  16
HETATM   16  N1  UNL     1      26.900   1.628  54.073  1.00  0.00    -0.295 N 
HETATM   17  H10 UNL     1      26.889   2.316  54.889  1.00  0.00     0.177 HD
BRANCH  16  18
HETATM   18  S1  UNL     1      26.688  -0.063  54.359  1.00  0.00     0.233 S 
HETATM   19  O1  UNL     1      28.026  -0.722  54.282  1.00  0.00    -0.205 OA
HETATM   20  O2  UNL     1      26.141  -0.257  55.752  1.00  0.00    -0.205 OA
BRANCH  18  21
HETATM   21  C7  UNL     1      25.610  -0.822  53.179  1.00  0.00     0.191 C 
BRANCH  21  22
HETATM   22  C6  UNL     1      24.309  -0.155  53.088  1.00  0.00    -0.002 C 
HETATM   23  C5  UNL     1      23.234  -0.353  53.797  1.00  0.00    -0.052 A 
HETATM   24  C2  UNL     1      21.902   0.261  53.776  1.00  0.00    -0.059 A 
HETATM   25  C4  UNL     1      22.885  -1.269  54.916  1.00  0.00     0.066 A 
HETATM   26  C1  UNL     1      21.234   1.334  52.966  1.00  0.00     0.048 C 
HETATM   27  C3  UNL     1      21.582  -0.564  54.785  1.00  0.00    -0.015 A 
ENDBRANCH  21  22
ENDBRANCH  18  21
ENDBRANCH  16  18
ENDBRANCH   1  16
TORSDOF 9
ENDMDL
MODEL 6
REMARK VINA RESULT:      -7.7      3.047      7.575
REMARK  9 active torsions:
REMARK  status: ('A' for Active; 'I' for Inactive)
REMARK    1  A    between atoms: C6_6  and  C7_7 
REMARK    2  A    between atoms: C7_7  and  S1_8 
REMARK    3  A    between atoms: S1_8  and  N1_11 
REMARK    4  A    between atoms: N1_11  and  C8_12 
REMARK    5  A    between atoms: C9_13  and  C10_14 
REMARK    6  A    between atoms: C10_14  and  C11_15 
REMARK    7  A    between atoms: C13_17  and  N2_18 
REMARK    8  A    between atoms: N2_18  and  O3_19 
REMARK    9  A    between atoms: C16_22  and  O4_23 
ROOT
HETATM    1  C8  UNL     1      26.967   2.229  52.495  1.00  0.00     0.096 C 
HETATM    2  C9  UNL     1      26.158   2.453  51.498  1.00  0.00    -0.008 C 
ENDROOT
BRANCH   2   3
HETATM    3  C10 UNL     1      24.763   2.396  51.091  1.00  0.00     0.044 C 
BRANCH   3   4
HETATM    4  C11 UNL     1      24.328   3.394  50.062  1.00  0.00     0.070 C 
HETATM    5  C12 UNL     1      24.731   4.742  50.621  1.00  0.00     0.012 C 
HETATM    6  C13 UNL     1      23.974   5.435  51.452  1.00  0.00     0.032 C 
HETATM    7  C14 UNL     1      22.656   4.878  51.863  1.00  0.00     0.088 C 
HETATM    8  C15 UNL     1      22.083   4.144  50.706  1.00  0.00     0.012 C 
HETATM    9  C16 UNL     1      22.858   3.444  49.854  1.00  0.00     0.048 C 
BRANCH   6  10
HETATM   10  N2  UNL     1      24.436   6.695  51.929  1.00  0.00    -0.273 N 
HETATM   11  H17 UNL     1      25.196   6.777  52.644  1.00  0.00     0.193 HD
BRANCH  10  12
HETATM   12  O3  UNL     1      23.906   7.853  51.474  1.00  0.00    -0.290 OA
HETATM   13  H18 UNL     1      23.530   7.690  50.587  1.00  0.00     0.244 HD
ENDBRANCH  10  12
ENDBRANCH   6  10
BRANCH   9  14
HETATM   14  O4  UNL     1      22.088   2.838  48.840  1.00  0.00    -0.365 OA
HETATM   15  H22 UNL     1      21.072   2.741  48.937  1.00  0.00     0.217 HD
ENDBRANCH   9  14
ENDBRANCH   3   4
ENDBRANCH   2   3
BRANCH   1  16
HETATM   16  N1  UNL     1      27.144   1.804  53.824  1.00  0.00    -0.295 N 
HETATM   17  H10 UNL     1      27.277   2.457  54.659  1.00  0.00     0.177 HD
BRANCH  16  18
HETATM   18  S1  UNL     1      27.132   0.091  54.052  1.00  0.00     0.233 S 
HETATM   19  O1  UNL     1      27.409  -0.558  52.737  1.00  0.00    -0.205 OA
HETATM   20  O2  UNL     1      28.237  -0.281  55.011  1.00  0.00    -0.205 OA
BRANCH  18  21
HETATM   21  C7  UNL     1      25.581  -0.500  54.665  1.00  0.00     0.191 C 
BRANCH  21  22
HETATM   22  C6  UNL     1      24.469  -0.231  53.751  1.00  0.00    -0.002 C 
HETATM   23  C5  UNL     1      23.205  -0.519  53.888  1.00  0.00    -0.052 A 
HETATM   24  C2  UNL     1      22.035  -0.289  53.034  1.00  0.00    -0.059 A 
HETATM   25  C4  UNL     1      22.406  -1.192  54.945  1.00  0.00     0.066 A 
HETATM   26  C1  UNL     1      21.800   0.347  51.695  1.00  0.00     0.048 C 
HETATM   27  C3  UNL     1      21.310  -0.897  53.984  1.00  0.00    -0.015 A 
ENDBRANCH  21  22
ENDBRANCH  18  21
ENDBRANCH  16  18
ENDBRANCH   1  16
TORSDOF 9
ENDMDL
MODEL 7
REMARK VINA RESULT:      -7.7      1.694      3.001
REMARK  9 active torsions:
REMARK  status: ('A' for Active; 'I' for Inactive)
REMARK    1  A    between atoms: C6_6  and  C7_7 
REMARK    2  A    between atoms: C7_7  and  S1_8 
REMARK    3  A    between atoms: S1_8  and  N1_11 
REMARK    4  A    between atoms: N1_11  and  C8_12 
REMARK    5  A    between atoms: C9_13  and  C10_14 
REMARK    6  A    between atoms: C10_14  and  C11_15 
REMARK    7  A    between atoms: C13_17  and  N2_18 
REMARK    8  A    between atoms: N2_18  and  O3_19 
REMARK    9  A    between atoms: C16_22  and  O4_23 
ROOT
HETATM    1  C8  UNL     1      24.337   0.717  52.238  1.00  0.00     0.096 C 
HETATM    2  C9  UNL     1      25.236  -0.090  52.726  1.00  0.00    -0.008 C 
ENDROOT
BRANCH   2   3
HETATM    3  C10 UNL     1      26.586  -0.592  52.527  1.00  0.00     0.044 C 
BRANCH   3   4
HETATM    4  C11 UNL     1      27.266  -1.172  53.730  1.00  0.00     0.070 C 
HETATM    5  C12 UNL     1      27.744   0.021  54.529  1.00  0.00     0.012 C 
HETATM    6  C13 UNL     1      28.897   0.625  54.308  1.00  0.00     0.032 C 
HETATM    7  C14 UNL     1      29.782   0.115  53.225  1.00  0.00     0.088 C 
HETATM    8  C15 UNL     1      29.648  -1.364  53.175  1.00  0.00     0.012 C 
HETATM    9  C16 UNL     1      28.472  -1.979  53.410  1.00  0.00     0.048 C 
BRANCH   6  10
HETATM   10  N2  UNL     1      29.264   1.742  55.111  1.00  0.00    -0.273 N 
HETATM   11  H17 UNL     1      28.819   1.934  56.038  1.00  0.00     0.193 HD
BRANCH  10  12
HETATM   12  O3  UNL     1      30.214   2.614  54.704  1.00  0.00    -0.290 OA
HETATM   13  H18 UNL     1      31.056   2.128  54.610  1.00  0.00     0.244 HD
ENDBRANCH  10  12
ENDBRANCH   6  10
BRANCH   9  14
HETATM   14  O4  UNL     1      28.596  -3.380  53.306  1.00  0.00    -0.365 OA
HETATM   15  H22 UNL     1      29.189  -3.905  53.956  1.00  0.00     0.217 HD
ENDBRANCH   9  14
ENDBRANCH   3   4
ENDBRANCH   2   3
BRANCH   1  16
HETATM   16  N1  UNL     1      23.971   1.649  51.250  1.00  0.00    -0.295 N 
HETATM   17  H10 UNL     1      23.209   1.491  50.518  1.00  0.00     0.177 HD
BRANCH  16  18
HETATM   18  S1  UNL     1      24.853   3.134  51.281  1.00  0.00     0.233 S 
HETATM   19  O1  UNL     1      24.219   4.033  52.291  1.00  0.00    -0.205 OA
HETATM   20  O2  UNL     1      26.269   2.851  51.718  1.00  0.00    -0.205 OA
BRANCH  18  21
HETATM   21  C7  UNL     1      24.860   3.953  49.713  1.00  0.00     0.191 C 
BRANCH  21  22
HETATM   22  C6  UNL     1      26.201   4.366  49.295  1.00  0.00    -0.002 C 
HETATM   23  C5  UNL     1      26.585   5.494  48.766  1.00  0.00    -0.052 A 
HETATM   24  C2  UNL     1      27.892   5.989  48.321  1.00  0.00    -0.059 A 
HETATM   25  C4  UNL     1      25.886   6.750  48.385  1.00  0.00     0.066 A 
HETATM   26  C1  UNL     1      29.287   5.436  48.285  1.00  0.00     0.048 C 
HETATM   27  C3  UNL     1      27.266   7.124  47.975  1.00  0.00    -0.015 A 
ENDBRANCH  21  22
ENDBRANCH  18  21
ENDBRANCH  16  18
ENDBRANCH   1  16
TORSDOF 9
ENDMDL
MODEL 8
REMARK VINA RESULT:      -7.7      1.599      1.901
REMARK  9 active torsions:
REMARK  status: ('A' for Active; 'I' for Inactive)
REMARK    1  A    between atoms: C6_6  and  C7_7 
REMARK    2  A    between atoms: C7_7  and  S1_8 
REMARK    3  A    between atoms: S1_8  and  N1_11 
REMARK    4  A    between atoms: N1_11  and  C8_12 
REMARK    5  A    between atoms: C9_13  and  C10_14 
REMARK    6  A    between atoms: C10_14  and  C11_15 
REMARK    7  A    between atoms: C13_17  and  N2_18 
REMARK    8  A    between atoms: N2_18  and  O3_19 
REMARK    9  A    between atoms: C16_22  and  O4_23 
ROOT
HETATM    1  C8  UNL     1      24.084   2.527  52.796  1.00  0.00     0.096 C 
HETATM    2  C9  UNL     1      24.341   1.281  53.078  1.00  0.00    -0.008 C 
ENDROOT
BRANCH   2   3
HETATM    3  C10 UNL     1      25.419   0.319  53.236  1.00  0.00     0.044 C 
BRANCH   3   4
HETATM    4  C11 UNL     1      26.576   0.453  52.292  1.00  0.00     0.070 C 
HETATM    5  C12 UNL     1      27.347  -0.844  52.423  1.00  0.00     0.012 C 
HETATM    6  C13 UNL     1      28.269  -1.047  53.347  1.00  0.00     0.032 C 
HETATM    7  C14 UNL     1      28.577   0.044  54.310  1.00  0.00     0.088 C 
HETATM    8  C15 UNL     1      28.455   1.341  53.596  1.00  0.00     0.012 C 
HETATM    9  C16 UNL     1      27.520   1.544  52.647  1.00  0.00     0.048 C 
BRANCH   6  10
HETATM   10  N2  UNL     1      28.942  -2.301  53.394  1.00  0.00    -0.273 N 
HETATM   11  H17 UNL     1      29.895  -2.408  53.815  1.00  0.00     0.193 HD
BRANCH  10  12
HETATM   12  O3  UNL     1      28.375  -3.420  52.891  1.00  0.00    -0.290 OA
HETATM   13  H18 UNL     1      27.624  -3.154  52.325  1.00  0.00     0.244 HD
ENDBRANCH  10  12
ENDBRANCH   6  10
BRANCH   9  14
HETATM   14  O4  UNL     1      27.603   2.847  52.115  1.00  0.00    -0.365 OA
HETATM   15  H22 UNL     1      28.163   3.571  52.579  1.00  0.00     0.217 HD
ENDBRANCH   9  14
ENDBRANCH   3   4
ENDBRANCH   2   3
BRANCH   1  16
HETATM   16  N1  UNL     1      24.564   3.804  52.456  1.00  0.00    -0.295 N 
HETATM   17  H10 UNL     1      24.931   4.522  53.156  1.00  0.00     0.177 HD
BRANCH  16  18
HETATM   18  S1  UNL     1      24.535   4.171  50.768  1.00  0.00     0.233 S 
HETATM   19  O1  UNL     1      25.932   4.082  50.246  1.00  0.00    -0.205 OA
HETATM   20  O2  UNL     1      23.694   3.137  50.059  1.00  0.00    -0.205 OA
BRANCH  18  21
HETATM   21  C7  UNL     1      23.904   5.789  50.435  1.00  0.00     0.191 C 
BRANCH  21  22
HETATM   22  C6  UNL     1      24.948   6.817  50.434  1.00  0.00    -0.002 C 
HETATM   23  C5  UNL     1      25.571   7.353  49.423  1.00  0.00    -0.052 A 
HETATM   24  C2  UNL     1      26.618   8.376  49.329  1.00  0.00    -0.059 A 
HETATM   25  C4  UNL     1      25.502   7.170  47.949  1.00  0.00     0.066 A 
HETATM   26  C1  UNL     1      27.387   9.209  50.313  1.00  0.00     0.048 C 
HETATM   27  C3  UNL     1      26.559   8.214  47.999  1.00  0.00    -0.015 A 
ENDBRANCH  21  22
ENDBRANCH  18  21
ENDBRANCH  16  18
ENDBRANCH   1  16
TORSDOF 9
ENDMDL
MODEL 9
REMARK VINA RESULT:      -7.4      1.705      2.095
REMARK  9 active torsions:
REMARK  status: ('A' for Active; 'I' for Inactive)
REMARK    1  A    between atoms: C6_6  and  C7_7 
REMARK    2  A    between atoms: C7_7  and  S1_8 
REMARK    3  A    between atoms: S1_8  and  N1_11 
REMARK    4  A    between atoms: N1_11  and  C8_12 
REMARK    5  A    between atoms: C9_13  and  C10_14 
REMARK    6  A    between atoms: C10_14  and  C11_15 
REMARK    7  A    between atoms: C13_17  and  N2_18 
REMARK    8  A    between atoms: N2_18  and  O3_19 
REMARK    9  A    between atoms: C16_22  and  O4_23 
ROOT
HETATM    1  C8  UNL     1      23.382   1.780  51.868  1.00  0.00     0.096 C 
HETATM    2  C9  UNL     1      24.002   1.180  52.843  1.00  0.00    -0.008 C 
ENDROOT
BRANCH   2   3
HETATM    3  C10 UNL     1      25.216   0.456  53.184  1.00  0.00     0.044 C 
BRANCH   3   4
HETATM    4  C11 UNL     1      26.327   0.505  52.179  1.00  0.00     0.070 C 
HETATM    5  C12 UNL     1      27.114  -0.770  52.395  1.00  0.00     0.012 C 
HETATM    6  C13 UNL     1      28.080  -0.880  53.290  1.00  0.00     0.032 C 
HETATM    7  C14 UNL     1      28.423   0.300  54.129  1.00  0.00     0.088 C 
HETATM    8  C15 UNL     1      28.256   1.522  53.301  1.00  0.00     0.012 C 
HETATM    9  C16 UNL     1      27.276   1.629  52.383  1.00  0.00     0.048 C 
BRANCH   6  10
HETATM   10  N2  UNL     1      28.766  -2.120  53.424  1.00  0.00    -0.273 N 
HETATM   11  H17 UNL     1      29.651  -2.213  53.976  1.00  0.00     0.193 HD
BRANCH  10  12
HETATM   12  O3  UNL     1      28.300  -3.245  52.837  1.00  0.00    -0.290 OA
HETATM   13  H18 UNL     1      28.674  -3.297  51.936  1.00  0.00     0.244 HD
ENDBRANCH  10  12
ENDBRANCH   6  10
BRANCH   9  14
HETATM   14  O4  UNL     1      27.323   2.876  51.727  1.00  0.00    -0.365 OA
HETATM   15  H22 UNL     1      26.700   3.079  50.938  1.00  0.00     0.217 HD
ENDBRANCH   9  14
ENDBRANCH   3   4
ENDBRANCH   2   3
BRANCH   1  16
HETATM   16  N1  UNL     1      23.368   2.176  50.518  1.00  0.00    -0.295 N 
HETATM   17  H10 UNL     1      22.863   1.653  49.736  1.00  0.00     0.177 HD
BRANCH  16  18
HETATM   18  S1  UNL     1      24.245   3.624  50.171  1.00  0.00     0.233 S 
HETATM   19  O1  UNL     1      24.547   4.309  51.464  1.00  0.00    -0.205 OA
HETATM   20  O2  UNL     1      25.550   3.256  49.509  1.00  0.00    -0.205 OA
BRANCH  18  21
HETATM   21  C7  UNL     1      23.339   4.736  49.136  1.00  0.00     0.191 C 
BRANCH  21  22
HETATM   22  C6  UNL     1      24.192   5.742  48.500  1.00  0.00    -0.002 C 
HETATM   23  C5  UNL     1      24.515   6.931  48.924  1.00  0.00    -0.052 A 
HETATM   24  C2  UNL     1      25.353   7.995  48.360  1.00  0.00    -0.059 A 
HETATM   25  C4  UNL     1      24.185   7.722  50.139  1.00  0.00     0.066 A 
HETATM   26  C1  UNL     1      26.164   8.163  47.107  1.00  0.00     0.048 C 
HETATM   27  C3  UNL     1      25.058   8.712  49.454  1.00  0.00    -0.015 A 
ENDBRANCH  21  22
ENDBRANCH  18  21
ENDBRANCH  16  18
ENDBRANCH   1  16
TORSDOF 9
ENDMDL
