MODEL 1
REMARK VINA RESULT:      -8.6      0.000      0.000
REMARK  4 active torsions:
REMARK  status: ('A' for Active; 'I' for Inactive)
REMARK    1  A    between atoms: O1_2  and  O2_3 
REMARK    2  A    between atoms: O2_3  and  C2_4 
REMARK    3  A    between atoms: C12_15  and  N1_16 
REMARK    4  A    between atoms: N1_16  and  C13_17 
ROOT
HETATM    1  C2  UNL     1      21.746   1.467  49.997  1.00  0.00     0.213 C 
HETATM    2  C3  UNL     1      20.674   1.485  51.127  1.00  0.00     0.041 C 
HETATM    3  C4  UNL     1      19.858   0.284  51.036  1.00  0.00     0.003 C 
HETATM    4  C5  UNL     1      19.010  -0.112  52.193  1.00  0.00     0.000 C 
HETATM    5  C6  UNL     1      19.851  -0.590  53.343  1.00  0.00     0.002 C 
HETATM    6  C7  UNL     1      20.466   0.406  54.220  1.00  0.00     0.027 C 
HETATM    7  C8  UNL     1      21.626  -0.206  55.055  1.00  0.00     0.174 C 
HETATM    8  O3  UNL     1      22.567  -0.717  54.113  1.00  0.00    -0.363 OA
HETATM    9  C9  UNL     1      22.985  -0.025  52.996  1.00  0.00     0.135 C 
HETATM   10  C10 UNL     1      23.269   1.109  52.409  1.00  0.00     0.041 C 
HETATM   11  C11 UNL     1      23.660   2.127  51.455  1.00  0.00     0.039 A 
HETATM   12  C12 UNL     1      24.776   2.814  51.860  1.00  0.00     0.138 A 
HETATM   13  N2  UNL     1      25.232   3.809  51.033  1.00  0.00    -0.224 NA
HETATM   14  C20 UNL     1      24.502   3.974  49.917  1.00  0.00     0.235 A 
HETATM   15  N3  UNL     1      23.410   3.281  49.551  1.00  0.00    -0.243 NA
HETATM   16  C21 UNL     1      22.910   2.294  50.310  1.00  0.00     0.082 A 
ENDROOT
BRANCH  12  17
HETATM   17  N1  UNL     1      25.452   2.545  53.071  1.00  0.00    -0.361 N 
HETATM   18  H19 UNL     1      25.121   2.958  53.959  1.00  0.00     0.162 HD
BRANCH  17  19
HETATM   19  C13 UNL     1      26.619   1.679  53.059  1.00  0.00     0.049 A 
HETATM   20  C14 UNL     1      27.851   2.525  53.380  1.00  0.00     0.043 C 
HETATM   21  C15 UNL     1      26.437   0.715  54.202  1.00  0.00     0.007 A 
HETATM   22  C16 UNL     1      26.462  -0.603  54.173  1.00  0.00     0.040 A 
HETATM   23  C17 UNL     1      26.687  -1.284  52.920  1.00  0.00     0.112 A 
HETATM   24  F1  UNL     1      26.730  -2.631  52.792  1.00  0.00    -0.206 F 
HETATM   25  C18 UNL     1      26.854  -0.500  51.871  1.00  0.00     0.018 A 
HETATM   26  C19 UNL     1      26.848   0.980  51.769  1.00  0.00     0.065 A 
ENDBRANCH  17  19
ENDBRANCH  12  17
BRANCH   1  27
HETATM   27  O2  UNL     1      21.117   1.638  48.821  1.00  0.00    -0.230 OA
BRANCH  27  28
HETATM   28  O1  UNL     1      20.310   2.653  48.717  1.00  0.00    -0.245 OA
HETATM   29  C1  UNL     1      20.400   3.116  47.400  1.00  0.00     0.247 C 
ENDBRANCH  27  28
ENDBRANCH   1  27
TORSDOF 4
ENDMDL
MODEL 2
REMARK VINA RESULT:      -8.6      2.155      4.244
REMARK  4 active torsions:
REMARK  status: ('A' for Active; 'I' for Inactive)
REMARK    1  A    between atoms: O1_2  and  O2_3 
REMARK    2  A    between atoms: O2_3  and  C2_4 
REMARK    3  A    between atoms: C12_15  and  N1_16 
REMARK    4  A    between atoms: N1_16  and  C13_17 
ROOT
HETATM    1  C2  UNL     1      20.994   0.426  51.967  1.00  0.00     0.213 C 
HETATM    2  C3  UNL     1      21.325   0.591  50.454  1.00  0.00     0.041 C 
HETATM    3  C4  UNL     1      20.300   1.409  49.823  1.00  0.00     0.003 C 
HETATM    4  C5  UNL     1      20.564   2.005  48.484  1.00  0.00     0.000 C 
HETATM    5  C6  UNL     1      21.593   3.096  48.571  1.00  0.00     0.002 C 
HETATM    6  C7  UNL     1      23.006   2.722  48.608  1.00  0.00     0.027 C 
HETATM    7  C8  UNL     1      23.893   3.886  49.133  1.00  0.00     0.174 C 
HETATM    8  O3  UNL     1      23.406   4.199  50.437  1.00  0.00    -0.363 OA
HETATM    9  C9  UNL     1      23.106   3.249  51.390  1.00  0.00     0.135 C 
HETATM   10  C10 UNL     1      23.341   2.086  51.942  1.00  0.00     0.041 C 
HETATM   11  C11 UNL     1      23.302   0.907  52.782  1.00  0.00     0.039 A 
HETATM   12  C12 UNL     1      24.461   0.743  53.498  1.00  0.00     0.138 A 
HETATM   13  N2  UNL     1      24.536  -0.349  54.324  1.00  0.00    -0.224 NA
HETATM   14  C20 UNL     1      23.438  -1.123  54.315  1.00  0.00     0.235 A 
HETATM   15  N3  UNL     1      22.316  -0.932  53.599  1.00  0.00    -0.243 NA
HETATM   16  C21 UNL     1      22.173   0.115  52.772  1.00  0.00     0.082 A 
ENDROOT
BRANCH  12  17
HETATM   17  N1  UNL     1      25.555   1.633  53.412  1.00  0.00    -0.361 N 
HETATM   18  H19 UNL     1      25.512   2.562  53.864  1.00  0.00     0.162 HD
BRANCH  17  19
HETATM   19  C13 UNL     1      26.745   1.232  52.682  1.00  0.00     0.049 A 
HETATM   20  C14 UNL     1      26.739   1.934  51.324  1.00  0.00     0.043 C 
HETATM   21  C15 UNL     1      27.916   1.779  53.455  1.00  0.00     0.007 A 
HETATM   22  C16 UNL     1      28.966   1.131  53.919  1.00  0.00     0.040 A 
HETATM   23  C17 UNL     1      29.080  -0.292  53.700  1.00  0.00     0.112 A 
HETATM   24  F1  UNL     1      30.118  -1.041  54.136  1.00  0.00    -0.206 F 
HETATM   25  C18 UNL     1      28.086  -0.842  53.027  1.00  0.00     0.018 A 
HETATM   26  C19 UNL     1      26.860  -0.232  52.456  1.00  0.00     0.065 A 
ENDBRANCH  17  19
ENDBRANCH  12  17
BRANCH   1  27
HETATM   27  O2  UNL     1      19.902  -0.351  52.074  1.00  0.00    -0.230 OA
BRANCH  27  28
HETATM   28  O1  UNL     1      19.093  -0.110  53.064  1.00  0.00    -0.245 OA
HETATM   29  C1  UNL     1      18.206  -1.190  53.141  1.00  0.00     0.247 C 
ENDBRANCH  27  28
ENDBRANCH   1  27
TORSDOF 4
ENDMDL
MODEL 3
REMARK VINA RESULT:      -8.2      2.697      5.332
REMARK  4 active torsions:
REMARK  status: ('A' for Active; 'I' for Inactive)
REMARK    1  A    between atoms: O1_2  and  O2_3 
REMARK    2  A    between atoms: O2_3  and  C2_4 
REMARK    3  A    between atoms: C12_15  and  N1_16 
REMARK    4  A    between atoms: N1_16  and  C13_17 
ROOT
HETATM    1  C2  UNL     1      22.388   0.154  53.259  1.00  0.00     0.213 C 
HETATM    2  C3  UNL     1      21.336   0.131  52.112  1.00  0.00     0.041 C 
HETATM    3  C4  UNL     1      19.999   0.106  52.684  1.00  0.00     0.003 C 
HETATM    4  C5  UNL     1      18.830   0.437  51.823  1.00  0.00     0.000 C 
HETATM    5  C6  UNL     1      18.814   1.897  51.470  1.00  0.00     0.002 C 
HETATM    6  C7  UNL     1      19.666   2.361  50.375  1.00  0.00     0.027 C 
HETATM    7  C8  UNL     1      19.874   3.901  50.424  1.00  0.00     0.174 C 
HETATM    8  O3  UNL     1      20.462   4.182  51.693  1.00  0.00    -0.363 OA
HETATM    9  C9  UNL     1      21.506   3.459  52.230  1.00  0.00     0.135 C 
HETATM   10  C10 UNL     1      22.601   2.761  52.066  1.00  0.00     0.041 C 
HETATM   11  C11 UNL     1      23.793   1.966  52.277  1.00  0.00     0.039 A 
HETATM   12  C12 UNL     1      24.928   2.614  51.858  1.00  0.00     0.138 A 
HETATM   13  N2  UNL     1      26.118   1.949  52.004  1.00  0.00    -0.224 NA
HETATM   14  C20 UNL     1      26.002   0.727  52.550  1.00  0.00     0.235 A 
HETATM   15  N3  UNL     1      24.870   0.121  52.951  1.00  0.00    -0.243 NA
HETATM   16  C21 UNL     1      23.671   0.713  52.838  1.00  0.00     0.082 A 
ENDROOT
BRANCH  12  17
HETATM   17  N1  UNL     1      24.913   3.907  51.289  1.00  0.00    -0.361 N 
HETATM   18  H19 UNL     1      24.701   4.735  51.872  1.00  0.00     0.162 HD
BRANCH  17  19
HETATM   19  C13 UNL     1      25.199   4.067  49.874  1.00  0.00     0.049 A 
HETATM   20  C14 UNL     1      24.090   3.384  49.075  1.00  0.00     0.043 C 
HETATM   21  C15 UNL     1      25.101   5.544  49.590  1.00  0.00     0.007 A 
HETATM   22  C16 UNL     1      25.998   6.333  49.034  1.00  0.00     0.040 A 
HETATM   23  C17 UNL     1      27.268   5.785  48.617  1.00  0.00     0.112 A 
HETATM   24  F1  UNL     1      28.249   6.514  48.038  1.00  0.00    -0.206 F 
HETATM   25  C18 UNL     1      27.427   4.493  48.836  1.00  0.00     0.018 A 
HETATM   26  C19 UNL     1      26.505   3.503  49.447  1.00  0.00     0.065 A 
ENDBRANCH  17  19
ENDBRANCH  12  17
BRANCH   1  27
HETATM   27  O2  UNL     1      22.363  -1.042  53.874  1.00  0.00    -0.230 OA
BRANCH  27  28
HETATM   28  O1  UNL     1      22.202  -1.046  55.165  1.00  0.00    -0.245 OA
HETATM   29  C1  UNL     1      23.409  -1.478  55.727  1.00  0.00     0.247 C 
ENDBRANCH  27  28
ENDBRANCH   1  27
TORSDOF 4
ENDMDL
MODEL 4
REMARK VINA RESULT:      -8.0      3.310      5.639
REMARK  4 active torsions:
REMARK  status: ('A' for Active; 'I' for Inactive)
REMARK    1  A    between atoms: O1_2  and  O2_3 
REMARK    2  A    between atoms: O2_3  and  C2_4 
REMARK    3  A    between atoms: C12_15  and  N1_16 
REMARK    4  A    between atoms: N1_16  and  C13_17 
ROOT
HETATM    1  C2  UNL     1      22.679   1.530  52.177  1.00  0.00     0.213 C 
HETATM    2  C3  UNL     1      23.606   1.224  53.390  1.00  0.00     0.041 C 
HETATM    3  C4  UNL     1      23.982  -0.181  53.368  1.00  0.00     0.003 C 
HETATM    4  C5  UNL     1      25.129  -0.644  54.197  1.00  0.00     0.000 C 
HETATM    5  C6  UNL     1      26.432  -0.132  53.651  1.00  0.00     0.002 C 
HETATM    6  C7  UNL     1      26.836   1.235  53.974  1.00  0.00     0.027 C 
HETATM    7  C8  UNL     1      27.939   1.750  53.006  1.00  0.00     0.174 C 
HETATM    8  O3  UNL     1      27.384   1.671  51.695  1.00  0.00    -0.363 OA
HETATM    9  C9  UNL     1      26.113   2.099  51.374  1.00  0.00     0.135 C 
HETATM   10  C10 UNL     1      25.116   2.925  51.563  1.00  0.00     0.041 C 
HETATM   11  C11 UNL     1      23.849   3.623  51.488  1.00  0.00     0.039 A 
HETATM   12  C12 UNL     1      24.000   4.931  51.103  1.00  0.00     0.138 A 
HETATM   13  N2  UNL     1      22.861   5.689  51.006  1.00  0.00    -0.224 NA
HETATM   14  C20 UNL     1      21.732   5.028  51.310  1.00  0.00     0.235 A 
HETATM   15  N3  UNL     1      21.620   3.741  51.684  1.00  0.00    -0.243 NA
HETATM   16  C21 UNL     1      22.691   2.941  51.799  1.00  0.00     0.082 A 
ENDROOT
BRANCH  12  17
HETATM   17  N1  UNL     1      25.256   5.512  50.817  1.00  0.00    -0.361 N 
HETATM   18  H19 UNL     1      25.883   5.809  51.583  1.00  0.00     0.162 HD
BRANCH  17  19
HETATM   19  C13 UNL     1      25.662   5.688  49.434  1.00  0.00     0.049 A 
HETATM   20  C14 UNL     1      24.426   5.547  48.545  1.00  0.00     0.043 C 
HETATM   21  C15 UNL     1      26.130   7.115  49.312  1.00  0.00     0.007 A 
HETATM   22  C16 UNL     1      27.286   7.562  48.863  1.00  0.00     0.040 A 
HETATM   23  C17 UNL     1      28.286   6.623  48.411  1.00  0.00     0.112 A 
HETATM   24  F1  UNL     1      29.499   6.986  47.933  1.00  0.00    -0.206 F 
HETATM   25  C18 UNL     1      27.945   5.350  48.489  1.00  0.00     0.018 A 
HETATM   26  C19 UNL     1      26.690   4.722  48.971  1.00  0.00     0.065 A 
ENDBRANCH  17  19
ENDBRANCH  12  17
BRANCH   1  27
HETATM   27  O2  UNL     1      21.501   0.916  52.385  1.00  0.00    -0.230 OA
BRANCH  27  28
HETATM   28  O1  UNL     1      21.026   0.191  51.416  1.00  0.00    -0.245 OA
HETATM   29  C1  UNL     1      19.673   0.520  51.282  1.00  0.00     0.247 C 
ENDBRANCH  27  28
ENDBRANCH   1  27
TORSDOF 4
ENDMDL
MODEL 5
REMARK VINA RESULT:      -8.0      2.981      5.738
REMARK  4 active torsions:
REMARK  status: ('A' for Active; 'I' for Inactive)
REMARK    1  A    between atoms: O1_2  and  O2_3 
REMARK    2  A    between atoms: O2_3  and  C2_4 
REMARK    3  A    between atoms: C12_15  and  N1_16 
REMARK    4  A    between atoms: N1_16  and  C13_17 
ROOT
HETATM    1  C2  UNL     1      24.686   0.943  53.265  1.00  0.00     0.213 C 
HETATM    2  C3  UNL     1      23.556  -0.098  53.017  1.00  0.00     0.041 C 
HETATM    3  C4  UNL     1      22.919  -0.430  54.283  1.00  0.00     0.003 C 
HETATM    4  C5  UNL     1      21.599  -1.117  54.278  1.00  0.00     0.000 C 
HETATM    5  C6  UNL     1      20.511  -0.196  53.801  1.00  0.00     0.002 C 
HETATM    6  C7  UNL     1      20.341  -0.003  52.362  1.00  0.00     0.027 C 
HETATM    7  C8  UNL     1      19.508   1.273  52.051  1.00  0.00     0.174 C 
HETATM    8  O3  UNL     1      20.216   2.362  52.639  1.00  0.00    -0.363 OA
HETATM    9  C9  UNL     1      21.579   2.541  52.524  1.00  0.00     0.135 C 
HETATM   10  C10 UNL     1      22.681   2.419  51.829  1.00  0.00     0.041 C 
HETATM   11  C11 UNL     1      24.058   2.451  51.380  1.00  0.00     0.039 A 
HETATM   12  C12 UNL     1      24.222   3.237  50.267  1.00  0.00     0.138 A 
HETATM   13  N2  UNL     1      25.488   3.333  49.751  1.00  0.00    -0.224 NA
HETATM   14  C20 UNL     1      26.412   2.627  50.424  1.00  0.00     0.235 A 
HETATM   15  N3  UNL     1      26.216   1.865  51.514  1.00  0.00    -0.243 NA
HETATM   16  C21 UNL     1      25.004   1.726  52.073  1.00  0.00     0.082 A 
ENDROOT
BRANCH  12  17
HETATM   17  N1  UNL     1      23.157   3.928  49.646  1.00  0.00    -0.361 N 
HETATM   18  H19 UNL     1      22.335   3.412  49.289  1.00  0.00     0.162 HD
BRANCH  17  19
HETATM   19  C13 UNL     1      23.224   5.372  49.514  1.00  0.00     0.049 A 
HETATM   20  C14 UNL     1      21.838   5.887  49.126  1.00  0.00     0.043 C 
HETATM   21  C15 UNL     1      23.523   5.906  50.890  1.00  0.00     0.007 A 
HETATM   22  C16 UNL     1      24.503   6.704  51.264  1.00  0.00     0.040 A 
HETATM   23  C17 UNL     1      25.456   7.170  50.285  1.00  0.00     0.112 A 
HETATM   24  F1  UNL     1      26.493   7.990  50.572  1.00  0.00    -0.206 F 
HETATM   25  C18 UNL     1      25.257   6.740  49.052  1.00  0.00     0.018 A 
HETATM   26  C19 UNL     1      24.205   5.849  48.505  1.00  0.00     0.065 A 
ENDBRANCH  17  19
ENDBRANCH  12  17
BRANCH   1  27
HETATM   27  O2  UNL     1      25.680   0.330  53.932  1.00  0.00    -0.230 OA
BRANCH  27  28
HETATM   28  O1  UNL     1      26.432   1.069  54.694  1.00  0.00    -0.245 OA
HETATM   29  C1  UNL     1      27.704   0.485  54.707  1.00  0.00     0.247 C 
ENDBRANCH  27  28
ENDBRANCH   1  27
TORSDOF 4
ENDMDL
MODEL 6
REMARK VINA RESULT:      -7.7      2.964      6.191
REMARK  4 active torsions:
REMARK  status: ('A' for Active; 'I' for Inactive)
REMARK    1  A    between atoms: O1_2  and  O2_3 
REMARK    2  A    between atoms: O2_3  and  C2_4 
REMARK    3  A    between atoms: C12_15  and  N1_16 
REMARK    4  A    between atoms: N1_16  and  C13_17 
ROOT
HETATM    1  C2  UNL     1      25.347   3.251  50.726  1.00  0.00     0.213 C 
HETATM    2  C3  UNL     1      26.303   2.061  51.035  1.00  0.00     0.041 C 
HETATM    3  C4  UNL     1      27.196   2.430  52.122  1.00  0.00     0.003 C 
HETATM    4  C5  UNL     1      27.953   1.367  52.838  1.00  0.00     0.000 C 
HETATM    5  C6  UNL     1      27.037   0.522  53.677  1.00  0.00     0.002 C 
HETATM    6  C7  UNL     1      26.281  -0.548  53.026  1.00  0.00     0.027 C 
HETATM    7  C8  UNL     1      25.086  -1.020  53.903  1.00  0.00     0.174 C 
HETATM    8  O3  UNL     1      24.273   0.132  54.118  1.00  0.00    -0.363 OA
HETATM    9  C9  UNL     1      23.921   1.018  53.122  1.00  0.00     0.135 C 
HETATM   10  C10 UNL     1      23.626   1.252  51.868  1.00  0.00     0.041 C 
HETATM   11  C11 UNL     1      23.266   1.880  50.614  1.00  0.00     0.039 A 
HETATM   12  C12 UNL     1      22.076   1.407  50.121  1.00  0.00     0.138 A 
HETATM   13  N2  UNL     1      21.641   1.929  48.930  1.00  0.00    -0.224 NA
HETATM   14  C20 UNL     1      22.462   2.852  48.401  1.00  0.00     0.235 A 
HETATM   15  N3  UNL     1      23.625   3.293  48.913  1.00  0.00    -0.243 NA
HETATM   16  C21 UNL     1      24.110   2.827  50.073  1.00  0.00     0.082 A 
ENDROOT
BRANCH  12  17
HETATM   17  N1  UNL     1      21.305   0.421  50.777  1.00  0.00    -0.361 N 
HETATM   18  H19 UNL     1      21.582  -0.574  50.736  1.00  0.00     0.162 HD
BRANCH  17  19
HETATM   19  C13 UNL     1      20.118   0.817  51.514  1.00  0.00     0.049 A 
HETATM   20  C14 UNL     1      20.237   2.301  51.861  1.00  0.00     0.043 C 
HETATM   21  C15 UNL     1      18.964   0.681  50.555  1.00  0.00     0.007 A 
HETATM   22  C16 UNL     1      17.847  -0.002  50.710  1.00  0.00     0.040 A 
HETATM   23  C17 UNL     1      17.628  -0.743  51.930  1.00  0.00     0.112 A 
HETATM   24  F1  UNL     1      16.515  -1.471  52.179  1.00  0.00    -0.206 F 
HETATM   25  C18 UNL     1      18.601  -0.670  52.819  1.00  0.00     0.018 A 
HETATM   26  C19 UNL     1      19.894   0.054  52.769  1.00  0.00     0.065 A 
ENDBRANCH  17  19
ENDBRANCH  12  17
BRANCH   1  27
HETATM   27  O2  UNL     1      26.074   4.240  50.176  1.00  0.00    -0.230 OA
BRANCH  27  28
HETATM   28  O1  UNL     1      26.825   3.934  49.159  1.00  0.00    -0.245 OA
HETATM   29  C1  UNL     1      27.382   5.127  48.686  1.00  0.00     0.247 C 
ENDBRANCH  27  28
ENDBRANCH   1  27
TORSDOF 4
ENDMDL
MODEL 7
REMARK VINA RESULT:      -7.6      2.641      4.546
REMARK  4 active torsions:
REMARK  status: ('A' for Active; 'I' for Inactive)
REMARK    1  A    between atoms: O1_2  and  O2_3 
REMARK    2  A    between atoms: O2_3  and  C2_4 
REMARK    3  A    between atoms: C12_15  and  N1_16 
REMARK    4  A    between atoms: N1_16  and  C13_17 
ROOT
HETATM    1  C2  UNL     1      20.992   3.009  52.275  1.00  0.00     0.213 C 
HETATM    2  C3  UNL     1      21.242   3.424  50.795  1.00  0.00     0.041 C 
HETATM    3  C4  UNL     1      21.157   4.871  50.679  1.00  0.00     0.003 C 
HETATM    4  C5  UNL     1      21.701   5.540  49.465  1.00  0.00     0.000 C 
HETATM    5  C6  UNL     1      23.202   5.476  49.438  1.00  0.00     0.002 C 
HETATM    6  C7  UNL     1      23.840   4.248  48.966  1.00  0.00     0.027 C 
HETATM    7  C8  UNL     1      25.330   4.172  49.407  1.00  0.00     0.174 C 
HETATM    8  O3  UNL     1      25.326   4.239  50.831  1.00  0.00    -0.363 OA
HETATM    9  C9  UNL     1      24.469   3.513  51.630  1.00  0.00     0.135 C 
HETATM   10  C10 UNL     1      23.774   2.426  51.848  1.00  0.00     0.041 C 
HETATM   11  C11 UNL     1      22.906   1.416  52.418  1.00  0.00     0.039 A 
HETATM   12  C12 UNL     1      23.578   0.252  52.697  1.00  0.00     0.138 A 
HETATM   13  N2  UNL     1      22.849  -0.777  53.234  1.00  0.00    -0.224 NA
HETATM   14  C20 UNL     1      21.548  -0.495  53.415  1.00  0.00     0.235 A 
HETATM   15  N3  UNL     1      20.921   0.659  53.129  1.00  0.00    -0.243 NA
HETATM   16  C21 UNL     1      21.571   1.708  52.603  1.00  0.00     0.082 A 
ENDROOT
BRANCH  12  17
HETATM   17  N1  UNL     1      24.959   0.081  52.450  1.00  0.00    -0.361 N 
HETATM   18  H19 UNL     1      25.324   0.091  51.483  1.00  0.00     0.162 HD
BRANCH  17  19
HETATM   19  C13 UNL     1      25.865  -0.110  53.569  1.00  0.00     0.049 A 
HETATM   20  C14 UNL     1      25.077  -0.711  54.733  1.00  0.00     0.043 C 
HETATM   21  C15 UNL     1      26.863  -1.149  53.129  1.00  0.00     0.007 A 
HETATM   22  C16 UNL     1      28.178  -1.071  53.122  1.00  0.00     0.040 A 
HETATM   23  C17 UNL     1      28.823   0.137  53.581  1.00  0.00     0.112 A 
HETATM   24  F1  UNL     1      30.164   0.311  53.611  1.00  0.00    -0.206 F 
HETATM   25  C18 UNL     1      28.008   1.096  53.982  1.00  0.00     0.018 A 
HETATM   26  C19 UNL     1      26.526   1.134  54.039  1.00  0.00     0.065 A 
ENDBRANCH  17  19
ENDBRANCH  12  17
BRANCH   1  27
HETATM   27  O2  UNL     1      19.699   3.243  52.562  1.00  0.00    -0.230 OA
BRANCH  27  28
HETATM   28  O1  UNL     1      18.807   2.639  51.832  1.00  0.00    -0.245 OA
HETATM   29  C1  UNL     1      17.779   3.559  51.597  1.00  0.00     0.247 C 
ENDBRANCH  27  28
ENDBRANCH   1  27
TORSDOF 4
ENDMDL
MODEL 8
REMARK VINA RESULT:      -7.5      2.767      5.768
REMARK  4 active torsions:
REMARK  status: ('A' for Active; 'I' for Inactive)
REMARK    1  A    between atoms: O1_2  and  O2_3 
REMARK    2  A    between atoms: O2_3  and  C2_4 
REMARK    3  A    between atoms: C12_15  and  N1_16 
REMARK    4  A    between atoms: N1_16  and  C13_17 
ROOT
HETATM    1  C2  UNL     1      25.644   2.041  52.459  1.00  0.00     0.213 C 
HETATM    2  C3  UNL     1      24.564   0.929  52.310  1.00  0.00     0.041 C 
HETATM    3  C4  UNL     1      24.190   0.440  53.628  1.00  0.00     0.003 C 
HETATM    4  C5  UNL     1      22.942  -0.356  53.785  1.00  0.00     0.000 C 
HETATM    5  C6  UNL     1      21.725   0.503  53.593  1.00  0.00     0.002 C 
HETATM    6  C7  UNL     1      21.286   0.799  52.230  1.00  0.00     0.027 C 
HETATM    7  C8  UNL     1      20.322   2.018  52.191  1.00  0.00     0.174 C 
HETATM    8  O3  UNL     1      21.045   3.113  52.751  1.00  0.00    -0.363 OA
HETATM    9  C9  UNL     1      22.349   3.418  52.421  1.00  0.00     0.135 C 
HETATM   10  C10 UNL     1      23.315   3.451  51.539  1.00  0.00     0.041 C 
HETATM   11  C11 UNL     1      24.583   3.639  50.865  1.00  0.00     0.039 A 
HETATM   12  C12 UNL     1      24.488   4.525  49.821  1.00  0.00     0.138 A 
HETATM   13  N2  UNL     1      25.632   4.773  49.107  1.00  0.00    -0.224 NA
HETATM   14  C20 UNL     1      26.709   4.097  49.539  1.00  0.00     0.235 A 
HETATM   15  N3  UNL     1      26.766   3.234  50.569  1.00  0.00    -0.243 NA
HETATM   16  C21 UNL     1      25.687   2.945  51.312  1.00  0.00     0.082 A 
ENDROOT
BRANCH  12  17
HETATM   17  N1  UNL     1      23.283   5.169  49.462  1.00  0.00    -0.361 N 
HETATM   18  H19 UNL     1      23.016   6.066  49.902  1.00  0.00     0.162 HD
BRANCH  17  19
HETATM   19  C13 UNL     1      22.419   4.561  48.466  1.00  0.00     0.049 A 
HETATM   20  C14 UNL     1      22.593   5.317  47.149  1.00  0.00     0.043 C 
HETATM   21  C15 UNL     1      22.946   3.167  48.247  1.00  0.00     0.007 A 
HETATM   22  C16 UNL     1      22.298   2.023  48.334  1.00  0.00     0.040 A 
HETATM   23  C17 UNL     1      20.896   2.023  48.681  1.00  0.00     0.112 A 
HETATM   24  F1  UNL     1      20.147   0.902  48.793  1.00  0.00    -0.206 F 
HETATM   25  C18 UNL     1      20.364   3.213  48.889  1.00  0.00     0.018 A 
HETATM   26  C19 UNL     1      20.977   4.563  48.825  1.00  0.00     0.065 A 
ENDBRANCH  17  19
ENDBRANCH  12  17
BRANCH   1  27
HETATM   27  O2  UNL     1      26.783   1.464  52.884  1.00  0.00    -0.230 OA
BRANCH  27  28
HETATM   28  O1  UNL     1      27.337   1.953  53.954  1.00  0.00    -0.245 OA
HETATM   29  C1  UNL     1      28.628   2.359  53.599  1.00  0.00     0.247 C 
ENDBRANCH  27  28
ENDBRANCH   1  27
TORSDOF 4
ENDMDL
MODEL 9
REMARK VINA RESULT:      -7.5      3.868      6.589
REMARK  4 active torsions:
REMARK  status: ('A' for Active; 'I' for Inactive)
REMARK    1  A    between atoms: O1_2  and  O2_3 
REMARK    2  A    between atoms: O2_3  and  C2_4 
REMARK    3  A    between atoms: C12_15  and  N1_16 
REMARK    4  A    between atoms: N1_16  and  C13_17 
ROOT
HETATM    1  C2  UNL     1      26.383   2.262  51.926  1.00  0.00     0.213 C 
HETATM    2  C3  UNL     1      25.460   1.011  51.826  1.00  0.00     0.041 C 
HETATM    3  C4  UNL     1      25.299   0.423  53.146  1.00  0.00     0.003 C 
HETATM    4  C5  UNL     1      24.199  -0.551  53.383  1.00  0.00     0.000 C 
HETATM    5  C6  UNL     1      22.859   0.128  53.357  1.00  0.00     0.002 C 
HETATM    6  C7  UNL     1      22.242   0.408  52.061  1.00  0.00     0.027 C 
HETATM    7  C8  UNL     1      21.118   1.476  52.182  1.00  0.00     0.174 C 
HETATM    8  O3  UNL     1      21.734   2.641  52.724  1.00  0.00    -0.363 OA
HETATM    9  C9  UNL     1      22.940   3.145  52.285  1.00  0.00     0.135 C 
HETATM   10  C10 UNL     1      23.794   3.352  51.315  1.00  0.00     0.041 C 
HETATM   11  C11 UNL     1      24.945   3.748  50.530  1.00  0.00     0.039 A 
HETATM   12  C12 UNL     1      24.618   4.650  49.549  1.00  0.00     0.138 A 
HETATM   13  N2  UNL     1      25.634   5.089  48.739  1.00  0.00    -0.224 NA
HETATM   14  C20 UNL     1      26.835   4.560  49.028  1.00  0.00     0.235 A 
HETATM   15  N3  UNL     1      27.121   3.676  50.000  1.00  0.00    -0.243 NA
HETATM   16  C21 UNL     1      26.177   3.205  50.829  1.00  0.00     0.082 A 
ENDROOT
BRANCH  12  17
HETATM   17  N1  UNL     1      23.303   5.125  49.344  1.00  0.00    -0.361 N 
HETATM   18  H19 UNL     1      22.550   4.477  49.056  1.00  0.00     0.162 HD
BRANCH  17  19
HETATM   19  C13 UNL     1      23.015   6.534  49.544  1.00  0.00     0.049 A 
HETATM   20  C14 UNL     1      21.558   6.672  49.986  1.00  0.00     0.043 C 
HETATM   21  C15 UNL     1      23.870   6.978  50.702  1.00  0.00     0.007 A 
HETATM   22  C16 UNL     1      24.729   7.977  50.750  1.00  0.00     0.040 A 
HETATM   23  C17 UNL     1      24.933   8.799  49.581  1.00  0.00     0.112 A 
HETATM   24  F1  UNL     1      25.790   9.844  49.534  1.00  0.00    -0.206 F 
HETATM   25  C18 UNL     1      24.215   8.467  48.523  1.00  0.00     0.018 A 
HETATM   26  C19 UNL     1      23.225   7.378  48.339  1.00  0.00     0.065 A 
ENDBRANCH  17  19
ENDBRANCH  12  17
BRANCH   1  27
HETATM   27  O2  UNL     1      27.629   1.841  52.205  1.00  0.00    -0.230 OA
BRANCH  27  28
HETATM   28  O1  UNL     1      28.357   2.598  52.973  1.00  0.00    -0.245 OA
HETATM   29  C1  UNL     1      28.944   1.766  53.932  1.00  0.00     0.247 C 
ENDBRANCH  27  28
ENDBRANCH   1  27
TORSDOF 4
ENDMDL
