MODEL 1
REMARK VINA RESULT:      -8.8      0.000      0.000
REMARK  3 active torsions:
REMARK  status: ('A' for Active; 'I' for Inactive)
REMARK    1  A    between atoms: N1_1  and  C1_2 
REMARK    2  A    between atoms: C8_11  and  N3_12 
REMARK    3  A    between atoms: N3_12  and  C9_13 
ROOT
HETATM    1  C1  UNL     1      27.948  -1.510  53.080  1.00  0.00     0.021 C 
HETATM    2  C2  UNL     1      29.079  -1.165  53.531  1.00  0.00     0.030 C 
HETATM    3  C3  UNL     1      29.272   0.234  53.686  1.00  0.00     0.058 C 
HETATM    4  C4  UNL     1      28.258   0.903  53.310  1.00  0.00     0.147 C 
HETATM    5  O1  UNL     1      28.076   2.481  53.344  1.00  0.00    -0.266 OA
HETATM    6  C5  UNL     1      26.590   2.445  53.583  1.00  0.00     0.544 A 
HETATM    7  N2  UNL     1      26.067   2.066  52.325  1.00  0.00     0.115 N 
HETATM    8  C6  UNL     1      26.745   1.806  51.146  1.00  0.00     0.309 A 
HETATM    9  C7  UNL     1      25.810   1.975  52.076  1.00  0.00     0.369 A 
HETATM   10  C8  UNL     1      24.526   2.068  52.794  1.00  0.00     0.509 A 
HETATM   11  N4  UNL     1      25.233   2.447  53.936  1.00  0.00     0.450 N 
HETATM   12  N5  UNL     1      26.841   0.505  52.670  1.00  0.00    -0.313 N 
HETATM   13  C15 UNL     1      26.694  -1.125  52.731  1.00  0.00     0.184 C 
ENDROOT
BRANCH  10  14
HETATM   14  N3  UNL     1      23.099   1.910  52.791  1.00  0.00    -0.325 N 
HETATM   15  H6  UNL     1      22.692   2.764  52.400  1.00  0.00     0.164 HD
BRANCH  14  16
HETATM   16  C9  UNL     1      22.447   0.779  53.248  1.00  0.00     0.032 A 
HETATM   17  C10 UNL     1      23.136  -0.168  53.967  1.00  0.00     0.029 A 
HETATM   18  C11 UNL     1      22.581  -1.321  54.466  1.00  0.00     0.004 A 
HETATM   19  C12 UNL     1      21.219  -1.543  54.225  1.00  0.00     0.019 A 
HETATM   20  C13 UNL     1      20.528  -0.594  53.505  1.00  0.00     0.013 A 
HETATM   21 BR1  UNL     1      18.687  -1.007  53.244  1.00  0.00    -0.051 Br
HETATM   22  C14 UNL     1      21.098   0.561  53.008  1.00  0.00     0.048 A 
ENDBRANCH  14  16
ENDBRANCH  10  14
BRANCH   1  23
HETATM   23  N1  UNL     1      27.695  -2.876  52.893  1.00  0.00    -0.401 N 
HETATM   24  H1  UNL     1      26.721  -3.118  53.197  1.00  0.00     0.156 HD
HETATM   25  H2  UNL     1      28.023  -3.808  52.583  1.00  0.00     0.156 HD
ENDBRANCH   1  23
TORSDOF 3
ENDMDL
MODEL 2
REMARK VINA RESULT:      -8.6      2.075      2.562
REMARK  3 active torsions:
REMARK  status: ('A' for Active; 'I' for Inactive)
REMARK    1  A    between atoms: N1_1  and  C1_2 
REMARK    2  A    between atoms: C8_11  and  N3_12 
REMARK    3  A    between atoms: N3_12  and  C9_13 
ROOT
HETATM    1  C1  UNL     1      28.652  -1.725  53.243  1.00  0.00     0.021 C 
HETATM    2  C2  UNL     1      29.722  -1.179  53.639  1.00  0.00     0.030 C 
HETATM    3  C3  UNL     1      29.683   0.238  53.738  1.00  0.00     0.058 C 
HETATM    4  C4  UNL     1      28.560   0.712  53.378  1.00  0.00     0.147 C 
HETATM    5  O1  UNL     1      28.117   2.238  53.364  1.00  0.00    -0.266 OA
HETATM    6  C5  UNL     1      26.666   1.965  53.661  1.00  0.00     0.544 A 
HETATM    7  N2  UNL     1      26.175   1.454  52.437  1.00  0.00     0.115 N 
HETATM    8  C6  UNL     1      26.849   1.264  51.243  1.00  0.00     0.309 A 
HETATM    9  C7  UNL     1      25.929   1.312  52.200  1.00  0.00     0.369 A 
HETATM   10  C8  UNL     1      24.671   1.219  52.963  1.00  0.00     0.509 A 
HETATM   11  N4  UNL     1      25.340   1.755  54.065  1.00  0.00     0.450 N 
HETATM   12  N5  UNL     1      27.210   0.059  52.806  1.00  0.00    -0.313 N 
HETATM   13  C15 UNL     1      27.341  -1.569  52.928  1.00  0.00     0.184 C 
ENDROOT
BRANCH  10  14
HETATM   14  N3  UNL     1      23.291   0.825  53.020  1.00  0.00    -0.325 N 
HETATM   15  H6  UNL     1      23.105   0.482  53.966  1.00  0.00     0.164 HD
BRANCH  14  16
HETATM   16  C9  UNL     1      22.418   0.918  51.951  1.00  0.00     0.032 A 
HETATM   17  C10 UNL     1      21.119   0.492  52.085  1.00  0.00     0.029 A 
HETATM   18  C11 UNL     1      20.177   0.545  51.087  1.00  0.00     0.004 A 
HETATM   19  C12 UNL     1      20.571   1.068  49.849  1.00  0.00     0.019 A 
HETATM   20  C13 UNL     1      21.874   1.495  49.714  1.00  0.00     0.013 A 
HETATM   21 BR1  UNL     1      22.288   2.188  47.989  1.00  0.00    -0.051 Br
HETATM   22  C14 UNL     1      22.811   1.437  50.725  1.00  0.00     0.048 A 
ENDBRANCH  14  16
ENDBRANCH  10  14
BRANCH   1  23
HETATM   23  N1  UNL     1      28.626  -3.121  53.113  1.00  0.00    -0.401 N 
HETATM   24  H1  UNL     1      28.879  -3.584  54.020  1.00  0.00     0.156 HD
HETATM   25  H2  UNL     1      28.469  -3.958  52.523  1.00  0.00     0.156 HD
ENDBRANCH   1  23
TORSDOF 3
ENDMDL
MODEL 3
REMARK VINA RESULT:      -8.5      2.619      4.919
REMARK  3 active torsions:
REMARK  status: ('A' for Active; 'I' for Inactive)
REMARK    1  A    between atoms: N1_1  and  C1_2 
REMARK    2  A    between atoms: C8_11  and  N3_12 
REMARK    3  A    between atoms: N3_12  and  C9_13 
ROOT
HETATM    1  C1  UNL     1      22.957  -0.558  53.918  1.00  0.00     0.021 C 
HETATM    2  C2  UNL     1      23.106  -1.159  55.021  1.00  0.00     0.030 C 
HETATM    3  C3  UNL     1      24.438  -1.206  55.515  1.00  0.00     0.058 C 
HETATM    4  C4  UNL     1      25.261  -0.644  54.726  1.00  0.00     0.147 C 
HETATM    5  O1  UNL     1      26.828  -0.471  54.929  1.00  0.00    -0.266 OA
HETATM    6  C5  UNL     1      26.921   0.840  54.194  1.00  0.00     0.544 A 
HETATM    7  N2  UNL     1      26.790   0.463  52.838  1.00  0.00     0.115 N 
HETATM    8  C6  UNL     1      26.633  -0.804  52.301  1.00  0.00     0.309 A 
HETATM    9  C7  UNL     1      26.766   0.507  52.472  1.00  0.00     0.369 A 
HETATM   10  C8  UNL     1      26.892   1.959  52.253  1.00  0.00     0.509 A 
HETATM   11  N4  UNL     1      27.019   2.122  53.633  1.00  0.00     0.450 N 
HETATM   12  N5  UNL     1      25.120   0.063  53.292  1.00  0.00    -0.313 N 
HETATM   13  C15 UNL     1      23.524   0.207  52.950  1.00  0.00     0.184 C 
ENDROOT
BRANCH  10  14
HETATM   14  N3  UNL     1      26.894   3.073  51.346  1.00  0.00    -0.325 N 
HETATM   15  H6  UNL     1      27.818   3.511  51.393  1.00  0.00     0.164 HD
BRANCH  14  16
HETATM   16  C9  UNL     1      25.807   3.438  50.571  1.00  0.00     0.032 A 
HETATM   17  C10 UNL     1      25.852   4.589  49.822  1.00  0.00     0.029 A 
HETATM   18  C11 UNL     1      24.830   5.035  49.021  1.00  0.00     0.004 A 
HETATM   19  C12 UNL     1      23.664   4.262  48.966  1.00  0.00     0.019 A 
HETATM   20  C13 UNL     1      23.619   3.108  49.716  1.00  0.00     0.013 A 
HETATM   21 BR1  UNL     1      21.984   2.143  49.556  1.00  0.00    -0.051 Br
HETATM   22  C14 UNL     1      24.652   2.670  50.518  1.00  0.00     0.048 A 
ENDBRANCH  14  16
ENDBRANCH  10  14
BRANCH   1  23
HETATM   23  N1  UNL     1      21.670  -0.485  53.369  1.00  0.00    -0.401 N 
HETATM   24  H1  UNL     1      20.941  -0.644  54.107  1.00  0.00     0.156 HD
HETATM   25  H2  UNL     1      21.060  -0.342  52.544  1.00  0.00     0.156 HD
ENDBRANCH   1  23
TORSDOF 3
ENDMDL
MODEL 4
REMARK VINA RESULT:      -7.8      1.947      3.893
REMARK  3 active torsions:
REMARK  status: ('A' for Active; 'I' for Inactive)
REMARK    1  A    between atoms: N1_1  and  C1_2 
REMARK    2  A    between atoms: C8_11  and  N3_12 
REMARK    3  A    between atoms: N3_12  and  C9_13 
ROOT
HETATM    1  C1  UNL     1      24.376   3.515  49.859  1.00  0.00     0.021 C 
HETATM    2  C2  UNL     1      25.436   3.945  49.319  1.00  0.00     0.030 C 
HETATM    3  C3  UNL     1      26.646   3.539  49.943  1.00  0.00     0.058 C 
HETATM    4  C4  UNL     1      26.437   2.822  50.972  1.00  0.00     0.147 C 
HETATM    5  O1  UNL     1      27.524   2.162  51.926  1.00  0.00    -0.266 OA
HETATM    6  C5  UNL     1      26.693   0.954  52.269  1.00  0.00     0.544 A 
HETATM    7  N2  UNL     1      25.723   1.469  53.160  1.00  0.00     0.115 N 
HETATM    8  C6  UNL     1      25.573   2.764  53.626  1.00  0.00     0.309 A 
HETATM    9  C7  UNL     1      25.428   1.466  53.383  1.00  0.00     0.369 A 
HETATM   10  C8  UNL     1      24.958   0.069  53.377  1.00  0.00     0.509 A 
HETATM   11  N4  UNL     1      26.001  -0.243  52.504  1.00  0.00     0.450 N 
HETATM   12  N5  UNL     1      25.112   2.319  51.725  1.00  0.00    -0.313 N 
HETATM   13  C15 UNL     1      23.820   2.700  50.792  1.00  0.00     0.184 C 
ENDROOT
BRANCH  10  14
HETATM   14  N3  UNL     1      23.997  -0.909  53.806  1.00  0.00    -0.325 N 
HETATM   15  H6  UNL     1      24.514  -1.698  54.204  1.00  0.00     0.164 HD
BRANCH  14  16
HETATM   16  C9  UNL     1      22.628  -0.754  53.676  1.00  0.00     0.032 A 
HETATM   17  C10 UNL     1      21.775  -1.650  54.274  1.00  0.00     0.029 A 
HETATM   18  C11 UNL     1      20.405  -1.581  54.208  1.00  0.00     0.004 A 
HETATM   19  C12 UNL     1      19.843  -0.525  53.480  1.00  0.00     0.019 A 
HETATM   20  C13 UNL     1      20.698   0.373  52.881  1.00  0.00     0.013 A 
HETATM   21 BR1  UNL     1      19.815   1.763  51.923  1.00  0.00    -0.051 Br
HETATM   22  C14 UNL     1      22.073   0.294  52.955  1.00  0.00     0.048 A 
ENDBRANCH  14  16
ENDBRANCH  10  14
BRANCH   1  23
HETATM   23  N1  UNL     1      23.146   3.887  49.298  1.00  0.00    -0.401 N 
HETATM   24  H1  UNL     1      22.352   3.613  49.928  1.00  0.00     0.156 HD
HETATM   25  H2  UNL     1      22.616   4.324  48.523  1.00  0.00     0.156 HD
ENDBRANCH   1  23
TORSDOF 3
ENDMDL
MODEL 5
REMARK VINA RESULT:      -7.7      4.211      6.706
REMARK  3 active torsions:
REMARK  status: ('A' for Active; 'I' for Inactive)
REMARK    1  A    between atoms: N1_1  and  C1_2 
REMARK    2  A    between atoms: C8_11  and  N3_12 
REMARK    3  A    between atoms: N3_12  and  C9_13 
ROOT
HETATM    1  C1  UNL     1      24.642  -0.406  53.813  1.00  0.00     0.021 C 
HETATM    2  C2  UNL     1      23.480  -0.754  54.172  1.00  0.00     0.030 C 
HETATM    3  C3  UNL     1      22.425   0.083  53.719  1.00  0.00     0.058 C 
HETATM    4  C4  UNL     1      22.853   1.068  53.039  1.00  0.00     0.147 C 
HETATM    5  O1  UNL     1      21.992   2.210  52.346  1.00  0.00    -0.266 OA
HETATM    6  C5  UNL     1      22.937   2.417  51.192  1.00  0.00     0.544 A 
HETATM    7  N2  UNL     1      24.020   3.112  51.779  1.00  0.00     0.115 N 
HETATM    8  C6  UNL     1      24.177   3.525  53.091  1.00  0.00     0.309 A 
HETATM    9  C7  UNL     1      24.349   3.279  51.796  1.00  0.00     0.369 A 
HETATM   10  C8  UNL     1      24.889   3.209  50.426  1.00  0.00     0.509 A 
HETATM   11  N4  UNL     1      23.727   2.541  50.039  1.00  0.00     0.450 N 
HETATM   12  N5  UNL     1      24.317   1.579  52.624  1.00  0.00    -0.313 N 
HETATM   13  C15 UNL     1      25.399   0.425  53.051  1.00  0.00     0.184 C 
ENDROOT
BRANCH  10  14
HETATM   14  N3  UNL     1      25.964   3.473  49.511  1.00  0.00    -0.325 N 
HETATM   15  H6  UNL     1      26.270   2.575  49.124  1.00  0.00     0.164 HD
BRANCH  14  16
HETATM   16  C9  UNL     1      26.454   4.738  49.241  1.00  0.00     0.032 A 
HETATM   17  C10 UNL     1      27.653   4.886  48.586  1.00  0.00     0.029 A 
HETATM   18  C11 UNL     1      28.222   6.095  48.270  1.00  0.00     0.004 A 
HETATM   19  C12 UNL     1      27.530   7.254  48.642  1.00  0.00     0.019 A 
HETATM   20  C13 UNL     1      26.329   7.107  49.298  1.00  0.00     0.013 A 
HETATM   21 BR1  UNL     1      25.484   8.753  49.749  1.00  0.00    -0.051 Br
HETATM   22  C14 UNL     1      25.767   5.886  49.610  1.00  0.00     0.048 A 
ENDBRANCH  14  16
ENDBRANCH  10  14
BRANCH   1  23
HETATM   23  N1  UNL     1      25.730  -1.182  54.235  1.00  0.00    -0.401 N 
HETATM   24  H1  UNL     1      25.747  -1.260  55.282  1.00  0.00     0.156 HD
HETATM   25  H2  UNL     1      26.567  -1.745  54.000  1.00  0.00     0.156 HD
ENDBRANCH   1  23
TORSDOF 3
ENDMDL
MODEL 6
REMARK VINA RESULT:      -7.7      3.221      4.525
REMARK  3 active torsions:
REMARK  status: ('A' for Active; 'I' for Inactive)
REMARK    1  A    between atoms: N1_1  and  C1_2 
REMARK    2  A    between atoms: C8_11  and  N3_12 
REMARK    3  A    between atoms: N3_12  and  C9_13 
ROOT
HETATM    1  C1  UNL     1      29.299   1.133  54.024  1.00  0.00     0.021 C 
HETATM    2  C2  UNL     1      30.043   0.124  53.859  1.00  0.00     0.030 C 
HETATM    3  C3  UNL     1      29.365  -1.100  53.613  1.00  0.00     0.058 C 
HETATM    4  C4  UNL     1      28.101  -0.960  53.629  1.00  0.00     0.147 C 
HETATM    5  O1  UNL     1      27.003  -2.080  53.379  1.00  0.00    -0.266 OA
HETATM    6  C5  UNL     1      25.995  -1.151  52.754  1.00  0.00     0.544 A 
HETATM    7  N2  UNL     1      25.497  -0.421  53.858  1.00  0.00     0.115 N 
HETATM    8  C6  UNL     1      25.832  -0.537  55.197  1.00  0.00     0.309 A 
HETATM    9  C7  UNL     1      25.295  -0.170  54.038  1.00  0.00     0.369 A 
HETATM   10  C8  UNL     1      24.490   0.492  52.995  1.00  0.00     0.509 A 
HETATM   11  N4  UNL     1      25.092  -0.341  52.051  1.00  0.00     0.450 N 
HETATM   12  N5  UNL     1      27.126   0.285  53.903  1.00  0.00    -0.313 N 
HETATM   13  C15 UNL     1      28.040   1.642  53.980  1.00  0.00     0.184 C 
ENDROOT
BRANCH  10  14
HETATM   14  N3  UNL     1      23.535   1.501  52.631  1.00  0.00    -0.325 N 
HETATM   15  H6  UNL     1      22.878   1.602  53.410  1.00  0.00     0.164 HD
BRANCH  14  16
HETATM   16  C9  UNL     1      23.553   2.181  51.427  1.00  0.00     0.032 A 
HETATM   17  C10 UNL     1      22.561   1.966  50.500  1.00  0.00     0.029 A 
HETATM   18  C11 UNL     1      22.489   2.592  49.280  1.00  0.00     0.004 A 
HETATM   19  C12 UNL     1      23.494   3.513  48.962  1.00  0.00     0.019 A 
HETATM   20  C13 UNL     1      24.488   3.730  49.891  1.00  0.00     0.013 A 
HETATM   21 BR1  UNL     1      25.795   5.004  49.346  1.00  0.00    -0.051 Br
HETATM   22  C14 UNL     1      24.550   3.094  51.114  1.00  0.00     0.048 A 
ENDBRANCH  14  16
ENDBRANCH  10  14
BRANCH   1  23
HETATM   23  N1  UNL     1      29.904   2.371  54.281  1.00  0.00    -0.401 N 
HETATM   24  H1  UNL     1      30.850   2.423  53.830  1.00  0.00     0.156 HD
HETATM   25  H2  UNL     1      29.865   3.307  54.724  1.00  0.00     0.156 HD
ENDBRANCH   1  23
TORSDOF 3
ENDMDL
MODEL 7
REMARK VINA RESULT:      -7.4      3.886      5.234
REMARK  3 active torsions:
REMARK  status: ('A' for Active; 'I' for Inactive)
REMARK    1  A    between atoms: N1_1  and  C1_2 
REMARK    2  A    between atoms: C8_11  and  N3_12 
REMARK    3  A    between atoms: N3_12  and  C9_13 
ROOT
HETATM    1  C1  UNL     1      25.803   3.877  50.268  1.00  0.00     0.021 C 
HETATM    2  C2  UNL     1      25.953   4.865  49.493  1.00  0.00     0.030 C 
HETATM    3  C3  UNL     1      24.765   5.342  48.875  1.00  0.00     0.058 C 
HETATM    4  C4  UNL     1      23.747   4.654  49.202  1.00  0.00     0.147 C 
HETATM    5  O1  UNL     1      22.242   4.880  48.741  1.00  0.00    -0.266 OA
HETATM    6  C5  UNL     1      21.627   4.371  50.019  1.00  0.00     0.544 A 
HETATM    7  N2  UNL     1      21.808   2.971  49.931  1.00  0.00     0.115 N 
HETATM    8  C6  UNL     1      22.390   2.232  48.915  1.00  0.00     0.309 A 
HETATM    9  C7  UNL     1      21.792   2.617  50.037  1.00  0.00     0.369 A 
HETATM   10  C8  UNL     1      21.124   2.640  51.351  1.00  0.00     0.509 A 
HETATM   11  N4  UNL     1      21.028   4.028  51.240  1.00  0.00     0.450 N 
HETATM   12  N5  UNL     1      23.531   3.357  50.122  1.00  0.00    -0.313 N 
HETATM   13  C15 UNL     1      24.937   3.047  50.904  1.00  0.00     0.184 C 
ENDROOT
BRANCH  10  14
HETATM   14  N3  UNL     1      20.657   1.929  52.508  1.00  0.00    -0.325 N 
HETATM   15  H6  UNL     1      19.718   2.274  52.727  1.00  0.00     0.164 HD
BRANCH  14  16
HETATM   16  C9  UNL     1      21.392   0.960  53.167  1.00  0.00     0.032 A 
HETATM   17  C10 UNL     1      20.777   0.122  54.066  1.00  0.00     0.029 A 
HETATM   18  C11 UNL     1      21.417  -0.871  54.766  1.00  0.00     0.004 A 
HETATM   19  C12 UNL     1      22.789  -1.039  54.546  1.00  0.00     0.019 A 
HETATM   20  C13 UNL     1      23.406  -0.200  53.644  1.00  0.00     0.013 A 
HETATM   21 BR1  UNL     1      25.270  -0.528  53.430  1.00  0.00    -0.051 Br
HETATM   22  C14 UNL     1      22.752   0.794  52.947  1.00  0.00     0.048 A 
ENDBRANCH  14  16
ENDBRANCH  10  14
BRANCH   1  23
HETATM   23  N1  UNL     1      26.937   3.351  50.902  1.00  0.00    -0.401 N 
HETATM   24  H1  UNL     1      27.554   4.121  51.259  1.00  0.00     0.156 HD
HETATM   25  H2  UNL     1      27.487   2.526  51.203  1.00  0.00     0.156 HD
ENDBRANCH   1  23
TORSDOF 3
ENDMDL
MODEL 8
REMARK VINA RESULT:      -7.2      3.829      7.209
REMARK  3 active torsions:
REMARK  status: ('A' for Active; 'I' for Inactive)
REMARK    1  A    between atoms: N1_1  and  C1_2 
REMARK    2  A    between atoms: C8_11  and  N3_12 
REMARK    3  A    between atoms: N3_12  and  C9_13 
ROOT
HETATM    1  C1  UNL     1      20.507   4.138  51.451  1.00  0.00     0.021 C 
HETATM    2  C2  UNL     1      19.248   4.210  51.349  1.00  0.00     0.030 C 
HETATM    3  C3  UNL     1      18.551   2.986  51.539  1.00  0.00     0.058 C 
HETATM    4  C4  UNL     1      19.340   2.013  51.756  1.00  0.00     0.147 C 
HETATM    5  O1  UNL     1      18.950   0.498  52.034  1.00  0.00    -0.266 OA
HETATM    6  C5  UNL     1      20.120   0.217  52.940  1.00  0.00     0.544 A 
HETATM    7  N2  UNL     1      21.212   0.132  52.044  1.00  0.00     0.115 N 
HETATM    8  C6  UNL     1      21.215   0.257  50.666  1.00  0.00     0.309 A 
HETATM    9  C7  UNL     1      21.563   0.091  51.937  1.00  0.00     0.369 A 
HETATM   10  C8  UNL     1      22.319  -0.142  53.181  1.00  0.00     0.509 A 
HETATM   11  N4  UNL     1      21.121  -0.038  53.888  1.00  0.00     0.450 N 
HETATM   12  N5  UNL     1      20.937   1.873  51.821  1.00  0.00    -0.313 N 
HETATM   13  C15 UNL     1      21.584   3.377  51.775  1.00  0.00     0.184 C 
ENDROOT
BRANCH  10  14
HETATM   14  N3  UNL     1      23.581  -0.352  53.834  1.00  0.00    -0.325 N 
HETATM   15  H6  UNL     1      23.395  -0.823  54.724  1.00  0.00     0.164 HD
BRANCH  14  16
HETATM   16  C9  UNL     1      24.799   0.034  53.303  1.00  0.00     0.032 A 
HETATM   17  C10 UNL     1      24.860   1.077  52.411  1.00  0.00     0.029 A 
HETATM   18  C11 UNL     1      26.017   1.537  51.832  1.00  0.00     0.004 A 
HETATM   19  C12 UNL     1      27.214   0.898  52.176  1.00  0.00     0.019 A 
HETATM   20  C13 UNL     1      27.153  -0.148  53.070  1.00  0.00     0.013 A 
HETATM   21 BR1  UNL     1      28.844  -0.935  53.460  1.00  0.00    -0.051 Br
HETATM   22  C14 UNL     1      25.984  -0.601  53.646  1.00  0.00     0.048 A 
ENDBRANCH  14  16
ENDBRANCH  10  14
BRANCH   1  23
HETATM   23  N1  UNL     1      21.257   5.308  51.265  1.00  0.00    -0.401 N 
HETATM   24  H1  UNL     1      21.036   6.013  52.009  1.00  0.00     0.156 HD
HETATM   25  H2  UNL     1      21.960   5.838  50.719  1.00  0.00     0.156 HD
ENDBRANCH   1  23
TORSDOF 3
ENDMDL
MODEL 9
REMARK VINA RESULT:      -7.1      4.763      7.070
REMARK  3 active torsions:
REMARK  status: ('A' for Active; 'I' for Inactive)
REMARK    1  A    between atoms: N1_1  and  C1_2 
REMARK    2  A    between atoms: C8_11  and  N3_12 
REMARK    3  A    between atoms: N3_12  and  C9_13 
ROOT
HETATM    1  C1  UNL     1      24.311   8.036  50.148  1.00  0.00     0.021 C 
HETATM    2  C2  UNL     1      23.234   8.458  49.635  1.00  0.00     0.030 C 
HETATM    3  C3  UNL     1      22.176   7.512  49.574  1.00  0.00     0.058 C 
HETATM    4  C4  UNL     1      22.520   6.378  50.032  1.00  0.00     0.147 C 
HETATM    5  O1  UNL     1      21.621   5.073  50.154  1.00  0.00    -0.266 OA
HETATM    6  C5  UNL     1      22.299   4.551  51.393  1.00  0.00     0.544 A 
HETATM    7  N2  UNL     1      23.538   4.071  50.909  1.00  0.00     0.115 N 
HETATM    8  C6  UNL     1      24.017   4.060  49.610  1.00  0.00     0.309 A 
HETATM    9  C7  UNL     1      23.875   3.921  50.924  1.00  0.00     0.369 A 
HETATM   10  C8  UNL     1      24.089   3.596  52.346  1.00  0.00     0.509 A 
HETATM   11  N4  UNL     1      22.819   4.107  52.618  1.00  0.00     0.450 N 
HETATM   12  N5  UNL     1      23.891   5.788  50.621  1.00  0.00    -0.313 N 
HETATM   13  C15 UNL     1      24.944   7.030  50.803  1.00  0.00     0.184 C 
ENDROOT
BRANCH  10  14
HETATM   14  N3  UNL     1      24.951   3.091  53.378  1.00  0.00    -0.325 N 
HETATM   15  H6  UNL     1      25.062   3.830  54.079  1.00  0.00     0.164 HD
BRANCH  14  16
HETATM   16  C9  UNL     1      25.502   1.823  53.371  1.00  0.00     0.032 A 
HETATM   17  C10 UNL     1      24.725   0.737  53.046  1.00  0.00     0.029 A 
HETATM   18  C11 UNL     1      25.178  -0.559  53.008  1.00  0.00     0.004 A 
HETATM   19  C12 UNL     1      26.523  -0.786  53.321  1.00  0.00     0.019 A 
HETATM   20  C13 UNL     1      27.303   0.302  53.646  1.00  0.00     0.013 A 
HETATM   21 BR1  UNL     1      29.113  -0.133  54.050  1.00  0.00    -0.051 Br
HETATM   22  C14 UNL     1      26.836   1.600  53.682  1.00  0.00     0.048 A 
ENDBRANCH  14  16
ENDBRANCH  10  14
BRANCH   1  23
HETATM   23  N1  UNL     1      25.398   8.916  50.229  1.00  0.00    -0.401 N 
HETATM   24  H1  UNL     1      26.268   8.406  50.520  1.00  0.00     0.156 HD
HETATM   25  H2  UNL     1      25.777   9.876  50.136  1.00  0.00     0.156 HD
ENDBRANCH   1  23
TORSDOF 3
ENDMDL
