MODEL 1
REMARK VINA RESULT:      -7.8      0.000      0.000
REMARK  4 active torsions:
REMARK  status: ('A' for Active; 'I' for Inactive)
REMARK    1  A    between atoms: C2_2  and  C4_5 
REMARK    2  A    between atoms: C7_8  and  O1_9 
REMARK    3  A    between atoms: O1_9  and  C8_10 
REMARK    4  A    between atoms: C15_18  and  O2_19 
ROOT
HETATM    1  C1  UNL     1      22.321   2.049  48.298  1.00  0.00     0.036 C 
HETATM    2  C2  UNL     1      22.968   3.101  48.805  1.00  0.00     0.045 C 
HETATM    3  C3  UNL     1      22.861   4.395  48.195  1.00  0.00     0.099 C 
HETATM    4  N1  UNL     1      22.789   5.431  47.692  1.00  0.00    -0.191 NA
ENDROOT
BRANCH   2   5
HETATM    5  C4  UNL     1      23.777   2.882  49.988  1.00  0.00    -0.013 A 
HETATM    6  C5  UNL     1      23.193   2.367  51.122  1.00  0.00     0.016 A 
HETATM    7  C6  UNL     1      23.956   2.156  52.253  1.00  0.00     0.041 A 
HETATM    8  C7  UNL     1      25.303   2.457  52.258  1.00  0.00     0.108 A 
HETATM    9  C15 UNL     1      25.885   2.979  51.098  1.00  0.00     0.100 A 
HETATM   10  C16 UNL     1      25.137   3.197  49.958  1.00  0.00     0.052 A 
BRANCH   8  11
HETATM   11  O1  UNL     1      26.214   2.315  53.278  1.00  0.00    -0.312 OA
BRANCH  11  12
HETATM   12  C8  UNL     1      27.019   1.198  53.487  1.00  0.00     0.057 C 
HETATM   13  C9  UNL     1      28.267   1.552  53.745  1.00  0.00     0.036 C 
HETATM   14  C10 UNL     1      29.352   0.614  54.009  1.00  0.00     0.044 C 
HETATM   15  C11 UNL     1      29.477  -0.677  53.738  1.00  0.00     0.116 C 
HETATM   16  F1  UNL     1      30.601  -1.344  54.088  1.00  0.00    -0.206 F 
HETATM   17  C12 UNL     1      28.439  -1.446  53.060  1.00  0.00     0.038 C 
HETATM   18  C13 UNL     1      27.151  -1.187  52.922  1.00  0.00    -0.017 C 
HETATM   19  C14 UNL     1      26.267  -0.079  53.366  1.00  0.00     0.092 C 
ENDBRANCH  11  12
ENDBRANCH   8  11
BRANCH   9  20
HETATM   20  O2  UNL     1      27.237   3.326  50.970  1.00  0.00    -0.358 OA
HETATM   21  H11 UNL     1      27.529   4.240  51.309  1.00  0.00     0.217 HD
ENDBRANCH   9  20
ENDBRANCH   2   5
TORSDOF 4
ENDMDL
MODEL 2
REMARK VINA RESULT:      -7.7      5.580      8.238
REMARK  4 active torsions:
REMARK  status: ('A' for Active; 'I' for Inactive)
REMARK    1  A    between atoms: C2_2  and  C4_5 
REMARK    2  A    between atoms: C7_8  and  O1_9 
REMARK    3  A    between atoms: O1_9  and  C8_10 
REMARK    4  A    between atoms: C15_18  and  O2_19 
ROOT
HETATM    1  C1  UNL     1      26.779  -1.458  52.668  1.00  0.00     0.036 C 
HETATM    2  C2  UNL     1      26.385  -0.494  53.505  1.00  0.00     0.045 C 
HETATM    3  C3  UNL     1      27.341   0.239  54.285  1.00  0.00     0.099 C 
HETATM    4  N1  UNL     1      28.109   0.815  54.925  1.00  0.00    -0.191 NA
ENDROOT
BRANCH   2   5
HETATM    5  C4  UNL     1      24.965  -0.223  53.591  1.00  0.00    -0.013 A 
HETATM    6  C5  UNL     1      24.428   0.815  52.865  1.00  0.00     0.016 A 
HETATM    7  C6  UNL     1      23.076   1.081  52.941  1.00  0.00     0.041 A 
HETATM    8  C7  UNL     1      22.253   0.314  53.741  1.00  0.00     0.108 A 
HETATM    9  C15 UNL     1      22.811  -0.739  54.474  1.00  0.00     0.100 A 
HETATM   10  C16 UNL     1      24.161  -1.019  54.410  1.00  0.00     0.052 A 
BRANCH   8  11
HETATM   11  O1  UNL     1      20.897   0.426  53.942  1.00  0.00    -0.312 OA
BRANCH  11  12
HETATM   12  C8  UNL     1      19.915  -0.006  53.053  1.00  0.00     0.057 C 
HETATM   13  C9  UNL     1      19.888   0.750  51.969  1.00  0.00     0.036 C 
HETATM   14  C10 UNL     1      18.971   0.556  50.852  1.00  0.00     0.044 C 
HETATM   15  C11 UNL     1      17.822  -0.097  50.767  1.00  0.00     0.116 C 
HETATM   16  F1  UNL     1      17.141  -0.136  49.598  1.00  0.00    -0.206 F 
HETATM   17  C12 UNL     1      17.227  -0.799  51.899  1.00  0.00     0.038 C 
HETATM   18  C13 UNL     1      17.788  -1.231  53.014  1.00  0.00    -0.017 C 
HETATM   19  C14 UNL     1      19.170  -1.190  53.557  1.00  0.00     0.092 C 
ENDBRANCH  11  12
ENDBRANCH   8  11
BRANCH   9  20
HETATM   20  O2  UNL     1      22.090  -1.592  55.321  1.00  0.00    -0.358 OA
HETATM   21  H11 UNL     1      22.147  -2.593  55.152  1.00  0.00     0.217 HD
ENDBRANCH   9  20
ENDBRANCH   2   5
TORSDOF 4
ENDMDL
MODEL 3
REMARK VINA RESULT:      -7.6      2.484      2.915
REMARK  4 active torsions:
REMARK  status: ('A' for Active; 'I' for Inactive)
REMARK    1  A    between atoms: C2_2  and  C4_5 
REMARK    2  A    between atoms: C7_8  and  O1_9 
REMARK    3  A    between atoms: O1_9  and  C8_10 
REMARK    4  A    between atoms: C15_18  and  O2_19 
ROOT
HETATM    1  C1  UNL     1      21.066   0.984  49.366  1.00  0.00     0.036 C 
HETATM    2  C2  UNL     1      20.922   0.679  50.659  1.00  0.00     0.045 C 
HETATM    3  C3  UNL     1      19.645   0.291  51.185  1.00  0.00     0.099 C 
HETATM    4  N1  UNL     1      18.613  -0.002  51.611  1.00  0.00    -0.191 NA
ENDROOT
BRANCH   2   5
HETATM    5  C4  UNL     1      22.100   0.756  51.499  1.00  0.00    -0.013 A 
HETATM    6  C5  UNL     1      22.165  -0.000  52.646  1.00  0.00     0.016 A 
HETATM    7  C6  UNL     1      23.283   0.067  53.452  1.00  0.00     0.041 A 
HETATM    8  C7  UNL     1      24.341   0.888  53.118  1.00  0.00     0.108 A 
HETATM    9  C15 UNL     1      24.264   1.652  51.949  1.00  0.00     0.100 A 
HETATM   10  C16 UNL     1      23.153   1.597  51.131  1.00  0.00     0.052 A 
BRANCH   8  11
HETATM   11  O1  UNL     1      25.525   1.085  53.790  1.00  0.00    -0.312 OA
BRANCH  11  12
HETATM   12  C8  UNL     1      26.596   0.194  53.807  1.00  0.00     0.057 C 
HETATM   13  C9  UNL     1      27.694   0.780  54.254  1.00  0.00     0.036 C 
HETATM   14  C10 UNL     1      28.985   0.115  54.391  1.00  0.00     0.044 C 
HETATM   15  C11 UNL     1      29.462  -0.991  53.839  1.00  0.00     0.116 C 
HETATM   16  F1  UNL     1      30.715  -1.415  54.127  1.00  0.00    -0.206 F 
HETATM   17  C12 UNL     1      28.689  -1.806  52.908  1.00  0.00     0.038 C 
HETATM   18  C13 UNL     1      27.383  -1.859  52.716  1.00  0.00    -0.017 C 
HETATM   19  C14 UNL     1      26.221  -1.160  53.322  1.00  0.00     0.092 C 
ENDBRANCH  11  12
ENDBRANCH   8  11
BRANCH   9  20
HETATM   20  O2  UNL     1      25.264   2.523  51.496  1.00  0.00    -0.358 OA
HETATM   21  H11 UNL     1      25.996   2.790  52.151  1.00  0.00     0.217 HD
ENDBRANCH   9  20
ENDBRANCH   2   5
TORSDOF 4
ENDMDL
MODEL 4
REMARK VINA RESULT:      -7.5      4.202      7.270
REMARK  4 active torsions:
REMARK  status: ('A' for Active; 'I' for Inactive)
REMARK    1  A    between atoms: C2_2  and  C4_5 
REMARK    2  A    between atoms: C7_8  and  O1_9 
REMARK    3  A    between atoms: O1_9  and  C8_10 
REMARK    4  A    between atoms: C15_18  and  O2_19 
ROOT
HETATM    1  C1  UNL     1      29.338   0.905  53.874  1.00  0.00     0.036 C 
HETATM    2  C2  UNL     1      28.496  -0.102  53.626  1.00  0.00     0.045 C 
HETATM    3  C3  UNL     1      28.972  -1.452  53.534  1.00  0.00     0.099 C 
HETATM    4  N1  UNL     1      29.359  -2.536  53.442  1.00  0.00    -0.191 NA
ENDROOT
BRANCH   2   5
HETATM    5  C4  UNL     1      27.095   0.224  53.456  1.00  0.00    -0.013 A 
HETATM    6  C5  UNL     1      26.190  -0.781  53.205  1.00  0.00     0.016 A 
HETATM    7  C6  UNL     1      24.854  -0.479  53.041  1.00  0.00     0.041 A 
HETATM    8  C7  UNL     1      24.413   0.826  53.127  1.00  0.00     0.108 A 
HETATM    9  C15 UNL     1      25.342   1.840  53.383  1.00  0.00     0.100 A 
HETATM   10  C16 UNL     1      26.683   1.556  53.549  1.00  0.00     0.052 A 
BRANCH   8  11
HETATM   11  O1  UNL     1      23.134   1.314  52.994  1.00  0.00    -0.312 OA
BRANCH  11  12
HETATM   12  C8  UNL     1      22.330   1.163  51.866  1.00  0.00     0.057 C 
HETATM   13  C9  UNL     1      22.742   1.943  50.880  1.00  0.00     0.036 C 
HETATM   14  C10 UNL     1      22.110   2.015  49.568  1.00  0.00     0.044 C 
HETATM   15  C11 UNL     1      20.901   1.661  49.159  1.00  0.00     0.116 C 
HETATM   16  F1  UNL     1      20.538   1.830  47.866  1.00  0.00    -0.206 F 
HETATM   17  C12 UNL     1      19.903   1.082  50.052  1.00  0.00     0.038 C 
HETATM   18  C13 UNL     1      20.060   0.488  51.222  1.00  0.00    -0.017 C 
HETATM   19  C14 UNL     1      21.238   0.175  52.070  1.00  0.00     0.092 C 
ENDBRANCH  11  12
ENDBRANCH   8  11
BRANCH   9  20
HETATM   20  O2  UNL     1      25.028   3.202  53.494  1.00  0.00    -0.358 OA
HETATM   21  H11 UNL     1      25.208   3.799  52.691  1.00  0.00     0.217 HD
ENDBRANCH   9  20
ENDBRANCH   2   5
TORSDOF 4
ENDMDL
MODEL 5
REMARK VINA RESULT:      -7.5      4.535      6.913
REMARK  4 active torsions:
REMARK  status: ('A' for Active; 'I' for Inactive)
REMARK    1  A    between atoms: C2_2  and  C4_5 
REMARK    2  A    between atoms: C7_8  and  O1_9 
REMARK    3  A    between atoms: O1_9  and  C8_10 
REMARK    4  A    between atoms: C15_18  and  O2_19 
ROOT
HETATM    1  C1  UNL     1      23.776  -0.490  53.444  1.00  0.00     0.036 C 
HETATM    2  C2  UNL     1      24.957   0.129  53.383  1.00  0.00     0.045 C 
HETATM    3  C3  UNL     1      25.994  -0.168  54.329  1.00  0.00     0.099 C 
HETATM    4  N1  UNL     1      26.820  -0.395  55.103  1.00  0.00    -0.191 NA
ENDROOT
BRANCH   2   5
HETATM    5  C4  UNL     1      25.146   1.106  52.329  1.00  0.00    -0.013 A 
HETATM    6  C5  UNL     1      26.421   1.424  51.920  1.00  0.00     0.016 A 
HETATM    7  C6  UNL     1      26.610   2.353  50.918  1.00  0.00     0.041 A 
HETATM    8  C7  UNL     1      25.530   2.970  50.318  1.00  0.00     0.108 A 
HETATM    9  C15 UNL     1      24.239   2.638  50.743  1.00  0.00     0.100 A 
HETATM   10  C16 UNL     1      24.031   1.711  51.745  1.00  0.00     0.052 A 
BRANCH   8  11
HETATM   11  O1  UNL     1      25.522   3.910  49.315  1.00  0.00    -0.312 OA
BRANCH  11  12
HETATM   12  C8  UNL     1      26.198   5.128  49.351  1.00  0.00     0.057 C 
HETATM   13  C9  UNL     1      25.480   6.052  49.967  1.00  0.00     0.036 C 
HETATM   14  C10 UNL     1      25.910   7.431  50.168  1.00  0.00     0.044 C 
HETATM   15  C11 UNL     1      26.836   8.156  49.558  1.00  0.00     0.116 C 
HETATM   16  F1  UNL     1      27.055   9.439  49.929  1.00  0.00    -0.206 F 
HETATM   17  C12 UNL     1      27.660   7.634  48.473  1.00  0.00     0.038 C 
HETATM   18  C13 UNL     1      27.926   6.383  48.142  1.00  0.00    -0.017 C 
HETATM   19  C14 UNL     1      27.530   5.062  48.693  1.00  0.00     0.092 C 
ENDBRANCH  11  12
ENDBRANCH   8  11
BRANCH   9  20
HETATM   20  O2  UNL     1      23.061   3.189  50.220  1.00  0.00    -0.358 OA
HETATM   21  H11 UNL     1      23.075   4.166  49.938  1.00  0.00     0.217 HD
ENDBRANCH   9  20
ENDBRANCH   2   5
TORSDOF 4
ENDMDL
MODEL 6
REMARK VINA RESULT:      -7.3      2.856      3.550
REMARK  4 active torsions:
REMARK  status: ('A' for Active; 'I' for Inactive)
REMARK    1  A    between atoms: C2_2  and  C4_5 
REMARK    2  A    between atoms: C7_8  and  O1_9 
REMARK    3  A    between atoms: O1_9  and  C8_10 
REMARK    4  A    between atoms: C15_18  and  O2_19 
ROOT
HETATM    1  C1  UNL     1      25.936   7.466  47.802  1.00  0.00     0.036 C 
HETATM    2  C2  UNL     1      26.898   6.629  48.197  1.00  0.00     0.045 C 
HETATM    3  C3  UNL     1      28.260   6.831  47.792  1.00  0.00     0.099 C 
HETATM    4  N1  UNL     1      29.352   6.983  47.450  1.00  0.00    -0.191 NA
ENDROOT
BRANCH   2   5
HETATM    5  C4  UNL     1      26.513   5.519  49.045  1.00  0.00    -0.013 A 
HETATM    6  C5  UNL     1      27.122   4.297  48.880  1.00  0.00     0.016 A 
HETATM    7  C6  UNL     1      26.761   3.234  49.682  1.00  0.00     0.041 A 
HETATM    8  C7  UNL     1      25.790   3.385  50.653  1.00  0.00     0.108 A 
HETATM    9  C15 UNL     1      25.178   4.633  50.811  1.00  0.00     0.100 A 
HETATM   10  C16 UNL     1      25.527   5.706  50.016  1.00  0.00     0.052 A 
BRANCH   8  11
HETATM   11  O1  UNL     1      25.304   2.451  51.537  1.00  0.00    -0.312 OA
BRANCH  11  12
HETATM   12  C8  UNL     1      26.082   1.558  52.271  1.00  0.00     0.057 C 
HETATM   13  C9  UNL     1      27.158   2.154  52.757  1.00  0.00     0.036 C 
HETATM   14  C10 UNL     1      28.171   1.490  53.569  1.00  0.00     0.044 C 
HETATM   15  C11 UNL     1      28.468   0.208  53.721  1.00  0.00     0.116 C 
HETATM   16  F1  UNL     1      29.471  -0.170  54.547  1.00  0.00    -0.206 F 
HETATM   17  C12 UNL     1      27.751  -0.857  53.027  1.00  0.00     0.038 C 
HETATM   18  C13 UNL     1      26.555  -0.842  52.465  1.00  0.00    -0.017 C 
HETATM   19  C14 UNL     1      25.500   0.191  52.311  1.00  0.00     0.092 C 
ENDBRANCH  11  12
ENDBRANCH   8  11
BRANCH   9  20
HETATM   20  O2  UNL     1      24.181   4.919  51.754  1.00  0.00    -0.358 OA
HETATM   21  H11 UNL     1      24.474   5.164  52.697  1.00  0.00     0.217 HD
ENDBRANCH   9  20
ENDBRANCH   2   5
TORSDOF 4
ENDMDL
MODEL 7
REMARK VINA RESULT:      -7.2      4.191      6.403
REMARK  4 active torsions:
REMARK  status: ('A' for Active; 'I' for Inactive)
REMARK    1  A    between atoms: C2_2  and  C4_5 
REMARK    2  A    between atoms: C7_8  and  O1_9 
REMARK    3  A    between atoms: O1_9  and  C8_10 
REMARK    4  A    between atoms: C15_18  and  O2_19 
ROOT
HETATM    1  C1  UNL     1      22.082  -0.475  54.035  1.00  0.00     0.036 C 
HETATM    2  C2  UNL     1      23.303  -0.043  53.712  1.00  0.00     0.045 C 
HETATM    3  C3  UNL     1      24.472  -0.634  54.298  1.00  0.00     0.099 C 
HETATM    4  N1  UNL     1      25.410  -1.098  54.784  1.00  0.00    -0.191 NA
ENDROOT
BRANCH   2   5
HETATM    5  C4  UNL     1      23.398   1.040  52.753  1.00  0.00    -0.013 A 
HETATM    6  C5  UNL     1      24.100   2.176  53.081  1.00  0.00     0.016 A 
HETATM    7  C6  UNL     1      24.194   3.212  52.174  1.00  0.00     0.041 A 
HETATM    8  C7  UNL     1      23.589   3.119  50.936  1.00  0.00     0.108 A 
HETATM    9  C15 UNL     1      22.878   1.958  50.615  1.00  0.00     0.100 A 
HETATM   10  C16 UNL     1      22.773   0.913  51.510  1.00  0.00     0.052 A 
BRANCH   8  11
HETATM   11  O1  UNL     1      23.575   4.038  49.913  1.00  0.00    -0.312 OA
BRANCH  11  12
HETATM   12  C8  UNL     1      24.705   4.573  49.298  1.00  0.00     0.057 C 
HETATM   13  C9  UNL     1      25.772   3.829  49.535  1.00  0.00     0.036 C 
HETATM   14  C10 UNL     1      27.108   4.121  49.029  1.00  0.00     0.044 C 
HETATM   15  C11 UNL     1      27.645   5.243  48.573  1.00  0.00     0.116 C 
HETATM   16  F1  UNL     1      28.931   5.266  48.152  1.00  0.00    -0.206 F 
HETATM   17  C12 UNL     1      26.904   6.498  48.494  1.00  0.00     0.038 C 
HETATM   18  C13 UNL     1      25.600   6.709  48.486  1.00  0.00    -0.017 C 
HETATM   19  C14 UNL     1      24.410   5.823  48.549  1.00  0.00     0.092 C 
ENDBRANCH  11  12
ENDBRANCH   8  11
BRANCH   9  20
HETATM   20  O2  UNL     1      22.219   1.737  49.397  1.00  0.00    -0.358 OA
HETATM   21  H11 UNL     1      21.204   1.680  49.408  1.00  0.00     0.217 HD
ENDBRANCH   9  20
ENDBRANCH   2   5
TORSDOF 4
ENDMDL
MODEL 8
REMARK VINA RESULT:      -7.1      4.292      7.507
REMARK  4 active torsions:
REMARK  status: ('A' for Active; 'I' for Inactive)
REMARK    1  A    between atoms: C2_2  and  C4_5 
REMARK    2  A    between atoms: C7_8  and  O1_9 
REMARK    3  A    between atoms: O1_9  and  C8_10 
REMARK    4  A    between atoms: C15_18  and  O2_19 
ROOT
HETATM    1  C1  UNL     1      29.170   0.602  53.628  1.00  0.00     0.036 C 
HETATM    2  C2  UNL     1      28.287  -0.362  53.352  1.00  0.00     0.045 C 
HETATM    3  C3  UNL     1      28.687  -1.740  53.326  1.00  0.00     0.099 C 
HETATM    4  N1  UNL     1      29.014  -2.846  53.287  1.00  0.00    -0.191 NA
ENDROOT
BRANCH   2   5
HETATM    5  C4  UNL     1      26.922   0.039  53.082  1.00  0.00    -0.013 A 
HETATM    6  C5  UNL     1      26.671   0.980  52.111  1.00  0.00     0.016 A 
HETATM    7  C6  UNL     1      25.373   1.369  51.847  1.00  0.00     0.041 A 
HETATM    8  C7  UNL     1      24.319   0.820  52.551  1.00  0.00     0.108 A 
HETATM    9  C15 UNL     1      24.587  -0.136  53.537  1.00  0.00     0.100 A 
HETATM   10  C16 UNL     1      25.879  -0.535  53.813  1.00  0.00     0.052 A 
BRANCH   8  11
HETATM   11  O1  UNL     1      22.974   1.080  52.430  1.00  0.00    -0.312 OA
BRANCH  11  12
HETATM   12  C8  UNL     1      22.372   1.701  51.338  1.00  0.00     0.057 C 
HETATM   13  C9  UNL     1      21.835   0.811  50.521  1.00  0.00     0.036 C 
HETATM   14  C10 UNL     1      21.131   1.143  49.288  1.00  0.00     0.044 C 
HETATM   15  C11 UNL     1      21.145   2.237  48.540  1.00  0.00     0.116 C 
HETATM   16  F1  UNL     1      20.392   2.309  47.418  1.00  0.00    -0.206 F 
HETATM   17  C12 UNL     1      21.954   3.406  48.867  1.00  0.00     0.038 C 
HETATM   18  C13 UNL     1      22.487   3.769  50.020  1.00  0.00    -0.017 C 
HETATM   19  C14 UNL     1      22.492   3.182  51.385  1.00  0.00     0.092 C 
ENDBRANCH  11  12
ENDBRANCH   8  11
BRANCH   9  20
HETATM   20  O2  UNL     1      23.613  -0.768  54.321  1.00  0.00    -0.358 OA
HETATM   21  H11 UNL     1      23.117  -0.207  55.010  1.00  0.00     0.217 HD
ENDBRANCH   9  20
ENDBRANCH   2   5
TORSDOF 4
ENDMDL
MODEL 9
REMARK VINA RESULT:      -7.0      4.658      5.806
REMARK  4 active torsions:
REMARK  status: ('A' for Active; 'I' for Inactive)
REMARK    1  A    between atoms: C2_2  and  C4_5 
REMARK    2  A    between atoms: C7_8  and  O1_9 
REMARK    3  A    between atoms: O1_9  and  C8_10 
REMARK    4  A    between atoms: C15_18  and  O2_19 
ROOT
HETATM    1  C1  UNL     1      16.315  -0.894  52.710  1.00  0.00     0.036 C 
HETATM    2  C2  UNL     1      17.223  -0.525  51.803  1.00  0.00     0.045 C 
HETATM    3  C3  UNL     1      16.892  -0.479  50.408  1.00  0.00     0.099 C 
HETATM    4  N1  UNL     1      16.629  -0.460  49.284  1.00  0.00    -0.191 NA
ENDROOT
BRANCH   2   5
HETATM    5  C4  UNL     1      18.545  -0.177  52.283  1.00  0.00    -0.013 A 
HETATM    6  C5  UNL     1      19.235   0.851  51.684  1.00  0.00     0.016 A 
HETATM    7  C6  UNL     1      20.495   1.189  52.135  1.00  0.00     0.041 A 
HETATM    8  C7  UNL     1      21.072   0.503  53.185  1.00  0.00     0.108 A 
HETATM    9  C15 UNL     1      20.361  -0.541  53.785  1.00  0.00     0.100 A 
HETATM   10  C16 UNL     1      19.100  -0.892  53.347  1.00  0.00     0.052 A 
BRANCH   8  11
HETATM   11  O1  UNL     1      22.304   0.695  53.765  1.00  0.00    -0.312 OA
BRANCH  11  12
HETATM   12  C8  UNL     1      23.530   0.507  53.129  1.00  0.00     0.057 C 
HETATM   13  C9  UNL     1      24.256  -0.404  53.755  1.00  0.00     0.036 C 
HETATM   14  C10 UNL     1      25.588  -0.825  53.336  1.00  0.00     0.044 C 
HETATM   15  C11 UNL     1      26.482  -0.245  52.551  1.00  0.00     0.116 C 
HETATM   16  F1  UNL     1      27.671  -0.843  52.308  1.00  0.00    -0.206 F 
HETATM   17  C12 UNL     1      26.253   1.047  51.913  1.00  0.00     0.038 C 
HETATM   18  C13 UNL     1      25.119   1.680  51.672  1.00  0.00    -0.017 C 
HETATM   19  C14 UNL     1      23.689   1.370  51.929  1.00  0.00     0.092 C 
ENDBRANCH  11  12
ENDBRANCH   8  11
BRANCH   9  20
HETATM   20  O2  UNL     1      20.831  -1.315  54.855  1.00  0.00    -0.358 OA
HETATM   21  H11 UNL     1      20.345  -2.185  55.065  1.00  0.00     0.217 HD
ENDBRANCH   9  20
ENDBRANCH   2   5
TORSDOF 4
ENDMDL
