MODEL 1
REMARK VINA RESULT:      -9.5      0.000      0.000
REMARK  0 active torsions:
REMARK  status: ('A' for Active; 'I' for Inactive)
ROOT
HETATM    1  C1  UNL     1      25.116   8.825  49.038  1.00  0.00     0.148 C 
HETATM    2  N1  UNL     1      25.127   7.429  49.529  1.00  0.00    -0.392 N 
HETATM    3  C2  UNL     1      24.319   7.390  50.710  1.00  0.00     0.086 C 
HETATM    4  C3  UNL     1      23.851   6.365  51.404  1.00  0.00     0.031 C 
HETATM    5  C4  UNL     1      24.001   4.896  51.199  1.00  0.00    -0.002 C 
HETATM    6  C5  UNL     1      23.482   4.458  52.370  1.00  0.00     0.014 C 
HETATM    7  C6  UNL     1      23.387   3.009  52.702  1.00  0.00     0.007 C 
HETATM    8  C7  UNL     1      23.175   1.974  51.854  1.00  0.00    -0.037 C 
HETATM    9  C8  UNL     1      22.985   2.112  50.361  1.00  0.00     0.066 C 
HETATM   10  C9  UNL     1      24.110   2.878  49.719  1.00  0.00     0.022 C 
HETATM   11  C10 UNL     1      24.550   4.079  50.077  1.00  0.00     0.076 C 
HETATM   12  O1  UNL     1      25.592   4.297  49.145  1.00  0.00    -0.349 OA
HETATM   13  C11 UNL     1      26.464   5.371  48.949  1.00  0.00     0.195 C 
HETATM   14  C12 UNL     1      25.927   6.686  48.644  1.00  0.00     0.148 C 
HETATM   15  C13 UNL     1      21.678   2.840  50.150  1.00  0.00     0.181 C 
HETATM   16  O2  UNL     1      20.579   1.984  50.008  1.00  0.00    -0.383 OA
HETATM   17  C14 UNL     1      20.492   1.149  51.127  1.00  0.00     0.246 C 
HETATM   18  C15 UNL     1      20.356   1.940  52.380  1.00  0.00     0.154 C 
HETATM   19  O3  UNL     1      20.164   3.081  52.755  1.00  0.00    -0.295 OA
HETATM   20  C16 UNL     1      20.531   0.940  53.473  1.00  0.00     0.117 C 
HETATM   21  C17 UNL     1      21.989   0.505  53.500  1.00  0.00    -0.040 C 
HETATM   22  C18 UNL     1      22.041  -0.432  54.464  1.00  0.00     0.006 C 
HETATM   23  C19 UNL     1      23.116  -1.278  55.031  1.00  0.00    -0.002 C 
HETATM   24  C20 UNL     1      24.419  -1.123  54.737  1.00  0.00    -0.001 C 
HETATM   25  C21 UNL     1      25.062  -0.132  53.830  1.00  0.00     0.196 C 
HETATM   26  O4  UNL     1      24.271   1.006  53.709  1.00  0.00    -0.373 OA
HETATM   27  C22 UNL     1      23.237   0.828  52.783  1.00  0.00     0.181 C 
ENDROOT
TORSDOF 0
ENDMDL
MODEL 2
REMARK VINA RESULT:      -9.1      1.473      1.703
REMARK  0 active torsions:
REMARK  status: ('A' for Active; 'I' for Inactive)
ROOT
HETATM    1  C1  UNL     1      21.825   9.111  48.853  1.00  0.00     0.148 C 
HETATM    2  N1  UNL     1      22.499   7.852  49.243  1.00  0.00    -0.392 N 
HETATM    3  C2  UNL     1      22.010   7.495  50.540  1.00  0.00     0.086 C 
HETATM    4  C3  UNL     1      22.141   6.377  51.236  1.00  0.00     0.031 C 
HETATM    5  C4  UNL     1      22.841   5.102  50.913  1.00  0.00    -0.002 C 
HETATM    6  C5  UNL     1      22.774   4.502  52.125  1.00  0.00     0.014 C 
HETATM    7  C6  UNL     1      23.346   3.150  52.374  1.00  0.00     0.007 C 
HETATM    8  C7  UNL     1      23.426   2.110  51.509  1.00  0.00    -0.037 C 
HETATM    9  C8  UNL     1      22.926   2.138  50.084  1.00  0.00     0.066 C 
HETATM   10  C9  UNL     1      23.498   3.294  49.309  1.00  0.00     0.022 C 
HETATM   11  C10 UNL     1      23.462   4.574  49.663  1.00  0.00     0.076 C 
HETATM   12  O1  UNL     1      24.131   5.193  48.582  1.00  0.00    -0.349 OA
HETATM   13  C11 UNL     1      24.432   6.530  48.308  1.00  0.00     0.195 C 
HETATM   14  C12 UNL     1      23.356   7.498  48.187  1.00  0.00     0.148 C 
HETATM   15  C13 UNL     1      21.420   2.252  50.149  1.00  0.00     0.181 C 
HETATM   16  O2  UNL     1      20.765   1.015  50.143  1.00  0.00    -0.383 OA
HETATM   17  C14 UNL     1      21.237   0.234  51.204  1.00  0.00     0.246 C 
HETATM   18  C15 UNL     1      21.021   0.913  52.510  1.00  0.00     0.154 C 
HETATM   19  O3  UNL     1      20.449   1.874  52.985  1.00  0.00    -0.295 OA
HETATM   20  C16 UNL     1      21.788   0.090  53.489  1.00  0.00     0.117 C 
HETATM   21  C17 UNL     1      23.274   0.301  53.236  1.00  0.00    -0.040 C 
HETATM   22  C18 UNL     1      23.883  -0.516  54.113  1.00  0.00     0.006 C 
HETATM   23  C19 UNL     1      25.295  -0.831  54.430  1.00  0.00    -0.002 C 
HETATM   24  C20 UNL     1      26.341  -0.152  53.927  1.00  0.00    -0.001 C 
HETATM   25  C21 UNL     1      26.340   1.006  52.989  1.00  0.00     0.196 C 
HETATM   26  O4  UNL     1      25.144   1.709  53.080  1.00  0.00    -0.373 OA
HETATM   27  C22 UNL     1      24.124   1.105  52.337  1.00  0.00     0.181 C 
ENDROOT
TORSDOF 0
ENDMDL
MODEL 3
REMARK VINA RESULT:      -8.9      1.656      3.750
REMARK  0 active torsions:
REMARK  status: ('A' for Active; 'I' for Inactive)
ROOT
HETATM    1  C1  UNL     1      25.486   7.603  48.045  1.00  0.00     0.148 C 
HETATM    2  N1  UNL     1      24.773   6.723  48.998  1.00  0.00    -0.392 N 
HETATM    3  C2  UNL     1      25.010   5.373  48.586  1.00  0.00     0.086 C 
HETATM    4  C3  UNL     1      24.769   4.226  49.201  1.00  0.00     0.031 C 
HETATM    5  C4  UNL     1      24.169   3.940  50.534  1.00  0.00    -0.002 C 
HETATM    6  C5  UNL     1      24.013   2.601  50.422  1.00  0.00     0.014 C 
HETATM    7  C6  UNL     1      23.430   1.775  51.515  1.00  0.00     0.007 C 
HETATM    8  C7  UNL     1      23.537   1.971  52.852  1.00  0.00    -0.037 C 
HETATM    9  C8  UNL     1      24.301   3.104  53.495  1.00  0.00     0.066 C 
HETATM   10  C9  UNL     1      23.866   4.445  52.969  1.00  0.00     0.022 C 
HETATM   11  C10 UNL     1      23.810   4.810  51.693  1.00  0.00     0.076 C 
HETATM   12  O1  UNL     1      23.349   6.144  51.792  1.00  0.00    -0.349 OA
HETATM   13  C11 UNL     1      23.080   7.117  50.826  1.00  0.00     0.195 C 
HETATM   14  C12 UNL     1      24.141   7.558  49.937  1.00  0.00     0.148 C 
HETATM   15  C13 UNL     1      25.763   2.877  53.190  1.00  0.00     0.181 C 
HETATM   16  O2  UNL     1      26.431   2.137  54.173  1.00  0.00    -0.383 OA
HETATM   17  C14 UNL     1      25.779   0.911  54.354  1.00  0.00     0.246 C 
HETATM   18  C15 UNL     1      25.728   0.135  53.085  1.00  0.00     0.154 C 
HETATM   19  O3  UNL     1      26.180   0.150  51.957  1.00  0.00    -0.295 OA
HETATM   20  C16 UNL     1      24.802  -0.996  53.378  1.00  0.00     0.117 C 
HETATM   21  C17 UNL     1      23.389  -0.445  53.499  1.00  0.00    -0.040 C 
HETATM   22  C18 UNL     1      22.638  -1.514  53.821  1.00  0.00     0.006 C 
HETATM   23  C19 UNL     1      21.198  -1.727  54.091  1.00  0.00    -0.002 C 
HETATM   24  C20 UNL     1      20.256  -0.789  53.889  1.00  0.00    -0.001 C 
HETATM   25  C21 UNL     1      20.414   0.602  53.379  1.00  0.00     0.196 C 
HETATM   26  O4  UNL     1      21.557   0.707  52.594  1.00  0.00    -0.373 OA
HETATM   27  C22 UNL     1      22.712   0.860  53.369  1.00  0.00     0.181 C 
ENDROOT
TORSDOF 0
ENDMDL
MODEL 4
REMARK VINA RESULT:      -8.8      2.703      4.481
REMARK  0 active torsions:
REMARK  status: ('A' for Active; 'I' for Inactive)
ROOT
HETATM    1  C1  UNL     1      21.055   5.325  44.928  1.00  0.00     0.148 C 
HETATM    2  N1  UNL     1      20.842   4.668  46.237  1.00  0.00    -0.392 N 
HETATM    3  C2  UNL     1      21.813   3.622  46.348  1.00  0.00     0.086 C 
HETATM    4  C3  UNL     1      22.172   2.882  47.385  1.00  0.00     0.031 C 
HETATM    5  C4  UNL     1      21.693   2.879  48.795  1.00  0.00    -0.002 C 
HETATM    6  C5  UNL     1      22.301   1.750  49.231  1.00  0.00     0.014 C 
HETATM    7  C6  UNL     1      22.153   1.258  50.628  1.00  0.00     0.007 C 
HETATM    8  C7  UNL     1      22.002   1.993  51.757  1.00  0.00    -0.037 C 
HETATM    9  C8  UNL     1      21.961   3.503  51.799  1.00  0.00     0.066 C 
HETATM   10  C9  UNL     1      20.923   4.063  50.864  1.00  0.00     0.022 C 
HETATM   11  C10 UNL     1      20.806   3.798  49.568  1.00  0.00     0.076 C 
HETATM   12  O1  UNL     1      19.688   4.587  49.209  1.00  0.00    -0.349 OA
HETATM   13  C11 UNL     1      19.034   4.786  47.991  1.00  0.00     0.195 C 
HETATM   14  C12 UNL     1      19.769   5.327  46.861  1.00  0.00     0.148 C 
HETATM   15  C13 UNL     1      23.334   3.991  51.402  1.00  0.00     0.181 C 
HETATM   16  O2  UNL     1      24.194   4.185  52.489  1.00  0.00    -0.383 OA
HETATM   17  C14 UNL     1      24.296   2.994  53.219  1.00  0.00     0.246 C 
HETATM   18  C15 UNL     1      24.801   1.883  52.368  1.00  0.00     0.154 C 
HETATM   19  O3  UNL     1      25.283   1.686  51.269  1.00  0.00    -0.295 OA
HETATM   20  C16 UNL     1      24.614   0.661  53.201  1.00  0.00     0.117 C 
HETATM   21  C17 UNL     1      23.123   0.367  53.299  1.00  0.00    -0.040 C 
HETATM   22  C18 UNL     1      23.045  -0.703  54.110  1.00  0.00     0.006 C 
HETATM   23  C19 UNL     1      21.931  -1.521  54.641  1.00  0.00    -0.002 C 
HETATM   24  C20 UNL     1      20.656  -1.403  54.229  1.00  0.00    -0.001 C 
HETATM   25  C21 UNL     1      20.086  -0.484  53.205  1.00  0.00     0.196 C 
HETATM   26  O4  UNL     1      21.061  -0.108  52.287  1.00  0.00    -0.373 OA
HETATM   27  C22 UNL     1      21.864   0.929  52.773  1.00  0.00     0.181 C 
ENDROOT
TORSDOF 0
ENDMDL
MODEL 5
REMARK VINA RESULT:      -8.3      2.809      5.590
REMARK  0 active torsions:
REMARK  status: ('A' for Active; 'I' for Inactive)
ROOT
HETATM    1  C1  UNL     1      16.256   3.869  48.155  1.00  0.00     0.148 C 
HETATM    2  N1  UNL     1      17.294   3.432  49.114  1.00  0.00    -0.392 N 
HETATM    3  C2  UNL     1      18.369   2.876  48.350  1.00  0.00     0.086 C 
HETATM    4  C3  UNL     1      19.597   2.533  48.706  1.00  0.00     0.031 C 
HETATM    5  C4  UNL     1      20.287   2.605  50.025  1.00  0.00    -0.002 C 
HETATM    6  C5  UNL     1      21.401   1.895  49.728  1.00  0.00     0.014 C 
HETATM    7  C6  UNL     1      22.475   1.648  50.730  1.00  0.00     0.007 C 
HETATM    8  C7  UNL     1      22.877   2.463  51.735  1.00  0.00    -0.037 C 
HETATM    9  C8  UNL     1      22.285   3.822  52.027  1.00  0.00     0.066 C 
HETATM   10  C9  UNL     1      20.790   3.763  52.188  1.00  0.00     0.022 C 
HETATM   11  C10 UNL     1      19.926   3.240  51.326  1.00  0.00     0.076 C 
HETATM   12  O1  UNL     1      18.691   3.462  51.981  1.00  0.00    -0.349 OA
HETATM   13  C11 UNL     1      17.374   3.169  51.621  1.00  0.00     0.195 C 
HETATM   14  C12 UNL     1      16.820   3.733  50.403  1.00  0.00     0.148 C 
HETATM   15  C13 UNL     1      22.645   4.717  50.864  1.00  0.00     0.181 C 
HETATM   16  O2  UNL     1      23.841   5.421  51.049  1.00  0.00    -0.383 OA
HETATM   17  C14 UNL     1      24.878   4.515  51.302  1.00  0.00     0.246 C 
HETATM   18  C15 UNL     1      25.031   3.546  50.184  1.00  0.00     0.154 C 
HETATM   19  O3  UNL     1      24.638   3.350  49.050  1.00  0.00    -0.295 OA
HETATM   20  C16 UNL     1      25.978   2.520  50.707  1.00  0.00     0.117 C 
HETATM   21  C17 UNL     1      25.263   1.702  51.773  1.00  0.00    -0.040 C 
HETATM   22  C18 UNL     1      26.200   0.851  52.228  1.00  0.00     0.006 C 
HETATM   23  C19 UNL     1      26.221  -0.219  53.252  1.00  0.00    -0.002 C 
HETATM   24  C20 UNL     1      25.120  -0.675  53.875  1.00  0.00    -0.001 C 
HETATM   25  C21 UNL     1      23.703  -0.247  53.703  1.00  0.00     0.196 C 
HETATM   26  O4  UNL     1      23.506   0.298  52.439  1.00  0.00    -0.373 OA
HETATM   27  C22 UNL     1      23.918   1.633  52.375  1.00  0.00     0.181 C 
ENDROOT
TORSDOF 0
ENDMDL
MODEL 6
REMARK VINA RESULT:      -8.3      2.574      7.048
REMARK  0 active torsions:
REMARK  status: ('A' for Active; 'I' for Inactive)
ROOT
HETATM    1  C1  UNL     1      18.353  -0.251  51.550  1.00  0.00     0.148 C 
HETATM    2  N1  UNL     1      19.643   0.466  51.447  1.00  0.00    -0.392 N 
HETATM    3  C2  UNL     1      19.694   1.060  50.146  1.00  0.00     0.086 C 
HETATM    4  C3  UNL     1      20.525   1.955  49.636  1.00  0.00     0.031 C 
HETATM    5  C4  UNL     1      21.696   2.655  50.236  1.00  0.00    -0.002 C 
HETATM    6  C5  UNL     1      22.204   3.229  49.120  1.00  0.00     0.014 C 
HETATM    7  C6  UNL     1      23.428   4.076  49.151  1.00  0.00     0.007 C 
HETATM    8  C7  UNL     1      23.849   4.892  50.147  1.00  0.00    -0.037 C 
HETATM    9  C8  UNL     1      23.119   5.099  51.454  1.00  0.00     0.066 C 
HETATM   10  C9  UNL     1      22.835   3.796  52.152  1.00  0.00     0.022 C 
HETATM   11  C10 UNL     1      22.221   2.741  51.631  1.00  0.00     0.076 C 
HETATM   12  O1  UNL     1      22.230   1.833  52.716  1.00  0.00    -0.349 OA
HETATM   13  C11 UNL     1      21.734   0.534  52.855  1.00  0.00     0.195 C 
HETATM   14  C12 UNL     1      20.316   0.283  52.668  1.00  0.00     0.148 C 
HETATM   15  C13 UNL     1      21.823   5.803  51.127  1.00  0.00     0.181 C 
HETATM   16  O2  UNL     1      21.914   7.199  51.189  1.00  0.00    -0.383 OA
HETATM   17  C14 UNL     1      22.932   7.637  50.334  1.00  0.00     0.246 C 
HETATM   18  C15 UNL     1      22.677   7.210  48.931  1.00  0.00     0.154 C 
HETATM   19  O3  UNL     1      21.806   6.711  48.244  1.00  0.00    -0.295 OA
HETATM   20  C16 UNL     1      23.944   7.523  48.211  1.00  0.00     0.117 C 
HETATM   21  C17 UNL     1      25.017   6.548  48.675  1.00  0.00    -0.040 C 
HETATM   22  C18 UNL     1      26.129   6.939  48.026  1.00  0.00     0.006 C 
HETATM   23  C19 UNL     1      27.531   6.463  47.991  1.00  0.00    -0.002 C 
HETATM   24  C20 UNL     1      27.944   5.320  48.566  1.00  0.00    -0.001 C 
HETATM   25  C21 UNL     1      27.150   4.316  49.328  1.00  0.00     0.196 C 
HETATM   26  O4  UNL     1      25.813   4.359  48.948  1.00  0.00    -0.373 OA
HETATM   27  C22 UNL     1      25.120   5.393  49.587  1.00  0.00     0.181 C 
ENDROOT
TORSDOF 0
ENDMDL
MODEL 7
REMARK VINA RESULT:      -8.0      2.085      2.431
REMARK  0 active torsions:
REMARK  status: ('A' for Active; 'I' for Inactive)
ROOT
HETATM    1  C1  UNL     1      20.702   9.753  48.874  1.00  0.00     0.148 C 
HETATM    2  N1  UNL     1      21.490   8.570  49.287  1.00  0.00    -0.392 N 
HETATM    3  C2  UNL     1      20.712   7.859  50.255  1.00  0.00     0.086 C 
HETATM    4  C3  UNL     1      20.872   6.654  50.777  1.00  0.00     0.031 C 
HETATM    5  C4  UNL     1      21.915   5.617  50.539  1.00  0.00    -0.002 C 
HETATM    6  C5  UNL     1      21.608   4.762  51.543  1.00  0.00     0.014 C 
HETATM    7  C6  UNL     1      22.370   3.504  51.775  1.00  0.00     0.007 C 
HETATM    8  C7  UNL     1      22.962   2.709  50.851  1.00  0.00    -0.037 C 
HETATM    9  C8  UNL     1      22.949   2.965  49.362  1.00  0.00     0.066 C 
HETATM   10  C9  UNL     1      23.451   4.343  49.025  1.00  0.00     0.022 C 
HETATM   11  C10 UNL     1      23.007   5.489  49.529  1.00  0.00     0.076 C 
HETATM   12  O1  UNL     1      23.822   6.435  48.864  1.00  0.00    -0.349 OA
HETATM   13  C11 UNL     1      23.873   7.830  48.919  1.00  0.00     0.195 C 
HETATM   14  C12 UNL     1      22.697   8.607  48.567  1.00  0.00     0.148 C 
HETATM   15  C13 UNL     1      21.519   2.809  48.901  1.00  0.00     0.181 C 
HETATM   16  O2  UNL     1      21.207   1.512  48.477  1.00  0.00    -0.383 OA
HETATM   17  C14 UNL     1      21.486   0.606  49.507  1.00  0.00     0.246 C 
HETATM   18  C15 UNL     1      20.712   0.934  50.736  1.00  0.00     0.154 C 
HETATM   19  O3  UNL     1      19.811   1.658  51.113  1.00  0.00    -0.295 OA
HETATM   20  C16 UNL     1      21.298   0.057  51.789  1.00  0.00     0.117 C 
HETATM   21  C17 UNL     1      22.694   0.564  52.119  1.00  0.00    -0.040 C 
HETATM   22  C18 UNL     1      23.165  -0.313  53.023  1.00  0.00     0.006 C 
HETATM   23  C19 UNL     1      24.435  -0.448  53.773  1.00  0.00    -0.002 C 
HETATM   24  C20 UNL     1      25.398   0.491  53.784  1.00  0.00    -0.001 C 
HETATM   25  C21 UNL     1      25.426   1.810  53.092  1.00  0.00     0.196 C 
HETATM   26  O4  UNL     1      24.133   2.265  52.854  1.00  0.00    -0.373 OA
HETATM   27  C22 UNL     1      23.574   1.678  51.714  1.00  0.00     0.181 C 
ENDROOT
TORSDOF 0
ENDMDL
MODEL 8
REMARK VINA RESULT:      -7.8      3.189      6.187
REMARK  0 active torsions:
REMARK  status: ('A' for Active; 'I' for Inactive)
ROOT
HETATM    1  C1  UNL     1      26.922   0.738  54.280  1.00  0.00     0.148 C 
HETATM    2  N1  UNL     1      25.504   0.833  53.867  1.00  0.00    -0.392 N 
HETATM    3  C2  UNL     1      25.262   2.194  53.495  1.00  0.00     0.086 C 
HETATM    4  C3  UNL     1      24.233   2.752  52.876  1.00  0.00     0.031 C 
HETATM    5  C4  UNL     1      22.971   2.159  52.351  1.00  0.00    -0.002 C 
HETATM    6  C5  UNL     1      22.297   3.298  52.065  1.00  0.00     0.014 C 
HETATM    7  C6  UNL     1      20.922   3.283  51.493  1.00  0.00     0.007 C 
HETATM    8  C7  UNL     1      20.386   2.375  50.642  1.00  0.00    -0.037 C 
HETATM    9  C8  UNL     1      21.118   1.170  50.099  1.00  0.00     0.066 C 
HETATM   10  C9  UNL     1      21.709   0.329  51.197  1.00  0.00     0.022 C 
HETATM   11  C10 UNL     1      22.510   0.751  52.169  1.00  0.00     0.076 C 
HETATM   12  O1  UNL     1      22.749  -0.443  52.889  1.00  0.00    -0.349 OA
HETATM   13  C11 UNL     1      23.519  -0.715  54.022  1.00  0.00     0.195 C 
HETATM   14  C12 UNL     1      24.947  -0.451  54.001  1.00  0.00     0.148 C 
HETATM   15  C13 UNL     1      22.215   1.691  49.199  1.00  0.00     0.181 C 
HETATM   16  O2  UNL     1      21.828   1.810  47.859  1.00  0.00    -0.383 OA
HETATM   17  C14 UNL     1      20.699   2.632  47.771  1.00  0.00     0.246 C 
HETATM   18  C15 UNL     1      20.970   3.981  48.339  1.00  0.00     0.154 C 
HETATM   19  O3  UNL     1      21.893   4.662  48.744  1.00  0.00    -0.295 OA
HETATM   20  C16 UNL     1      19.631   4.633  48.404  1.00  0.00     0.117 C 
HETATM   21  C17 UNL     1      18.817   3.959  49.499  1.00  0.00    -0.040 C 
HETATM   22  C18 UNL     1      17.617   4.563  49.445  1.00  0.00     0.006 C 
HETATM   23  C19 UNL     1      16.350   4.422  50.199  1.00  0.00    -0.002 C 
HETATM   24  C20 UNL     1      16.221   3.668  51.305  1.00  0.00    -0.001 C 
HETATM   25  C21 UNL     1      17.249   2.843  52.000  1.00  0.00     0.196 C 
HETATM   26  O4  UNL     1      18.525   3.331  51.740  1.00  0.00    -0.373 OA
HETATM   27  C22 UNL     1      19.010   2.894  50.502  1.00  0.00     0.181 C 
ENDROOT
TORSDOF 0
ENDMDL
MODEL 9
REMARK VINA RESULT:      -7.7      9.511     11.731
REMARK  0 active torsions:
REMARK  status: ('A' for Active; 'I' for Inactive)
ROOT
HETATM    1  C1  UNL     1      28.611  13.096  49.259  1.00  0.00     0.148 C 
HETATM    2  N1  UNL     1      29.015  11.977  48.380  1.00  0.00    -0.392 N 
HETATM    3  C2  UNL     1      30.429  11.810  48.529  1.00  0.00     0.086 C 
HETATM    4  C3  UNL     1      31.233  10.839  48.124  1.00  0.00     0.031 C 
HETATM    5  C4  UNL     1      30.947   9.584  47.374  1.00  0.00    -0.002 C 
HETATM    6  C5  UNL     1      32.216   9.195  47.106  1.00  0.00     0.014 C 
HETATM    7  C6  UNL     1      32.521   7.952  46.346  1.00  0.00     0.007 C 
HETATM    8  C7  UNL     1      31.826   6.789  46.342  1.00  0.00    -0.037 C 
HETATM    9  C8  UNL     1      30.570   6.536  47.143  1.00  0.00     0.066 C 
HETATM   10  C9  UNL     1      29.520   7.583  46.888  1.00  0.00     0.022 C 
HETATM   11  C10 UNL     1      29.679   8.898  46.988  1.00  0.00     0.076 C 
HETATM   12  O1  UNL     1      28.391   9.373  46.646  1.00  0.00    -0.349 OA
HETATM   13  C11 UNL     1      27.859  10.663  46.563  1.00  0.00     0.195 C 
HETATM   14  C12 UNL     1      27.851  11.513  47.741  1.00  0.00     0.148 C 
HETATM   15  C13 UNL     1      30.969   6.547  48.601  1.00  0.00     0.181 C 
HETATM   16  O2  UNL     1      31.300   5.281  49.099  1.00  0.00    -0.383 OA
HETATM   17  C14 UNL     1      32.325   4.729  48.321  1.00  0.00     0.246 C 
HETATM   18  C15 UNL     1      33.530   5.602  48.320  1.00  0.00     0.154 C 
HETATM   19  O3  UNL     1      33.978   6.586  48.877  1.00  0.00    -0.295 OA
HETATM   20  C16 UNL     1      34.412   5.018  47.269  1.00  0.00     0.117 C 
HETATM   21  C17 UNL     1      33.789   5.293  45.908  1.00  0.00    -0.040 C 
HETATM   22  C18 UNL     1      34.610   4.685  45.034  1.00  0.00     0.006 C 
HETATM   23  C19 UNL     1      34.630   4.535  43.561  1.00  0.00    -0.002 C 
HETATM   24  C20 UNL     1      33.800   5.195  42.734  1.00  0.00    -0.001 C 
HETATM   25  C21 UNL     1      32.728   6.173  43.069  1.00  0.00     0.196 C 
HETATM   26  O4  UNL     1      32.992   6.790  44.288  1.00  0.00    -0.373 OA
HETATM   27  C22 UNL     1      32.607   5.994  45.371  1.00  0.00     0.181 C 
ENDROOT
TORSDOF 0
ENDMDL
