MODEL 1
REMARK VINA RESULT:      -8.2      0.000      0.000
REMARK  7 active torsions:
REMARK  status: ('A' for Active; 'I' for Inactive)
REMARK    1  A    between atoms: C3_3  and  C4_5 
REMARK    2  A    between atoms: C5_6  and  C6_7 
REMARK    3  A    between atoms: C6_7  and  N1_8 
REMARK    4  A    between atoms: N1_8  and  C7_9 
REMARK    5  A    between atoms: N4_15  and  C11_16 
REMARK    6  A    between atoms: C11_16  and  C12_17 
REMARK    7  A    between atoms: C17_22  and  O1_23 
ROOT
HETATM    1  C7  UNL     1      20.934   1.052  53.375  1.00  0.00     0.106 A 
HETATM    2  N2  UNL     1      20.224   0.114  53.953  1.00  0.00    -0.231 NA
HETATM    3  C8  UNL     1      20.749  -1.184  54.165  1.00  0.00     0.229 A 
HETATM    4  N3  UNL     1      21.934  -1.633  53.845  1.00  0.00    -0.271 NA
HETATM    5  C9  UNL     1      22.854  -0.737  53.195  1.00  0.00     0.173 A 
HETATM    6  C10 UNL     1      24.140  -0.529  53.991  1.00  0.00     0.305 C 
HETATM    7  N4  UNL     1      25.091   0.088  53.106  1.00  0.00     0.098 N 
HETATM    8  C18 UNL     1      24.533   0.932  52.104  1.00  0.00     0.301 C 
HETATM    9  C19 UNL     1      23.164   1.441  52.454  1.00  0.00     0.015 C 
HETATM   10  C20 UNL     1      22.278   0.621  53.011  1.00  0.00     0.006 A 
ENDROOT
BRANCH   7  11
HETATM   11  C11 UNL     1      26.011  -0.909  52.637  1.00  0.00     0.314 C 
BRANCH  11  12
HETATM   12  C12 UNL     1      27.403  -0.582  53.028  1.00  0.00     0.003 A 
HETATM   13  C13 UNL     1      27.961   0.632  53.350  1.00  0.00     0.012 A 
HETATM   14  C14 UNL     1      29.296   0.723  53.686  1.00  0.00     0.001 A 
HETATM   15  C15 UNL     1      30.125  -0.377  53.717  1.00  0.00     0.003 A 
HETATM   16  C16 UNL     1      29.570  -1.598  53.394  1.00  0.00     0.037 A 
HETATM   17  C17 UNL     1      28.226  -1.706  53.053  1.00  0.00     0.073 A 
BRANCH  17  18
HETATM   18  O1  UNL     1      27.842  -3.023  52.758  1.00  0.00    -0.360 OA
HETATM   19  H18 UNL     1      27.135  -3.191  52.055  1.00  0.00     0.217 HD
ENDBRANCH  17  18
ENDBRANCH  11  12
ENDBRANCH   7  11
BRANCH   1  20
HETATM   20  N1  UNL     1      20.580   2.403  53.077  1.00  0.00    -0.285 NA
BRANCH  20  21
HETATM   21  C6  UNL     1      20.171   2.622  51.881  1.00  0.00     0.260 C 
BRANCH  21  22
HETATM   22  C5  UNL     1      20.078   3.131  50.531  1.00  0.00    -0.002 C 
HETATM   23  C4  UNL     1      20.856   3.547  49.560  1.00  0.00     0.021 C 
BRANCH  23  24
HETATM   24  C3  UNL     1      22.298   3.633  49.555  1.00  0.00     0.029 C 
HETATM   25  C2  UNL     1      22.984   2.805  48.756  1.00  0.00    -0.007 C 
HETATM   26  C1  UNL     1      22.250   1.816  47.891  1.00  0.00     0.038 C 
HETATM   27 CL1  UNL     1      23.245   4.733  50.508  1.00  0.00    -0.085 Cl
ENDBRANCH  23  24
ENDBRANCH  21  22
ENDBRANCH  20  21
ENDBRANCH   1  20
TORSDOF 7
ENDMDL
MODEL 2
REMARK VINA RESULT:      -7.9      3.692      6.794
REMARK  7 active torsions:
REMARK  status: ('A' for Active; 'I' for Inactive)
REMARK    1  A    between atoms: C3_3  and  C4_5 
REMARK    2  A    between atoms: C5_6  and  C6_7 
REMARK    3  A    between atoms: C6_7  and  N1_8 
REMARK    4  A    between atoms: N1_8  and  C7_9 
REMARK    5  A    between atoms: N4_15  and  C11_16 
REMARK    6  A    between atoms: C11_16  and  C12_17 
REMARK    7  A    between atoms: C17_22  and  O1_23 
ROOT
HETATM    1  C7  UNL     1      23.054   0.144  53.087  1.00  0.00     0.106 A 
HETATM    2  N2  UNL     1      22.036  -0.470  52.536  1.00  0.00    -0.231 NA
HETATM    3  C8  UNL     1      21.247   0.156  51.541  1.00  0.00     0.229 A 
HETATM    4  N3  UNL     1      21.385   1.357  51.044  1.00  0.00    -0.271 NA
HETATM    5  C9  UNL     1      22.456   2.184  51.536  1.00  0.00     0.173 A 
HETATM    6  C10 UNL     1      23.437   2.596  50.442  1.00  0.00     0.305 C 
HETATM    7  N4  UNL     1      24.238   3.666  50.972  1.00  0.00     0.098 N 
HETATM    8  C18 UNL     1      24.459   3.624  52.378  1.00  0.00     0.301 C 
HETATM    9  C19 UNL     1      24.287   2.250  52.963  1.00  0.00     0.015 C 
HETATM   10  C20 UNL     1      23.277   1.485  52.560  1.00  0.00     0.006 A 
ENDROOT
BRANCH   7  11
HETATM   11  C11 UNL     1      23.752   4.915  50.458  1.00  0.00     0.314 C 
BRANCH  11  12
HETATM   12  C12 UNL     1      24.859   5.746  49.929  1.00  0.00     0.003 A 
HETATM   13  C13 UNL     1      25.748   5.480  48.915  1.00  0.00     0.012 A 
HETATM   14  C14 UNL     1      26.721   6.398  48.575  1.00  0.00     0.001 A 
HETATM   15  C15 UNL     1      26.849   7.608  49.222  1.00  0.00     0.003 A 
HETATM   16  C16 UNL     1      25.959   7.880  50.240  1.00  0.00     0.037 A 
HETATM   17  C17 UNL     1      24.973   6.965  50.594  1.00  0.00     0.073 A 
BRANCH  17  18
HETATM   18  O1  UNL     1      24.164   7.415  51.647  1.00  0.00    -0.360 OA
HETATM   19  H18 UNL     1      24.146   6.901  52.518  1.00  0.00     0.217 HD
ENDBRANCH  17  18
ENDBRANCH  11  12
ENDBRANCH   7  11
BRANCH   1  20
HETATM   20  N1  UNL     1      23.954  -0.318  54.095  1.00  0.00    -0.285 NA
BRANCH  20  21
HETATM   21  C6  UNL     1      25.053  -0.829  53.671  1.00  0.00     0.260 C 
BRANCH  21  22
HETATM   22  C5  UNL     1      26.221  -1.102  52.865  1.00  0.00    -0.002 C 
HETATM   23  C4  UNL     1      27.451  -0.678  52.705  1.00  0.00     0.021 C 
BRANCH  23  24
HETATM   24  C3  UNL     1      28.122   0.383  53.420  1.00  0.00     0.029 C 
HETATM   25  C2  UNL     1      29.346   0.148  53.910  1.00  0.00    -0.007 C 
HETATM   26  C1  UNL     1      29.990  -1.198  53.709  1.00  0.00     0.038 C 
HETATM   27 CL1  UNL     1      27.476   1.969  53.709  1.00  0.00    -0.085 Cl
ENDBRANCH  23  24
ENDBRANCH  21  22
ENDBRANCH  20  21
ENDBRANCH   1  20
TORSDOF 7
ENDMDL
MODEL 3
REMARK VINA RESULT:      -7.8      2.881      4.644
REMARK  7 active torsions:
REMARK  status: ('A' for Active; 'I' for Inactive)
REMARK    1  A    between atoms: C3_3  and  C4_5 
REMARK    2  A    between atoms: C5_6  and  C6_7 
REMARK    3  A    between atoms: C6_7  and  N1_8 
REMARK    4  A    between atoms: N1_8  and  C7_9 
REMARK    5  A    between atoms: N4_15  and  C11_16 
REMARK    6  A    between atoms: C11_16  and  C12_17 
REMARK    7  A    between atoms: C17_22  and  O1_23 
ROOT
HETATM    1  C7  UNL     1      21.349   4.252  51.651  1.00  0.00     0.106 A 
HETATM    2  N2  UNL     1      21.256   5.171  50.721  1.00  0.00    -0.231 NA
HETATM    3  C8  UNL     1      22.396   5.628  50.017  1.00  0.00     0.229 A 
HETATM    4  N3  UNL     1      23.637   5.244  50.164  1.00  0.00    -0.271 NA
HETATM    5  C9  UNL     1      23.932   4.237  51.149  1.00  0.00     0.173 A 
HETATM    6  C10 UNL     1      24.563   2.985  50.545  1.00  0.00     0.305 C 
HETATM    7  N4  UNL     1      25.111   2.221  51.633  1.00  0.00     0.098 N 
HETATM    8  C18 UNL     1      24.424   2.346  52.874  1.00  0.00     0.301 C 
HETATM    9  C19 UNL     1      23.000   2.802  52.719  1.00  0.00     0.015 C 
HETATM   10  C20 UNL     1      22.709   3.765  51.850  1.00  0.00     0.006 A 
ENDROOT
BRANCH   7  11
HETATM   11  C11 UNL     1      26.530   2.430  51.685  1.00  0.00     0.314 C 
BRANCH  11  12
HETATM   12  C12 UNL     1      27.217   1.298  52.351  1.00  0.00     0.003 A 
HETATM   13  C13 UNL     1      26.874  -0.033  52.393  1.00  0.00     0.012 A 
HETATM   14  C14 UNL     1      27.656  -0.938  53.080  1.00  0.00     0.001 A 
HETATM   15  C15 UNL     1      28.802  -0.563  53.748  1.00  0.00     0.003 A 
HETATM   16  C16 UNL     1      29.151   0.771  53.709  1.00  0.00     0.037 A 
HETATM   17  C17 UNL     1      28.372   1.696  53.020  1.00  0.00     0.073 A 
BRANCH  17  18
HETATM   18  O1  UNL     1      28.883   3.000  53.091  1.00  0.00    -0.360 OA
HETATM   19  H18 UNL     1      28.429   3.683  53.682  1.00  0.00     0.217 HD
ENDBRANCH  17  18
ENDBRANCH  11  12
ENDBRANCH   7  11
BRANCH   1  20
HETATM   20  N1  UNL     1      20.325   3.674  52.460  1.00  0.00    -0.285 NA
BRANCH  20  21
HETATM   21  C6  UNL     1      19.628   2.751  51.904  1.00  0.00     0.260 C 
BRANCH  21  22
HETATM   22  C5  UNL     1      19.252   1.523  51.239  1.00  0.00    -0.002 C 
HETATM   23  C4  UNL     1      19.062   0.254  51.509  1.00  0.00     0.021 C 
BRANCH  23  24
HETATM   24  C3  UNL     1      19.199  -0.410  52.784  1.00  0.00     0.029 C 
HETATM   25  C2  UNL     1      18.163  -1.121  53.249  1.00  0.00    -0.007 C 
HETATM   26  C1  UNL     1      16.894  -1.213  52.443  1.00  0.00     0.038 C 
HETATM   27 CL1  UNL     1      20.612  -0.373  53.794  1.00  0.00    -0.085 Cl
ENDBRANCH  23  24
ENDBRANCH  21  22
ENDBRANCH  20  21
ENDBRANCH   1  20
TORSDOF 7
ENDMDL
MODEL 4
REMARK VINA RESULT:      -7.8      2.924      4.675
REMARK  7 active torsions:
REMARK  status: ('A' for Active; 'I' for Inactive)
REMARK    1  A    between atoms: C3_3  and  C4_5 
REMARK    2  A    between atoms: C5_6  and  C6_7 
REMARK    3  A    between atoms: C6_7  and  N1_8 
REMARK    4  A    between atoms: N1_8  and  C7_9 
REMARK    5  A    between atoms: N4_15  and  C11_16 
REMARK    6  A    between atoms: C11_16  and  C12_17 
REMARK    7  A    between atoms: C17_22  and  O1_23 
ROOT
HETATM    1  C7  UNL     1      21.184   1.758  51.306  1.00  0.00     0.106 A 
HETATM    2  N2  UNL     1      20.977   3.038  51.116  1.00  0.00    -0.231 NA
HETATM    3  C8  UNL     1      21.855   4.014  51.646  1.00  0.00     0.229 A 
HETATM    4  N3  UNL     1      22.933   3.821  52.360  1.00  0.00    -0.271 NA
HETATM    5  C9  UNL     1      23.316   2.470  52.673  1.00  0.00     0.173 A 
HETATM    6  C10 UNL     1      24.698   2.106  52.135  1.00  0.00     0.305 C 
HETATM    7  N4  UNL     1      25.100   0.889  52.787  1.00  0.00     0.098 N 
HETATM    8  C18 UNL     1      24.037   0.010  53.146  1.00  0.00     0.301 C 
HETATM    9  C19 UNL     1      22.788   0.233  52.342  1.00  0.00     0.015 C 
HETATM   10  C20 UNL     1      22.386   1.473  52.080  1.00  0.00     0.006 A 
ENDROOT
BRANCH   7  11
HETATM   11  C11 UNL     1      26.026   1.203  53.837  1.00  0.00     0.314 C 
BRANCH  11  12
HETATM   12  C12 UNL     1      27.285   0.434  53.691  1.00  0.00     0.003 A 
HETATM   13  C13 UNL     1      27.472  -0.890  53.374  1.00  0.00     0.012 A 
HETATM   14  C14 UNL     1      28.743  -1.420  53.292  1.00  0.00     0.001 A 
HETATM   15  C15 UNL     1      29.872  -0.663  53.517  1.00  0.00     0.003 A 
HETATM   16  C16 UNL     1      29.690   0.667  53.836  1.00  0.00     0.037 A 
HETATM   17  C17 UNL     1      28.415   1.215  53.923  1.00  0.00     0.073 A 
BRANCH  17  18
HETATM   18  O1  UNL     1      28.428   2.578  54.256  1.00  0.00    -0.360 OA
HETATM   19  H18 UNL     1      29.309   3.072  54.303  1.00  0.00     0.217 HD
ENDBRANCH  17  18
ENDBRANCH  11  12
ENDBRANCH   7  11
BRANCH   1  20
HETATM   20  N1  UNL     1      20.417   0.639  50.858  1.00  0.00    -0.285 NA
BRANCH  20  21
HETATM   21  C6  UNL     1      19.371   0.366  51.548  1.00  0.00     0.260 C 
BRANCH  21  22
HETATM   22  C5  UNL     1      18.072  -0.137  51.937  1.00  0.00    -0.002 C 
HETATM   23  C4  UNL     1      17.543  -1.085  52.671  1.00  0.00     0.021 C 
BRANCH  23  24
HETATM   24  C3  UNL     1      18.229  -2.090  53.451  1.00  0.00     0.029 C 
HETATM   25  C2  UNL     1      17.623  -3.268  53.649  1.00  0.00    -0.007 C 
HETATM   26  C1  UNL     1      16.258  -3.518  53.065  1.00  0.00     0.038 C 
HETATM   27 CL1  UNL     1      19.800  -1.909  54.169  1.00  0.00    -0.085 Cl
ENDBRANCH  23  24
ENDBRANCH  21  22
ENDBRANCH  20  21
ENDBRANCH   1  20
TORSDOF 7
ENDMDL
MODEL 5
REMARK VINA RESULT:      -7.8      2.268      3.057
REMARK  7 active torsions:
REMARK  status: ('A' for Active; 'I' for Inactive)
REMARK    1  A    between atoms: C3_3  and  C4_5 
REMARK    2  A    between atoms: C5_6  and  C6_7 
REMARK    3  A    between atoms: C6_7  and  N1_8 
REMARK    4  A    between atoms: N1_8  and  C7_9 
REMARK    5  A    between atoms: N4_15  and  C11_16 
REMARK    6  A    between atoms: C11_16  and  C12_17 
REMARK    7  A    between atoms: C17_22  and  O1_23 
ROOT
HETATM    1  C7  UNL     1      20.982   0.977  53.223  1.00  0.00     0.106 A 
HETATM    2  N2  UNL     1      20.262   0.103  53.883  1.00  0.00    -0.231 NA
HETATM    3  C8  UNL     1      20.781  -1.166  54.236  1.00  0.00     0.229 A 
HETATM    4  N3  UNL     1      21.971  -1.645  53.983  1.00  0.00    -0.271 NA
HETATM    5  C9  UNL     1      22.903  -0.821  53.259  1.00  0.00     0.173 A 
HETATM    6  C10 UNL     1      24.176  -0.530  54.050  1.00  0.00     0.305 C 
HETATM    7  N4  UNL     1      25.142  -0.008  53.122  1.00  0.00     0.098 N 
HETATM    8  C18 UNL     1      24.600   0.728  52.029  1.00  0.00     0.301 C 
HETATM    9  C19 UNL     1      23.226   1.270  52.303  1.00  0.00     0.015 C 
HETATM   10  C20 UNL     1      22.331   0.511  52.927  1.00  0.00     0.006 A 
ENDROOT
BRANCH   7  11
HETATM   11  C11 UNL     1      26.067  -1.047  52.773  1.00  0.00     0.314 C 
BRANCH  11  12
HETATM   12  C12 UNL     1      27.460  -0.658  53.099  1.00  0.00     0.003 A 
HETATM   13  C13 UNL     1      27.981   0.582  53.381  1.00  0.00     0.012 A 
HETATM   14  C14 UNL     1      29.324   0.734  53.658  1.00  0.00     0.001 A 
HETATM   15  C15 UNL     1      30.198  -0.331  53.667  1.00  0.00     0.003 A 
HETATM   16  C16 UNL     1      29.681  -1.578  53.384  1.00  0.00     0.037 A 
HETATM   17  C17 UNL     1      28.329  -1.747  53.103  1.00  0.00     0.073 A 
BRANCH  17  18
HETATM   18  O1  UNL     1      27.989  -3.082  52.841  1.00  0.00    -0.360 OA
HETATM   19  H18 UNL     1      28.540  -3.827  53.245  1.00  0.00     0.217 HD
ENDBRANCH  17  18
ENDBRANCH  11  12
ENDBRANCH   7  11
BRANCH   1  20
HETATM   20  N1  UNL     1      20.634   2.290  52.782  1.00  0.00    -0.285 NA
BRANCH  20  21
HETATM   21  C6  UNL     1      19.913   2.350  51.722  1.00  0.00     0.260 C 
BRANCH  21  22
HETATM   22  C5  UNL     1      19.010   1.993  50.651  1.00  0.00    -0.002 C 
HETATM   23  C4  UNL     1      17.913   1.302  50.453  1.00  0.00     0.021 C 
BRANCH  23  24
HETATM   24  C3  UNL     1      17.147   0.558  51.426  1.00  0.00     0.029 C 
HETATM   25  C2  UNL     1      15.977   1.064  51.839  1.00  0.00    -0.007 C 
HETATM   26  C1  UNL     1      15.491   2.378  51.288  1.00  0.00     0.038 C 
HETATM   27 CL1  UNL     1      17.609  -0.963  52.125  1.00  0.00    -0.085 Cl
ENDBRANCH  23  24
ENDBRANCH  21  22
ENDBRANCH  20  21
ENDBRANCH   1  20
TORSDOF 7
ENDMDL
MODEL 6
REMARK VINA RESULT:      -7.6      3.565      6.784
REMARK  7 active torsions:
REMARK  status: ('A' for Active; 'I' for Inactive)
REMARK    1  A    between atoms: C3_3  and  C4_5 
REMARK    2  A    between atoms: C5_6  and  C6_7 
REMARK    3  A    between atoms: C6_7  and  N1_8 
REMARK    4  A    between atoms: N1_8  and  C7_9 
REMARK    5  A    between atoms: N4_15  and  C11_16 
REMARK    6  A    between atoms: C11_16  and  C12_17 
REMARK    7  A    between atoms: C17_22  and  O1_23 
ROOT
HETATM    1  C7  UNL     1      26.415   2.527  51.055  1.00  0.00     0.106 A 
HETATM    2  N2  UNL     1      27.404   2.441  51.911  1.00  0.00    -0.231 NA
HETATM    3  C8  UNL     1      27.182   2.085  53.263  1.00  0.00     0.229 A 
HETATM    4  N3  UNL     1      26.044   1.807  53.843  1.00  0.00    -0.271 NA
HETATM    5  C9  UNL     1      24.842   1.855  53.053  1.00  0.00     0.173 A 
HETATM    6  C10 UNL     1      24.111   0.515  53.004  1.00  0.00     0.305 C 
HETATM    7  N4  UNL     1      22.792   0.770  52.492  1.00  0.00     0.098 N 
HETATM    8  C18 UNL     1      22.692   1.858  51.579  1.00  0.00     0.301 C 
HETATM    9  C19 UNL     1      23.998   2.197  50.917  1.00  0.00     0.015 C 
HETATM   10  C20 UNL     1      25.117   2.207  51.636  1.00  0.00     0.006 A 
ENDROOT
BRANCH   7  11
HETATM   11  C11 UNL     1      21.861   0.789  53.584  1.00  0.00     0.314 C 
BRANCH  11  12
HETATM   12  C12 UNL     1      20.553   0.217  53.185  1.00  0.00     0.003 A 
HETATM   13  C13 UNL     1      19.647   0.666  52.254  1.00  0.00     0.012 A 
HETATM   14  C14 UNL     1      18.470  -0.019  52.032  1.00  0.00     0.001 A 
HETATM   15  C15 UNL     1      18.146  -1.168  52.720  1.00  0.00     0.003 A 
HETATM   16  C16 UNL     1      19.051  -1.623  53.656  1.00  0.00     0.037 A 
HETATM   17  C17 UNL     1      20.242  -0.944  53.890  1.00  0.00     0.073 A 
BRANCH  17  18
HETATM   18  O1  UNL     1      21.034  -1.554  54.874  1.00  0.00    -0.360 OA
HETATM   19  H18 UNL     1      20.614  -2.212  55.516  1.00  0.00     0.217 HD
ENDBRANCH  17  18
ENDBRANCH  11  12
ENDBRANCH   7  11
BRANCH   1  20
HETATM   20  N1  UNL     1      26.443   2.869  49.669  1.00  0.00    -0.285 NA
BRANCH  20  21
HETATM   21  C6  UNL     1      27.037   3.969  49.377  1.00  0.00     0.260 C 
BRANCH  21  22
HETATM   22  C5  UNL     1      27.547   5.102  48.638  1.00  0.00    -0.002 C 
HETATM   23  C4  UNL     1      27.251   6.357  48.396  1.00  0.00     0.021 C 
BRANCH  23  24
HETATM   24  C3  UNL     1      26.121   7.111  48.888  1.00  0.00     0.029 C 
HETATM   25  C2  UNL     1      25.563   8.024  48.082  1.00  0.00    -0.007 C 
HETATM   26  C1  UNL     1      26.116   8.242  46.698  1.00  0.00     0.038 C 
HETATM   27 CL1  UNL     1      25.403   6.941  50.460  1.00  0.00    -0.085 Cl
ENDBRANCH  23  24
ENDBRANCH  21  22
ENDBRANCH  20  21
ENDBRANCH   1  20
TORSDOF 7
ENDMDL
MODEL 7
REMARK VINA RESULT:      -7.5      2.876      3.715
REMARK  7 active torsions:
REMARK  status: ('A' for Active; 'I' for Inactive)
REMARK    1  A    between atoms: C3_3  and  C4_5 
REMARK    2  A    between atoms: C5_6  and  C6_7 
REMARK    3  A    between atoms: C6_7  and  N1_8 
REMARK    4  A    between atoms: N1_8  and  C7_9 
REMARK    5  A    between atoms: N4_15  and  C11_16 
REMARK    6  A    between atoms: C11_16  and  C12_17 
REMARK    7  A    between atoms: C17_22  and  O1_23 
ROOT
HETATM    1  C7  UNL     1      22.523   3.581  50.805  1.00  0.00     0.106 A 
HETATM    2  N2  UNL     1      21.473   3.080  50.201  1.00  0.00    -0.231 NA
HETATM    3  C8  UNL     1      21.205   1.690  50.217  1.00  0.00     0.229 A 
HETATM    4  N3  UNL     1      21.903   0.744  50.788  1.00  0.00    -0.271 NA
HETATM    5  C9  UNL     1      23.100   1.109  51.499  1.00  0.00     0.173 A 
HETATM    6  C10 UNL     1      23.053   0.723  52.975  1.00  0.00     0.305 C 
HETATM    7  N4  UNL     1      24.395   0.821  53.482  1.00  0.00     0.098 N 
HETATM    8  C18 UNL     1      25.211   1.808  52.859  1.00  0.00     0.301 C 
HETATM    9  C19 UNL     1      24.419   2.893  52.186  1.00  0.00     0.015 C 
HETATM   10  C20 UNL     1      23.336   2.576  51.482  1.00  0.00     0.006 A 
ENDROOT
BRANCH   7  11
HETATM   11  C11 UNL     1      24.963  -0.493  53.564  1.00  0.00     0.314 C 
BRANCH  11  12
HETATM   12  C12 UNL     1      26.417  -0.434  53.848  1.00  0.00     0.003 A 
HETATM   13  C13 UNL     1      27.097   0.299  54.791  1.00  0.00     0.012 A 
HETATM   14  C14 UNL     1      28.470   0.214  54.890  1.00  0.00     0.001 A 
HETATM   15  C15 UNL     1      29.220  -0.596  54.065  1.00  0.00     0.003 A 
HETATM   16  C16 UNL     1      28.543  -1.333  53.116  1.00  0.00     0.037 A 
HETATM   17  C17 UNL     1      27.158  -1.259  53.004  1.00  0.00     0.073 A 
BRANCH  17  18
HETATM   18  O1  UNL     1      26.648  -2.078  51.986  1.00  0.00    -0.360 OA
HETATM   19  H18 UNL     1      26.107  -2.897  52.228  1.00  0.00     0.217 HD
ENDBRANCH  17  18
ENDBRANCH  11  12
ENDBRANCH   7  11
BRANCH   1  20
HETATM   20  N1  UNL     1      22.956   4.938  50.896  1.00  0.00    -0.285 NA
BRANCH  20  21
HETATM   21  C6  UNL     1      23.903   5.278  50.099  1.00  0.00     0.260 C 
BRANCH  21  22
HETATM   22  C5  UNL     1      24.780   6.066  49.263  1.00  0.00    -0.002 C 
HETATM   23  C4  UNL     1      25.976   6.007  48.728  1.00  0.00     0.021 C 
BRANCH  23  24
HETATM   24  C3  UNL     1      26.944   4.940  48.838  1.00  0.00     0.029 C 
HETATM   25  C2  UNL     1      28.207   5.183  48.467  1.00  0.00    -0.007 C 
HETATM   26  C1  UNL     1      28.589   6.545  47.950  1.00  0.00     0.038 C 
HETATM   27 CL1  UNL     1      26.615   3.337  49.418  1.00  0.00    -0.085 Cl
ENDBRANCH  23  24
ENDBRANCH  21  22
ENDBRANCH  20  21
ENDBRANCH   1  20
TORSDOF 7
ENDMDL
MODEL 8
REMARK VINA RESULT:      -7.4      2.528      4.169
REMARK  7 active torsions:
REMARK  status: ('A' for Active; 'I' for Inactive)
REMARK    1  A    between atoms: C3_3  and  C4_5 
REMARK    2  A    between atoms: C5_6  and  C6_7 
REMARK    3  A    between atoms: C6_7  and  N1_8 
REMARK    4  A    between atoms: N1_8  and  C7_9 
REMARK    5  A    between atoms: N4_15  and  C11_16 
REMARK    6  A    between atoms: C11_16  and  C12_17 
REMARK    7  A    between atoms: C17_22  and  O1_23 
ROOT
HETATM    1  C7  UNL     1      22.181   3.332  49.556  1.00  0.00     0.106 A 
HETATM    2  N2  UNL     1      22.200   4.643  49.563  1.00  0.00    -0.231 NA
HETATM    3  C8  UNL     1      22.953   5.364  50.520  1.00  0.00     0.229 A 
HETATM    4  N3  UNL     1      23.696   4.887  51.484  1.00  0.00    -0.271 NA
HETATM    5  C9  UNL     1      23.792   3.458  51.632  1.00  0.00     0.173 A 
HETATM    6  C10 UNL     1      25.223   2.943  51.494  1.00  0.00     0.305 C 
HETATM    7  N4  UNL     1      25.237   1.593  51.989  1.00  0.00     0.098 N 
HETATM    8  C18 UNL     1      24.022   0.869  51.819  1.00  0.00     0.301 C 
HETATM    9  C19 UNL     1      23.153   1.419  50.724  1.00  0.00     0.015 C 
HETATM   10  C20 UNL     1      23.009   2.734  50.596  1.00  0.00     0.006 A 
ENDROOT
BRANCH   7  11
HETATM   11  C11 UNL     1      25.783   1.587  53.316  1.00  0.00     0.314 C 
BRANCH  11  12
HETATM   12  C12 UNL     1      27.006   0.753  53.390  1.00  0.00     0.003 A 
HETATM   13  C13 UNL     1      27.169  -0.589  53.140  1.00  0.00     0.012 A 
HETATM   14  C14 UNL     1      28.407  -1.183  53.272  1.00  0.00     0.001 A 
HETATM   15  C15 UNL     1      29.526  -0.475  53.654  1.00  0.00     0.003 A 
HETATM   16  C16 UNL     1      29.368   0.872  53.907  1.00  0.00     0.037 A 
HETATM   17  C17 UNL     1      28.126   1.485  53.779  1.00  0.00     0.073 A 
BRANCH  17  18
HETATM   18  O1  UNL     1      28.160   2.855  54.076  1.00  0.00    -0.360 OA
HETATM   19  H18 UNL     1      27.512   3.481  53.619  1.00  0.00     0.217 HD
ENDBRANCH  17  18
ENDBRANCH  11  12
ENDBRANCH   7  11
BRANCH   1  20
HETATM   20  N1  UNL     1      21.489   2.440  48.682  1.00  0.00    -0.285 NA
BRANCH  20  21
HETATM   21  C6  UNL     1      20.446   1.875  49.172  1.00  0.00     0.260 C 
BRANCH  21  22
HETATM   22  C5  UNL     1      19.551   1.188  50.076  1.00  0.00    -0.002 C 
HETATM   23  C4  UNL     1      19.321   1.069  51.362  1.00  0.00     0.021 C 
BRANCH  23  24
HETATM   24  C3  UNL     1      20.023   1.709  52.450  1.00  0.00     0.029 C 
HETATM   25  C2  UNL     1      20.516   0.941  53.431  1.00  0.00    -0.007 C 
HETATM   26  C1  UNL     1      20.332  -0.553  53.379  1.00  0.00     0.038 C 
HETATM   27 CL1  UNL     1      20.293   3.417  52.610  1.00  0.00    -0.085 Cl
ENDBRANCH  23  24
ENDBRANCH  21  22
ENDBRANCH  20  21
ENDBRANCH   1  20
TORSDOF 7
ENDMDL
MODEL 9
REMARK VINA RESULT:      -7.4      3.242      4.592
REMARK  7 active torsions:
REMARK  status: ('A' for Active; 'I' for Inactive)
REMARK    1  A    between atoms: C3_3  and  C4_5 
REMARK    2  A    between atoms: C5_6  and  C6_7 
REMARK    3  A    between atoms: C6_7  and  N1_8 
REMARK    4  A    between atoms: N1_8  and  C7_9 
REMARK    5  A    between atoms: N4_15  and  C11_16 
REMARK    6  A    between atoms: C11_16  and  C12_17 
REMARK    7  A    between atoms: C17_22  and  O1_23 
ROOT
HETATM    1  C7  UNL     1      21.099   1.437  51.513  1.00  0.00     0.106 A 
HETATM    2  N2  UNL     1      20.847   2.691  51.225  1.00  0.00    -0.231 NA
HETATM    3  C8  UNL     1      21.726   3.729  51.615  1.00  0.00     0.229 A 
HETATM    4  N3  UNL     1      22.848   3.625  52.278  1.00  0.00    -0.271 NA
HETATM    5  C9  UNL     1      23.285   2.315  52.685  1.00  0.00     0.173 A 
HETATM    6  C10 UNL     1      24.643   1.936  52.100  1.00  0.00     0.305 C 
HETATM    7  N4  UNL     1      25.115   0.791  52.831  1.00  0.00     0.098 N 
HETATM    8  C18 UNL     1      24.099  -0.076  53.326  1.00  0.00     0.301 C 
HETATM    9  C19 UNL     1      22.801   0.046  52.581  1.00  0.00     0.015 C 
HETATM   10  C20 UNL     1      22.351   1.249  52.237  1.00  0.00     0.006 A 
ENDROOT
BRANCH   7  11
HETATM   11  C11 UNL     1      26.090   1.218  53.793  1.00  0.00     0.314 C 
BRANCH  11  12
HETATM   12  C12 UNL     1      27.355   0.458  53.650  1.00  0.00     0.003 A 
HETATM   13  C13 UNL     1      27.551  -0.869  53.352  1.00  0.00     0.012 A 
HETATM   14  C14 UNL     1      28.827  -1.389  53.268  1.00  0.00     0.001 A 
HETATM   15  C15 UNL     1      29.951  -0.618  53.473  1.00  0.00     0.003 A 
HETATM   16  C16 UNL     1      29.759   0.715  53.772  1.00  0.00     0.037 A 
HETATM   17  C17 UNL     1      28.480   1.253  53.860  1.00  0.00     0.073 A 
BRANCH  17  18
HETATM   18  O1  UNL     1      28.483   2.621  54.171  1.00  0.00    -0.360 OA
HETATM   19  H18 UNL     1      27.923   3.259  53.623  1.00  0.00     0.217 HD
ENDBRANCH  17  18
ENDBRANCH  11  12
ENDBRANCH   7  11
BRANCH   1  20
HETATM   20  N1  UNL     1      20.339   0.266  51.209  1.00  0.00    -0.285 NA
BRANCH  20  21
HETATM   21  C6  UNL     1      19.325   0.047  51.965  1.00  0.00     0.260 C 
BRANCH  21  22
HETATM   22  C5  UNL     1      18.199  -0.598  52.602  1.00  0.00    -0.002 C 
HETATM   23  C4  UNL     1      16.918  -0.800  52.410  1.00  0.00     0.021 C 
BRANCH  23  24
HETATM   24  C3  UNL     1      16.108  -0.355  51.299  1.00  0.00     0.029 C 
HETATM   25  C2  UNL     1      14.949   0.262  51.562  1.00  0.00    -0.007 C 
HETATM   26  C1  UNL     1      14.518   0.476  52.989  1.00  0.00     0.038 C 
HETATM   27 CL1  UNL     1      16.506  -0.548  49.620  1.00  0.00    -0.085 Cl
ENDBRANCH  23  24
ENDBRANCH  21  22
ENDBRANCH  20  21
ENDBRANCH   1  20
TORSDOF 7
ENDMDL
