MODEL 1
REMARK VINA RESULT:      -7.6      0.000      0.000
REMARK  3 active torsions:
REMARK  status: ('A' for Active; 'I' for Inactive)
REMARK    1  A    between atoms: N4_10  and  C7_11 
REMARK    2  A    between atoms: C7_11  and  C8_12 
REMARK    3  A    between atoms: C7_11  and  C10_15 
ROOT
HETATM    1  C8  UNL     1      21.397   2.923  51.948  1.00  0.00     0.151 C 
HETATM    2  C9  UNL     1      20.002   3.225  51.948  1.00  0.00     0.061 C 
HETATM    3  N5  UNL     1      18.873   3.485  51.961  1.00  0.00    -0.197 NA
ENDROOT
BRANCH   1   4
HETATM    4  C7  UNL     1      21.761   1.618  51.313  1.00  0.00     0.127 C 
BRANCH   4   5
HETATM    5  N4  UNL     1      22.708   0.967  52.250  1.00  0.00    -0.266 N 
HETATM    6  N3  UNL     1      24.018   0.945  52.334  1.00  0.00    -0.183 NA
HETATM    7  C6  UNL     1      24.442   0.197  53.377  1.00  0.00     0.153 A 
HETATM    8  C5  UNL     1      23.273  -0.295  54.000  1.00  0.00     0.026 A 
HETATM    9  C4  UNL     1      23.383  -1.328  55.025  1.00  0.00     0.133 C 
HETATM   10  C15 UNL     1      22.239   0.223  53.258  1.00  0.00     0.061 A 
HETATM   11  N2  UNL     1      22.227  -1.926  55.287  1.00  0.00    -0.243 NA
HETATM   12  C3  UNL     1      21.089  -1.482  54.506  1.00  0.00     0.141 A 
HETATM   13  N1  UNL     1      19.921  -1.642  53.982  1.00  0.00    -0.236 NA
HETATM   14  C16 UNL     1      21.008  -0.121  53.966  1.00  0.00     0.161 A 
HETATM   15  C2  UNL     1      19.753  -0.394  53.319  1.00  0.00     0.044 A 
HETATM   16  C1  UNL     1      18.606  -0.496  52.663  1.00  0.00     0.041 C 
ENDBRANCH   4   5
BRANCH   4  17
HETATM   17  C10 UNL     1      22.467   1.775  50.014  1.00  0.00     0.011 C 
HETATM   18  C11 UNL     1      22.965   3.138  49.682  1.00  0.00     0.007 C 
HETATM   19  C12 UNL     1      22.779   3.356  48.181  1.00  0.00     0.000 C 
HETATM   20  C13 UNL     1      22.468   2.003  47.663  1.00  0.00     0.000 C 
HETATM   21  C14 UNL     1      21.634   1.398  48.808  1.00  0.00     0.007 C 
ENDBRANCH   4  17
ENDBRANCH   1   4
TORSDOF 3
ENDMDL
MODEL 2
REMARK VINA RESULT:      -7.4      1.971      3.943
REMARK  3 active torsions:
REMARK  status: ('A' for Active; 'I' for Inactive)
REMARK    1  A    between atoms: N4_10  and  C7_11 
REMARK    2  A    between atoms: C7_11  and  C8_12 
REMARK    3  A    between atoms: C7_11  and  C10_15 
ROOT
HETATM    1  C8  UNL     1      21.309   1.005  50.780  1.00  0.00     0.151 C 
HETATM    2  C9  UNL     1      21.494   1.036  49.366  1.00  0.00     0.061 C 
HETATM    3  N5  UNL     1      21.625   1.054  48.214  1.00  0.00    -0.197 NA
ENDROOT
BRANCH   1   4
HETATM    4  C7  UNL     1      22.559   1.169  51.585  1.00  0.00     0.127 C 
BRANCH   4   5
HETATM    5  N4  UNL     1      22.341   0.391  52.828  1.00  0.00    -0.266 N 
HETATM    6  N3  UNL     1      21.274   0.121  53.545  1.00  0.00    -0.183 NA
HETATM    7  C6  UNL     1      21.572  -0.641  54.620  1.00  0.00     0.153 A 
HETATM    8  C5  UNL     1      22.966  -0.865  54.562  1.00  0.00     0.026 A 
HETATM    9  C4  UNL     1      23.649  -1.463  55.705  1.00  0.00     0.133 C 
HETATM   10  C15 UNL     1      23.376  -0.206  53.428  1.00  0.00     0.061 A 
HETATM   11  N2  UNL     1      24.967  -1.318  55.658  1.00  0.00    -0.243 NA
HETATM   12  C3  UNL     1      25.486  -0.581  54.521  1.00  0.00     0.141 A 
HETATM   13  N1  UNL     1      26.379   0.137  53.927  1.00  0.00    -0.236 NA
HETATM   14  C16 UNL     1      24.783  -0.551  53.236  1.00  0.00     0.161 A 
HETATM   15  C2  UNL     1      25.761   0.333  52.660  1.00  0.00     0.044 A 
HETATM   16  C1  UNL     1      26.568   1.149  51.998  1.00  0.00     0.041 C 
ENDBRANCH   4   5
BRANCH   4  17
HETATM   17  C10 UNL     1      22.816   2.577  51.989  1.00  0.00     0.011 C 
HETATM   18  C11 UNL     1      21.625   3.453  52.162  1.00  0.00     0.007 C 
HETATM   19  C12 UNL     1      21.988   4.848  51.655  1.00  0.00     0.000 C 
HETATM   20  C13 UNL     1      23.459   4.796  51.497  1.00  0.00     0.000 C 
HETATM   21  C14 UNL     1      23.686   3.349  51.020  1.00  0.00     0.007 C 
ENDBRANCH   4  17
ENDBRANCH   1   4
TORSDOF 3
ENDMDL
MODEL 3
REMARK VINA RESULT:      -7.4      2.026      4.771
REMARK  3 active torsions:
REMARK  status: ('A' for Active; 'I' for Inactive)
REMARK    1  A    between atoms: N4_10  and  C7_11 
REMARK    2  A    between atoms: C7_11  and  C8_12 
REMARK    3  A    between atoms: C7_11  and  C10_15 
ROOT
HETATM    1  C8  UNL     1      24.476   1.929  53.115  1.00  0.00     0.151 C 
HETATM    2  C9  UNL     1      24.808   2.825  52.056  1.00  0.00     0.061 C 
HETATM    3  N5  UNL     1      25.072   3.568  51.207  1.00  0.00    -0.197 NA
ENDROOT
BRANCH   1   4
HETATM    4  C7  UNL     1      24.434   0.484  52.732  1.00  0.00     0.127 C 
BRANCH   4   5
HETATM    5  N4  UNL     1      23.236  -0.075  53.404  1.00  0.00    -0.266 N 
HETATM    6  N3  UNL     1      23.071  -0.849  54.451  1.00  0.00    -0.183 NA
HETATM    7  C6  UNL     1      21.765  -1.101  54.688  1.00  0.00     0.153 A 
HETATM    8  C5  UNL     1      21.049  -0.412  53.683  1.00  0.00     0.026 A 
HETATM    9  C4  UNL     1      19.621  -0.663  53.514  1.00  0.00     0.133 C 
HETATM   10  C15 UNL     1      22.017   0.205  52.929  1.00  0.00     0.061 A 
HETATM   11  N2  UNL     1      19.148  -0.219  52.356  1.00  0.00    -0.243 NA
HETATM   12  C3  UNL     1      20.115   0.397  51.467  1.00  0.00     0.141 A 
HETATM   13  N1  UNL     1      20.539   0.763  50.305  1.00  0.00    -0.236 NA
HETATM   14  C16 UNL     1      21.315   1.066  51.979  1.00  0.00     0.161 A 
HETATM   15  C2  UNL     1      21.785   1.355  50.650  1.00  0.00     0.044 A 
HETATM   16  C1  UNL     1      22.350   1.684  49.498  1.00  0.00     0.041 C 
ENDBRANCH   4   5
BRANCH   4  17
HETATM   17  C10 UNL     1      25.609  -0.286  53.219  1.00  0.00     0.011 C 
HETATM   18  C11 UNL     1      26.331   0.266  54.397  1.00  0.00     0.007 C 
HETATM   19  C12 UNL     1      27.824   0.013  54.197  1.00  0.00     0.000 C 
HETATM   20  C13 UNL     1      27.873  -0.942  53.066  1.00  0.00     0.000 C 
HETATM   21  C14 UNL     1      26.701  -0.467  52.186  1.00  0.00     0.007 C 
ENDBRANCH   4  17
ENDBRANCH   1   4
TORSDOF 3
ENDMDL
MODEL 4
REMARK VINA RESULT:      -6.9      1.693      2.623
REMARK  3 active torsions:
REMARK  status: ('A' for Active; 'I' for Inactive)
REMARK    1  A    between atoms: N4_10  and  C7_11 
REMARK    2  A    between atoms: C7_11  and  C8_12 
REMARK    3  A    between atoms: C7_11  and  C10_15 
ROOT
HETATM    1  C8  UNL     1      22.587   3.591  51.511  1.00  0.00     0.151 C 
HETATM    2  C9  UNL     1      21.311   3.412  52.124  1.00  0.00     0.061 C 
HETATM    3  N5  UNL     1      20.278   3.282  52.632  1.00  0.00    -0.197 NA
ENDROOT
BRANCH   1   4
HETATM    4  C7  UNL     1      23.066   2.431  50.697  1.00  0.00     0.127 C 
BRANCH   4   5
HETATM    5  N4  UNL     1      24.436   2.138  51.185  1.00  0.00    -0.266 N 
HETATM    6  N3  UNL     1      25.632   2.498  50.779  1.00  0.00    -0.183 NA
HETATM    7  C6  UNL     1      26.605   1.969  51.553  1.00  0.00     0.153 A 
HETATM    8  C5  UNL     1      25.942   1.201  52.537  1.00  0.00     0.026 A 
HETATM    9  C4  UNL     1      26.714   0.308  53.395  1.00  0.00     0.133 C 
HETATM   10  C15 UNL     1      24.606   1.355  52.255  1.00  0.00     0.061 A 
HETATM   11  N2  UNL     1      25.961  -0.579  54.034  1.00  0.00    -0.243 NA
HETATM   12  C3  UNL     1      24.539  -0.528  53.751  1.00  0.00     0.141 A 
HETATM   13  N1  UNL     1      23.360  -1.049  53.687  1.00  0.00    -0.236 NA
HETATM   14  C16 UNL     1      23.877   0.716  53.349  1.00  0.00     0.161 A 
HETATM   15  C2  UNL     1      22.608   0.055  53.197  1.00  0.00     0.044 A 
HETATM   16  C1  UNL     1      21.383  -0.411  53.005  1.00  0.00     0.041 C 
ENDBRANCH   4   5
BRANCH   4  17
HETATM   17  C10 UNL     1      23.174   2.738  49.246  1.00  0.00     0.011 C 
HETATM   18  C11 UNL     1      23.039   4.166  48.851  1.00  0.00     0.007 C 
HETATM   19  C12 UNL     1      22.275   4.220  47.529  1.00  0.00     0.000 C 
HETATM   20  C13 UNL     1      22.270   2.813  47.066  1.00  0.00     0.000 C 
HETATM   21  C14 UNL     1      22.145   2.034  48.388  1.00  0.00     0.007 C 
ENDBRANCH   4  17
ENDBRANCH   1   4
TORSDOF 3
ENDMDL
MODEL 5
REMARK VINA RESULT:      -6.8      2.626      4.934
REMARK  3 active torsions:
REMARK  status: ('A' for Active; 'I' for Inactive)
REMARK    1  A    between atoms: N4_10  and  C7_11 
REMARK    2  A    between atoms: C7_11  and  C8_12 
REMARK    3  A    between atoms: C7_11  and  C10_15 
ROOT
HETATM    1  C8  UNL     1      24.952   2.437  50.672  1.00  0.00     0.151 C 
HETATM    2  C9  UNL     1      26.124   3.121  50.233  1.00  0.00     0.061 C 
HETATM    3  N5  UNL     1      27.081   3.661  49.864  1.00  0.00    -0.197 NA
ENDROOT
BRANCH   1   4
HETATM    4  C7  UNL     1      24.344   2.968  51.932  1.00  0.00     0.127 C 
BRANCH   4   5
HETATM    5  N4  UNL     1      23.803   1.785  52.645  1.00  0.00    -0.266 N 
HETATM    6  N3  UNL     1      22.586   1.333  52.843  1.00  0.00    -0.183 NA
HETATM    7  C6  UNL     1      22.586   0.195  53.572  1.00  0.00     0.153 A 
HETATM    8  C5  UNL     1      23.943  -0.083  53.855  1.00  0.00     0.026 A 
HETATM    9  C4  UNL     1      24.278  -1.123  54.823  1.00  0.00     0.133 C 
HETATM   10  C15 UNL     1      24.639   0.933  53.248  1.00  0.00     0.061 A 
HETATM   11  N2  UNL     1      25.539  -1.061  55.236  1.00  0.00    -0.243 NA
HETATM   12  C3  UNL     1      26.335   0.021  54.690  1.00  0.00     0.141 A 
HETATM   13  N1  UNL     1      27.323   0.850  54.721  1.00  0.00    -0.236 NA
HETATM   14  C16 UNL     1      26.056   0.595  53.371  1.00  0.00     0.161 A 
HETATM   15  C2  UNL     1      27.110   1.564  53.509  1.00  0.00     0.044 A 
HETATM   16  C1  UNL     1      28.031   2.516  53.493  1.00  0.00     0.041 C 
ENDBRANCH   4   5
BRANCH   4  17
HETATM   17  C10 UNL     1      23.205   3.892  51.689  1.00  0.00     0.011 C 
HETATM   18  C11 UNL     1      22.597   3.865  50.331  1.00  0.00     0.007 C 
HETATM   19  C12 UNL     1      22.211   5.295  49.958  1.00  0.00     0.000 C 
HETATM   20  C13 UNL     1      22.332   6.039  51.233  1.00  0.00     0.000 C 
HETATM   21  C14 UNL     1      23.540   5.353  51.898  1.00  0.00     0.007 C 
ENDBRANCH   4  17
ENDBRANCH   1   4
TORSDOF 3
ENDMDL
MODEL 6
REMARK VINA RESULT:      -6.8      2.495      4.871
REMARK  3 active torsions:
REMARK  status: ('A' for Active; 'I' for Inactive)
REMARK    1  A    between atoms: N4_10  and  C7_11 
REMARK    2  A    between atoms: C7_11  and  C8_12 
REMARK    3  A    between atoms: C7_11  and  C10_15 
ROOT
HETATM    1  C8  UNL     1      21.911   1.017  50.470  1.00  0.00     0.151 C 
HETATM    2  C9  UNL     1      21.848   1.194  49.056  1.00  0.00     0.061 C 
HETATM    3  N5  UNL     1      21.785   1.322  47.906  1.00  0.00    -0.197 NA
ENDROOT
BRANCH   1   4
HETATM    4  C7  UNL     1      22.971   1.816  51.161  1.00  0.00     0.127 C 
BRANCH   4   5
HETATM    5  N4  UNL     1      23.529   0.922  52.205  1.00  0.00    -0.266 N 
HETATM    6  N3  UNL     1      22.982   0.167  53.130  1.00  0.00    -0.183 NA
HETATM    7  C6  UNL     1      23.913  -0.477  53.866  1.00  0.00     0.153 A 
HETATM    8  C5  UNL     1      25.165  -0.079  53.344  1.00  0.00     0.026 A 
HETATM    9  C4  UNL     1      26.388  -0.416  54.066  1.00  0.00     0.133 C 
HETATM   10  C15 UNL     1      24.854   0.780  52.317  1.00  0.00     0.061 A 
HETATM   11  N2  UNL     1      27.441   0.281  53.658  1.00  0.00    -0.243 NA
HETATM   12  C3  UNL     1      27.194   1.257  52.614  1.00  0.00     0.141 A 
HETATM   13  N1  UNL     1      27.470   2.331  51.956  1.00  0.00    -0.236 NA
HETATM   14  C16 UNL     1      26.112   1.085  51.639  1.00  0.00     0.161 A 
HETATM   15  C2  UNL     1      26.407   2.345  51.011  1.00  0.00     0.044 A 
HETATM   16  C1  UNL     1      26.549   3.477  50.337  1.00  0.00     0.041 C 
ENDBRANCH   4   5
BRANCH   4  17
HETATM   17  C10 UNL     1      22.440   3.020  51.853  1.00  0.00     0.011 C 
HETATM   18  C11 UNL     1      21.631   3.962  51.033  1.00  0.00     0.007 C 
HETATM   19  C12 UNL     1      21.959   5.384  51.486  1.00  0.00     0.000 C 
HETATM   20  C13 UNL     1      22.709   5.189  52.749  1.00  0.00     0.000 C 
HETATM   21  C14 UNL     1      23.509   3.905  52.459  1.00  0.00     0.007 C 
ENDBRANCH   4  17
ENDBRANCH   1   4
TORSDOF 3
ENDMDL
MODEL 7
REMARK VINA RESULT:      -6.2      1.866      2.390
REMARK  3 active torsions:
REMARK  status: ('A' for Active; 'I' for Inactive)
REMARK    1  A    between atoms: N4_10  and  C7_11 
REMARK    2  A    between atoms: C7_11  and  C8_12 
REMARK    3  A    between atoms: C7_11  and  C10_15 
ROOT
HETATM    1  C8  UNL     1      23.351   4.606  50.922  1.00  0.00     0.151 C 
HETATM    2  C9  UNL     1      22.379   5.615  51.189  1.00  0.00     0.061 C 
HETATM    3  N5  UNL     1      21.602   6.448  51.402  1.00  0.00    -0.197 NA
ENDROOT
BRANCH   1   4
HETATM    4  C7  UNL     1      22.943   3.218  51.299  1.00  0.00     0.127 C 
BRANCH   4   5
HETATM    5  N4  UNL     1      24.140   2.604  51.925  1.00  0.00    -0.266 N 
HETATM    6  N3  UNL     1      25.427   2.842  51.827  1.00  0.00    -0.183 NA
HETATM    7  C6  UNL     1      26.152   2.004  52.601  1.00  0.00     0.153 A 
HETATM    8  C5  UNL     1      25.216   1.160  53.241  1.00  0.00     0.026 A 
HETATM    9  C4  UNL     1      25.684  -0.013  53.972  1.00  0.00     0.133 C 
HETATM   10  C15 UNL     1      23.993   1.589  52.784  1.00  0.00     0.061 A 
HETATM   11  N2  UNL     1      24.715  -0.881  54.238  1.00  0.00    -0.243 NA
HETATM   12  C3  UNL     1      23.397  -0.536  53.740  1.00  0.00     0.141 A 
HETATM   13  N1  UNL     1      22.202  -0.830  53.352  1.00  0.00    -0.236 NA
HETATM   14  C16 UNL     1      22.985   0.857  53.548  1.00  0.00     0.161 A 
HETATM   15  C2  UNL     1      21.704   0.463  53.027  1.00  0.00     0.044 A 
HETATM   16  C1  UNL     1      20.496   0.259  52.522  1.00  0.00     0.041 C 
ENDBRANCH   4   5
BRANCH   4  17
HETATM   17  C10 UNL     1      22.579   2.375  50.130  1.00  0.00     0.011 C 
HETATM   18  C11 UNL     1      23.218   2.719  48.831  1.00  0.00     0.007 C 
HETATM   19  C12 UNL     1      22.187   2.502  47.725  1.00  0.00     0.000 C 
HETATM   20  C13 UNL     1      21.099   1.754  48.397  1.00  0.00     0.000 C 
HETATM   21  C14 UNL     1      21.099   2.373  49.807  1.00  0.00     0.007 C 
ENDBRANCH   4  17
ENDBRANCH   1   4
TORSDOF 3
ENDMDL
MODEL 8
REMARK VINA RESULT:      -6.2      2.998      4.796
REMARK  3 active torsions:
REMARK  status: ('A' for Active; 'I' for Inactive)
REMARK    1  A    between atoms: N4_10  and  C7_11 
REMARK    2  A    between atoms: C7_11  and  C8_12 
REMARK    3  A    between atoms: C7_11  and  C10_15 
ROOT
HETATM    1  C8  UNL     1      23.487   6.246  51.110  1.00  0.00     0.151 C 
HETATM    2  C9  UNL     1      22.184   6.694  50.740  1.00  0.00     0.061 C 
HETATM    3  N5  UNL     1      21.126   7.070  50.455  1.00  0.00    -0.197 NA
ENDROOT
BRANCH   1   4
HETATM    4  C7  UNL     1      23.977   5.044  50.367  1.00  0.00     0.127 C 
BRANCH   4   5
HETATM    5  N4  UNL     1      23.682   3.883  51.241  1.00  0.00    -0.266 N 
HETATM    6  N3  UNL     1      24.127   3.508  52.419  1.00  0.00    -0.183 NA
HETATM    7  C6  UNL     1      23.556   2.352  52.825  1.00  0.00     0.153 A 
HETATM    8  C5  UNL     1      22.669   1.974  51.792  1.00  0.00     0.026 A 
HETATM    9  C4  UNL     1      22.063   0.647  51.812  1.00  0.00     0.133 C 
HETATM   10  C15 UNL     1      22.791   2.966  50.849  1.00  0.00     0.061 A 
HETATM   11  N2  UNL     1      21.527   0.302  50.647  1.00  0.00    -0.243 NA
HETATM   12  C3  UNL     1      21.661   1.268  49.574  1.00  0.00     0.141 A 
HETATM   13  N1  UNL     1      21.707   1.604  48.329  1.00  0.00    -0.236 NA
HETATM   14  C16 UNL     1      21.768   2.705  49.839  1.00  0.00     0.161 A 
HETATM   15  C2  UNL     1      21.916   3.007  48.441  1.00  0.00     0.044 A 
HETATM   16  C1  UNL     1      22.073   3.440  47.198  1.00  0.00     0.041 C 
ENDBRANCH   4   5
BRANCH   4  17
HETATM   17  C10 UNL     1      25.446   5.056  50.136  1.00  0.00     0.011 C 
HETATM   18  C11 UNL     1      26.011   6.263  49.473  1.00  0.00     0.007 C 
HETATM   19  C12 UNL     1      27.128   5.808  48.536  1.00  0.00     0.000 C 
HETATM   20  C13 UNL     1      27.365   4.398  48.926  1.00  0.00     0.000 C 
HETATM   21  C14 UNL     1      25.946   3.914  49.278  1.00  0.00     0.007 C 
ENDBRANCH   4  17
ENDBRANCH   1   4
TORSDOF 3
ENDMDL
MODEL 9
REMARK VINA RESULT:      -6.2      4.157      7.393
REMARK  3 active torsions:
REMARK  status: ('A' for Active; 'I' for Inactive)
REMARK    1  A    between atoms: N4_10  and  C7_11 
REMARK    2  A    between atoms: C7_11  and  C8_12 
REMARK    3  A    between atoms: C7_11  and  C10_15 
ROOT
HETATM    1  C8  UNL     1      23.217   3.030  48.796  1.00  0.00     0.151 C 
HETATM    2  C9  UNL     1      22.094   3.807  48.386  1.00  0.00     0.061 C 
HETATM    3  N5  UNL     1      21.181   4.429  48.035  1.00  0.00    -0.197 NA
ENDROOT
BRANCH   1   4
HETATM    4  C7  UNL     1      23.911   3.521  50.027  1.00  0.00     0.127 C 
BRANCH   4   5
HETATM    5  N4  UNL     1      25.207   4.075  49.562  1.00  0.00    -0.266 N 
HETATM    6  N3  UNL     1      26.387   3.542  49.347  1.00  0.00    -0.183 NA
HETATM    7  C6  UNL     1      27.283   4.460  48.923  1.00  0.00     0.153 A 
HETATM    8  C5  UNL     1      26.584   5.688  48.872  1.00  0.00     0.026 A 
HETATM    9  C4  UNL     1      27.323   6.930  48.671  1.00  0.00     0.133 C 
HETATM   10  C15 UNL     1      25.307   5.377  49.273  1.00  0.00     0.061 A 
HETATM   11  N2  UNL     1      26.612   8.012  48.967  1.00  0.00    -0.243 NA
HETATM   12  C3  UNL     1      25.267   7.775  49.456  1.00  0.00     0.141 A 
HETATM   13  N1  UNL     1      24.206   8.109  50.111  1.00  0.00    -0.236 NA
HETATM   14  C16 UNL     1      24.506   6.582  49.074  1.00  0.00     0.161 A 
HETATM   15  C2  UNL     1      23.393   6.960  49.903  1.00  0.00     0.044 A 
HETATM   16  C1  UNL     1      22.301   7.167  50.624  1.00  0.00     0.041 C 
ENDBRANCH   4   5
BRANCH   4  17
HETATM   17  C10 UNL     1      24.220   2.439  50.998  1.00  0.00     0.011 C 
HETATM   18  C11 UNL     1      23.152   1.431  51.241  1.00  0.00     0.007 C 
HETATM   19  C12 UNL     1      23.183   1.058  52.722  1.00  0.00     0.000 C 
HETATM   20  C13 UNL     1      24.459   1.634  53.205  1.00  0.00     0.000 C 
HETATM   21  C14 UNL     1      24.562   2.934  52.387  1.00  0.00     0.007 C 
ENDBRANCH   4  17
ENDBRANCH   1   4
TORSDOF 3
ENDMDL
