MODEL 1
REMARK VINA RESULT:      -8.5      0.000      0.000
REMARK  2 active torsions:
REMARK  status: ('A' for Active; 'I' for Inactive)
REMARK    1  A    between atoms: O1_2  and  C2_3 
REMARK    2  A    between atoms: C6_9  and  N3_10 
ROOT
HETATM    1  C2  UNL     1      23.910   3.269  52.234  1.00  0.00     0.164 C 
HETATM    2  C3  UNL     1      24.827   3.644  51.133  1.00  0.00     0.046 A 
HETATM    3  C4  UNL     1      24.725   4.537  50.108  1.00  0.00     0.072 A 
HETATM    4  N1  UNL     1      25.690   4.691  49.194  1.00  0.00    -0.241 NA
HETATM    5  C5  UNL     1      26.824   4.020  49.176  1.00  0.00     0.235 A 
HETATM    6  N2  UNL     1      26.948   3.143  50.170  1.00  0.00    -0.223 NA
HETATM    7  C6  UNL     1      26.029   2.932  51.121  1.00  0.00     0.144 A 
HETATM    8  C13 UNL     1      23.680   5.473  49.767  1.00  0.00     0.056 C 
HETATM    9  C14 UNL     1      22.394   5.691  49.694  1.00  0.00     0.137 C 
HETATM   10  O2  UNL     1      21.969   4.465  50.155  1.00  0.00    -0.363 OA
HETATM   11  C15 UNL     1      20.703   4.431  50.820  1.00  0.00     0.174 C 
HETATM   12  C16 UNL     1      20.846   3.832  52.200  1.00  0.00     0.033 C 
HETATM   13  C17 UNL     1      21.461   2.500  52.232  1.00  0.00     0.022 C 
HETATM   14  C18 UNL     1      20.561   1.598  51.399  1.00  0.00     0.274 C 
HETATM   15  N4  UNL     1      20.147   0.404  52.152  1.00  0.00     0.083 N 
HETATM   16  C19 UNL     1      21.270  -0.503  52.006  1.00  0.00     0.269 C 
HETATM   17  C20 UNL     1      22.374   0.031  52.856  1.00  0.00     0.030 C 
HETATM   18  C21 UNL     1      23.346   0.934  52.165  1.00  0.00     0.010 C 
HETATM   19  C22 UNL     1      22.849   2.306  51.782  1.00  0.00     0.025 C 
HETATM   20  H22 UNL     1      19.302   0.042  51.620  1.00  0.00     0.315 HD
ENDROOT
BRANCH   7  21
HETATM   21  N3  UNL     1      26.659   1.964  51.956  1.00  0.00    -0.306 N 
HETATM   22  C7  UNL     1      26.377   0.613  51.508  1.00  0.00     0.096 A 
HETATM   23  C8  UNL     1      26.746  -0.528  52.025  1.00  0.00     0.018 A 
HETATM   24  C9  UNL     1      27.564  -0.495  53.227  1.00  0.00     0.008 A 
HETATM   25  C10 UNL     1      27.850   0.714  53.664  1.00  0.00    -0.030 A 
HETATM   26  C11 UNL     1      28.690   0.818  54.903  1.00  0.00     0.048 C 
HETATM   27  C12 UNL     1      27.510   2.030  53.127  1.00  0.00     0.306 A 
HETATM   28  F1  UNL     1      27.124   2.858  54.120  1.00  0.00    -0.221 F 
ENDBRANCH   7  21
BRANCH   1  29
HETATM   29  O1  UNL     1      23.436   4.458  52.773  1.00  0.00    -0.385 OA
HETATM   30  C1  UNL     1      24.156   4.847  53.864  1.00  0.00     0.202 C 
ENDBRANCH   1  29
TORSDOF 2
ENDMDL
MODEL 2
REMARK VINA RESULT:      -8.5      2.313      5.180
REMARK  2 active torsions:
REMARK  status: ('A' for Active; 'I' for Inactive)
REMARK    1  A    between atoms: O1_2  and  C2_3 
REMARK    2  A    between atoms: C6_9  and  N3_10 
ROOT
HETATM    1  C2  UNL     1      23.714   2.396  51.721  1.00  0.00     0.164 C 
HETATM    2  C3  UNL     1      23.018   2.193  50.429  1.00  0.00     0.046 A 
HETATM    3  C4  UNL     1      21.944   1.437  50.066  1.00  0.00     0.072 A 
HETATM    4  N1  UNL     1      21.497   1.384  48.806  1.00  0.00    -0.241 NA
HETATM    5  C5  UNL     1      22.026   2.040  47.793  1.00  0.00     0.235 A 
HETATM    6  N2  UNL     1      23.077   2.788  48.123  1.00  0.00    -0.223 NA
HETATM    7  C6  UNL     1      23.581   2.893  49.359  1.00  0.00     0.144 A 
HETATM    8  C13 UNL     1      21.071   0.593  50.849  1.00  0.00     0.056 C 
HETATM    9  C14 UNL     1      20.979  -0.273  51.823  1.00  0.00     0.137 C 
HETATM   10  O2  UNL     1      22.313  -0.317  52.162  1.00  0.00    -0.363 OA
HETATM   11  C15 UNL     1      22.620  -0.636  53.522  1.00  0.00     0.174 C 
HETATM   12  C16 UNL     1      23.482   0.443  54.136  1.00  0.00     0.033 C 
HETATM   13  C17 UNL     1      24.718   0.738  53.402  1.00  0.00     0.022 C 
HETATM   14  C18 UNL     1      25.511  -0.562  53.371  1.00  0.00     0.274 C 
HETATM   15  N4  UNL     1      26.875  -0.375  53.889  1.00  0.00     0.083 N 
HETATM   16  C19 UNL     1      27.606   0.155  52.754  1.00  0.00     0.269 C 
HETATM   17  C20 UNL     1      27.153   1.562  52.562  1.00  0.00     0.030 C 
HETATM   18  C21 UNL     1      26.026   1.756  51.597  1.00  0.00     0.010 C 
HETATM   19  C22 UNL     1      24.665   1.276  52.034  1.00  0.00     0.025 C 
HETATM   20  H22 UNL     1      27.202  -1.358  54.120  1.00  0.00     0.315 HD
ENDROOT
BRANCH   7  21
HETATM   21  N3  UNL     1      24.633   3.840  49.189  1.00  0.00    -0.306 N 
HETATM   22  C7  UNL     1      24.114   5.154  48.859  1.00  0.00     0.096 A 
HETATM   23  C8  UNL     1      24.758   6.261  48.601  1.00  0.00     0.018 A 
HETATM   24  C9  UNL     1      26.212   6.225  48.642  1.00  0.00     0.008 A 
HETATM   25  C10 UNL     1      26.724   5.050  48.946  1.00  0.00    -0.030 A 
HETATM   26  C11 UNL     1      28.220   4.945  49.002  1.00  0.00     0.048 C 
HETATM   27  C12 UNL     1      26.078   3.783  49.281  1.00  0.00     0.306 A 
HETATM   28  F1  UNL     1      26.693   2.760  48.651  1.00  0.00    -0.221 F 
ENDBRANCH   7  21
BRANCH   1  29
HETATM   29  O1  UNL     1      22.723   2.612  52.671  1.00  0.00    -0.385 OA
HETATM   30  C1  UNL     1      22.258   3.894  52.641  1.00  0.00     0.202 C 
ENDBRANCH   1  29
TORSDOF 2
ENDMDL
MODEL 3
REMARK VINA RESULT:      -8.4      2.502      4.798
REMARK  2 active torsions:
REMARK  status: ('A' for Active; 'I' for Inactive)
REMARK    1  A    between atoms: O1_2  and  C2_3 
REMARK    2  A    between atoms: C6_9  and  N3_10 
ROOT
HETATM    1  C2  UNL     1      22.343   2.585  51.655  1.00  0.00     0.164 C 
HETATM    2  C3  UNL     1      21.918   2.518  50.238  1.00  0.00     0.046 A 
HETATM    3  C4  UNL     1      20.863   1.920  49.616  1.00  0.00     0.072 A 
HETATM    4  N1  UNL     1      20.691   1.968  48.290  1.00  0.00    -0.241 NA
HETATM    5  C5  UNL     1      21.498   2.583  47.449  1.00  0.00     0.235 A 
HETATM    6  N2  UNL     1      22.536   3.177  48.034  1.00  0.00    -0.223 NA
HETATM    7  C6  UNL     1      22.775   3.174  49.351  1.00  0.00     0.144 A 
HETATM    8  C13 UNL     1      19.750   1.170  50.150  1.00  0.00     0.056 C 
HETATM    9  C14 UNL     1      19.350   0.290  51.029  1.00  0.00     0.137 C 
HETATM   10  O2  UNL     1      20.566   0.063  51.633  1.00  0.00    -0.363 OA
HETATM   11  C15 UNL     1      20.538  -0.339  53.006  1.00  0.00     0.174 C 
HETATM   12  C16 UNL     1      21.371   0.598  53.848  1.00  0.00     0.033 C 
HETATM   13  C17 UNL     1      22.762   0.755  53.404  1.00  0.00     0.022 C 
HETATM   14  C18 UNL     1      23.382  -0.635  53.459  1.00  0.00     0.274 C 
HETATM   15  N4  UNL     1      24.617  -0.643  54.258  1.00  0.00     0.083 N 
HETATM   16  C19 UNL     1      25.631  -0.175  53.332  1.00  0.00     0.269 C 
HETATM   17  C20 UNL     1      25.400   1.285  53.136  1.00  0.00     0.030 C 
HETATM   18  C21 UNL     1      24.535   1.655  51.973  1.00  0.00     0.010 C 
HETATM   19  C22 UNL     1      23.065   1.341  52.089  1.00  0.00     0.025 C 
HETATM   20  H22 UNL     1      24.768  -1.668  54.492  1.00  0.00     0.315 HD
ENDROOT
BRANCH   7  21
HETATM   21  N3  UNL     1      23.945   3.982  49.459  1.00  0.00    -0.306 N 
HETATM   22  C7  UNL     1      25.150   3.195  49.278  1.00  0.00     0.096 A 
HETATM   23  C8  UNL     1      26.401   3.566  49.335  1.00  0.00     0.018 A 
HETATM   24  C9  UNL     1      26.681   4.966  49.617  1.00  0.00     0.008 A 
HETATM   25  C10 UNL     1      25.612   5.717  49.780  1.00  0.00    -0.030 A 
HETATM   26  C11 UNL     1      25.832   7.172  50.076  1.00  0.00     0.048 C 
HETATM   27  C12 UNL     1      24.190   5.390  49.697  1.00  0.00     0.306 A 
HETATM   28  F1  UNL     1      23.513   5.968  50.710  1.00  0.00    -0.221 F 
ENDBRANCH   7  21
BRANCH   1  29
HETATM   29  O1  UNL     1      21.206   2.895  52.391  1.00  0.00    -0.385 OA
HETATM   30  C1  UNL     1      20.903   4.223  52.328  1.00  0.00     0.202 C 
ENDBRANCH   1  29
TORSDOF 2
ENDMDL
MODEL 4
REMARK VINA RESULT:      -7.8      2.505      5.791
REMARK  2 active torsions:
REMARK  status: ('A' for Active; 'I' for Inactive)
REMARK    1  A    between atoms: O1_2  and  C2_3 
REMARK    2  A    between atoms: C6_9  and  N3_10 
ROOT
HETATM    1  C2  UNL     1      22.971   2.540  49.924  1.00  0.00     0.164 C 
HETATM    2  C3  UNL     1      22.029   3.678  50.030  1.00  0.00     0.046 A 
HETATM    3  C4  UNL     1      22.131   4.997  49.700  1.00  0.00     0.072 A 
HETATM    4  N1  UNL     1      21.139   5.868  49.916  1.00  0.00    -0.241 NA
HETATM    5  C5  UNL     1      19.976   5.566  50.457  1.00  0.00     0.235 A 
HETATM    6  N2  UNL     1      19.852   4.281  50.786  1.00  0.00    -0.223 NA
HETATM    7  C6  UNL     1      20.796   3.351  50.601  1.00  0.00     0.144 A 
HETATM    8  C13 UNL     1      23.203   5.737  49.078  1.00  0.00     0.056 C 
HETATM    9  C14 UNL     1      24.494   5.920  48.991  1.00  0.00     0.137 C 
HETATM   10  O2  UNL     1      24.881   4.963  49.902  1.00  0.00    -0.363 OA
HETATM   11  C15 UNL     1      26.169   4.373  49.707  1.00  0.00     0.174 C 
HETATM   12  C16 UNL     1      26.053   2.869  49.615  1.00  0.00     0.033 C 
HETATM   13  C17 UNL     1      25.380   2.231  50.753  1.00  0.00     0.022 C 
HETATM   14  C18 UNL     1      26.205   2.583  51.983  1.00  0.00     0.274 C 
HETATM   15  N4  UNL     1      26.594   1.380  52.734  1.00  0.00     0.083 N 
HETATM   16  C19 UNL     1      25.426   1.085  53.543  1.00  0.00     0.269 C 
HETATM   17  C20 UNL     1      24.382   0.550  52.622  1.00  0.00     0.030 C 
HETATM   18  C21 UNL     1      23.425   1.559  52.070  1.00  0.00     0.010 C 
HETATM   19  C22 UNL     1      23.968   2.525  51.047  1.00  0.00     0.025 C 
HETATM   20  H22 UNL     1      27.400   1.703  53.345  1.00  0.00     0.315 HD
ENDROOT
BRANCH   7  21
HETATM   21  N3  UNL     1      20.157   2.160  51.053  1.00  0.00    -0.306 N 
HETATM   22  C7  UNL     1      19.112   1.740  50.138  1.00  0.00     0.096 A 
HETATM   23  C8  UNL     1      18.292   0.727  50.221  1.00  0.00     0.018 A 
HETATM   24  C9  UNL     1      18.404  -0.142  51.382  1.00  0.00     0.008 A 
HETATM   25  C10 UNL     1      19.347   0.199  52.235  1.00  0.00    -0.030 A 
HETATM   26  C11 UNL     1      19.513  -0.656  53.458  1.00  0.00     0.048 C 
HETATM   27  C12 UNL     1      20.322   1.288  52.198  1.00  0.00     0.306 A 
HETATM   28  F1  UNL     1      20.417   1.876  53.408  1.00  0.00    -0.221 F 
ENDBRANCH   7  21
BRANCH   1  29
HETATM   29  O1  UNL     1      23.518   2.601  48.649  1.00  0.00    -0.385 OA
HETATM   30  C1  UNL     1      22.668   2.108  47.704  1.00  0.00     0.202 C 
ENDBRANCH   1  29
TORSDOF 2
ENDMDL
MODEL 5
REMARK VINA RESULT:      -7.8      2.583      5.289
REMARK  2 active torsions:
REMARK  status: ('A' for Active; 'I' for Inactive)
REMARK    1  A    between atoms: O1_2  and  C2_3 
REMARK    2  A    between atoms: C6_9  and  N3_10 
ROOT
HETATM    1  C2  UNL     1      22.382   3.130  49.392  1.00  0.00     0.164 C 
HETATM    2  C3  UNL     1      23.122   2.607  50.565  1.00  0.00     0.046 A 
HETATM    3  C4  UNL     1      22.859   1.609  51.455  1.00  0.00     0.072 A 
HETATM    4  N1  UNL     1      23.675   1.325  52.476  1.00  0.00    -0.241 NA
HETATM    5  C5  UNL     1      24.802   1.957  52.736  1.00  0.00     0.235 A 
HETATM    6  N2  UNL     1      25.083   2.936  51.877  1.00  0.00    -0.223 NA
HETATM    7  C6  UNL     1      24.318   3.278  50.833  1.00  0.00     0.144 A 
HETATM    8  C13 UNL     1      21.763   0.672  51.530  1.00  0.00     0.056 C 
HETATM    9  C14 UNL     1      20.477   0.484  51.390  1.00  0.00     0.137 C 
HETATM   10  O2  UNL     1      20.140   1.766  51.016  1.00  0.00    -0.363 OA
HETATM   11  C15 UNL     1      18.987   1.911  50.182  1.00  0.00     0.174 C 
HETATM   12  C16 UNL     1      19.341   2.656  48.916  1.00  0.00     0.033 C 
HETATM   13  C17 UNL     1      19.971   3.965  49.126  1.00  0.00     0.022 C 
HETATM   14  C18 UNL     1      18.968   4.793  49.918  1.00  0.00     0.274 C 
HETATM   15  N4  UNL     1      18.685   6.076  49.255  1.00  0.00     0.083 N 
HETATM   16  C19 UNL     1      19.785   6.927  49.665  1.00  0.00     0.269 C 
HETATM   17  C20 UNL     1      20.995   6.460  48.929  1.00  0.00     0.030 C 
HETATM   18  C21 UNL     1      21.844   5.457  49.646  1.00  0.00     0.010 C 
HETATM   19  C22 UNL     1      21.279   4.067  49.793  1.00  0.00     0.025 C 
HETATM   20  H22 UNL     1      17.775   6.401  49.695  1.00  0.00     0.315 HD
ENDROOT
BRANCH   7  21
HETATM   21  N3  UNL     1      25.076   4.315  50.215  1.00  0.00    -0.306 N 
HETATM   22  C7  UNL     1      26.242   3.783  49.534  1.00  0.00     0.096 A 
HETATM   23  C8  UNL     1      27.184   4.413  48.885  1.00  0.00     0.018 A 
HETATM   24  C9  UNL     1      27.098   5.863  48.801  1.00  0.00     0.008 A 
HETATM   25  C10 UNL     1      26.048   6.385  49.400  1.00  0.00    -0.030 A 
HETATM   26  C11 UNL     1      25.901   7.878  49.353  1.00  0.00     0.048 C 
HETATM   27  C12 UNL     1      24.938   5.753  50.111  1.00  0.00     0.306 A 
HETATM   28  F1  UNL     1      24.661   6.426  51.246  1.00  0.00    -0.221 F 
ENDBRANCH   7  21
BRANCH   1  29
HETATM   29  O1  UNL     1      21.979   2.022  48.657  1.00  0.00    -0.385 OA
HETATM   30  C1  UNL     1      22.620   1.946  47.456  1.00  0.00     0.202 C 
ENDBRANCH   1  29
TORSDOF 2
ENDMDL
MODEL 6
REMARK VINA RESULT:      -7.8      2.110      4.622
REMARK  2 active torsions:
REMARK  status: ('A' for Active; 'I' for Inactive)
REMARK    1  A    between atoms: O1_2  and  C2_3 
REMARK    2  A    between atoms: C6_9  and  N3_10 
ROOT
HETATM    1  C2  UNL     1      22.322   2.337  51.036  1.00  0.00     0.164 C 
HETATM    2  C3  UNL     1      21.844   1.568  52.208  1.00  0.00     0.046 A 
HETATM    3  C4  UNL     1      20.599   1.311  52.700  1.00  0.00     0.072 A 
HETATM    4  N1  UNL     1      20.402   0.598  53.815  1.00  0.00    -0.241 NA
HETATM    5  C5  UNL     1      21.361   0.073  54.551  1.00  0.00     0.235 A 
HETATM    6  N2  UNL     1      22.588   0.309  54.088  1.00  0.00    -0.223 NA
HETATM    7  C6  UNL     1      22.864   1.010  52.982  1.00  0.00     0.144 A 
HETATM    8  C13 UNL     1      19.292   1.673  52.205  1.00  0.00     0.056 C 
HETATM    9  C14 UNL     1      18.556   2.595  51.643  1.00  0.00     0.137 C 
HETATM   10  O2  UNL     1      19.530   3.560  51.516  1.00  0.00    -0.363 OA
HETATM   11  C15 UNL     1      19.380   4.487  50.437  1.00  0.00     0.174 C 
HETATM   12  C16 UNL     1      20.613   4.485  49.563  1.00  0.00     0.033 C 
HETATM   13  C17 UNL     1      21.872   4.746  50.272  1.00  0.00     0.022 C 
HETATM   14  C18 UNL     1      21.723   6.122  50.905  1.00  0.00     0.274 C 
HETATM   15  N4  UNL     1      22.832   7.012  50.528  1.00  0.00     0.083 N 
HETATM   16  C19 UNL     1      23.893   6.651  51.449  1.00  0.00     0.269 C 
HETATM   17  C20 UNL     1      24.407   5.318  51.020  1.00  0.00     0.030 C 
HETATM   18  C21 UNL     1      23.779   4.135  51.686  1.00  0.00     0.010 C 
HETATM   19  C22 UNL     1      22.355   3.815  51.305  1.00  0.00     0.025 C 
HETATM   20  H22 UNL     1      22.468   7.987  50.740  1.00  0.00     0.315 HD
ENDROOT
BRANCH   7  21
HETATM   21  N3  UNL     1      24.284   0.918  52.899  1.00  0.00    -0.306 N 
HETATM   22  C7  UNL     1      24.714  -0.452  52.686  1.00  0.00     0.096 A 
HETATM   23  C8  UNL     1      25.922  -0.938  52.589  1.00  0.00     0.018 A 
HETATM   24  C9  UNL     1      27.038  -0.011  52.701  1.00  0.00     0.008 A 
HETATM   25  C10 UNL     1      26.690   1.246  52.888  1.00  0.00    -0.030 A 
HETATM   26  C11 UNL     1      27.795   2.254  53.014  1.00  0.00     0.048 C 
HETATM   27  C12 UNL     1      25.372   1.872  52.971  1.00  0.00     0.306 A 
HETATM   28  F1  UNL     1      25.338   2.766  53.980  1.00  0.00    -0.221 F 
ENDBRANCH   7  21
BRANCH   1  29
HETATM   29  O1  UNL     1      21.531   1.950  49.962  1.00  0.00    -0.385 OA
HETATM   30  C1  UNL     1      22.274   1.453  48.933  1.00  0.00     0.202 C 
ENDBRANCH   1  29
TORSDOF 2
ENDMDL
MODEL 7
REMARK VINA RESULT:      -7.6      6.334      9.534
REMARK  2 active torsions:
REMARK  status: ('A' for Active; 'I' for Inactive)
REMARK    1  A    between atoms: O1_2  and  C2_3 
REMARK    2  A    between atoms: C6_9  and  N3_10 
ROOT
HETATM    1  C2  UNL     1      28.678   8.535  47.019  1.00  0.00     0.164 C 
HETATM    2  C3  UNL     1      28.167   7.287  47.631  1.00  0.00     0.046 A 
HETATM    3  C4  UNL     1      26.918   6.879  47.994  1.00  0.00     0.072 A 
HETATM    4  N1  UNL     1      26.690   5.693  48.569  1.00  0.00    -0.241 NA
HETATM    5  C5  UNL     1      27.619   4.800  48.845  1.00  0.00     0.235 A 
HETATM    6  N2  UNL     1      28.848   5.175  48.497  1.00  0.00    -0.223 NA
HETATM    7  C6  UNL     1      29.155   6.342  47.918  1.00  0.00     0.144 A 
HETATM    8  C13 UNL     1      25.634   7.526  47.859  1.00  0.00     0.056 C 
HETATM    9  C14 UNL     1      24.966   8.647  47.925  1.00  0.00     0.137 C 
HETATM   10  O2  UNL     1      26.015   9.471  48.265  1.00  0.00    -0.363 OA
HETATM   11  C15 UNL     1      25.917  10.839  47.858  1.00  0.00     0.174 C 
HETATM   12  C16 UNL     1      27.122  11.233  47.035  1.00  0.00     0.033 C 
HETATM   13  C17 UNL     1      28.417  10.999  47.687  1.00  0.00     0.022 C 
HETATM   14  C18 UNL     1      28.403  11.828  48.963  1.00  0.00     0.274 C 
HETATM   15  N4  UNL     1      29.575  12.714  49.043  1.00  0.00     0.083 N 
HETATM   16  C19 UNL     1      30.624  11.854  49.556  1.00  0.00     0.269 C 
HETATM   17  C20 UNL     1      31.011  10.932  48.450  1.00  0.00     0.030 C 
HETATM   18  C21 UNL     1      30.300   9.615  48.424  1.00  0.00     0.010 C 
HETATM   19  C22 UNL     1      28.845   9.634  48.030  1.00  0.00     0.025 C 
HETATM   20  H22 UNL     1      29.301  13.443  49.766  1.00  0.00     0.315 HD
ENDROOT
BRANCH   7  21
HETATM   21  N3  UNL     1      30.559   6.226  47.702  1.00  0.00    -0.306 N 
HETATM   22  C7  UNL     1      31.274   6.045  48.952  1.00  0.00     0.096 A 
HETATM   23  C8  UNL     1      32.558   5.932  49.166  1.00  0.00     0.018 A 
HETATM   24  C9  UNL     1      33.445   5.986  48.014  1.00  0.00     0.008 A 
HETATM   25  C10 UNL     1      32.835   6.141  46.858  1.00  0.00    -0.030 A 
HETATM   26  C11 UNL     1      33.694   6.207  45.629  1.00  0.00     0.048 C 
HETATM   27  C12 UNL     1      31.413   6.238  46.531  1.00  0.00     0.306 A 
HETATM   28  F1  UNL     1      31.203   7.219  45.629  1.00  0.00    -0.221 F 
ENDBRANCH   7  21
BRANCH   1  29
HETATM   29  O1  UNL     1      27.828   8.831  45.961  1.00  0.00    -0.385 OA
HETATM   30  C1  UNL     1      28.413   8.586  44.753  1.00  0.00     0.202 C 
ENDBRANCH   1  29
TORSDOF 2
ENDMDL
MODEL 8
REMARK VINA RESULT:      -7.6      3.267      6.117
REMARK  2 active torsions:
REMARK  status: ('A' for Active; 'I' for Inactive)
REMARK    1  A    between atoms: O1_2  and  C2_3 
REMARK    2  A    between atoms: C6_9  and  N3_10 
ROOT
HETATM    1  C2  UNL     1      21.023   2.338  50.424  1.00  0.00     0.164 C 
HETATM    2  C3  UNL     1      22.142   2.476  51.386  1.00  0.00     0.046 A 
HETATM    3  C4  UNL     1      22.619   1.664  52.371  1.00  0.00     0.072 A 
HETATM    4  N1  UNL     1      23.647   2.015  53.153  1.00  0.00    -0.241 NA
HETATM    5  C5  UNL     1      24.304   3.154  53.066  1.00  0.00     0.235 A 
HETATM    6  N2  UNL     1      23.857   3.963  52.108  1.00  0.00    -0.223 NA
HETATM    7  C6  UNL     1      22.837   3.684  51.287  1.00  0.00     0.144 A 
HETATM    8  C13 UNL     1      22.214   0.343  52.790  1.00  0.00     0.056 C 
HETATM    9  C14 UNL     1      21.217  -0.473  53.008  1.00  0.00     0.137 C 
HETATM   10  O2  UNL     1      20.195   0.383  52.663  1.00  0.00    -0.363 OA
HETATM   11  C15 UNL     1      18.997  -0.216  52.159  1.00  0.00     0.174 C 
HETATM   12  C16 UNL     1      18.652   0.354  50.802  1.00  0.00     0.033 C 
HETATM   13  C17 UNL     1      18.533   1.817  50.760  1.00  0.00     0.022 C 
HETATM   14  C18 UNL     1      17.426   2.179  51.740  1.00  0.00     0.274 C 
HETATM   15  N4  UNL     1      16.391   3.007  51.102  1.00  0.00     0.083 N 
HETATM   16  C19 UNL     1      16.941   4.349  51.154  1.00  0.00     0.269 C 
HETATM   17  C20 UNL     1      18.043   4.406  50.151  1.00  0.00     0.030 C 
HETATM   18  C21 UNL     1      19.412   4.103  50.674  1.00  0.00     0.010 C 
HETATM   19  C22 UNL     1      19.698   2.670  51.048  1.00  0.00     0.025 C 
HETATM   20  H22 UNL     1      15.553   2.921  51.749  1.00  0.00     0.315 HD
ENDROOT
BRANCH   7  21
HETATM   21  N3  UNL     1      22.804   4.822  50.429  1.00  0.00    -0.306 N 
HETATM   22  C7  UNL     1      22.344   6.004  51.135  1.00  0.00     0.096 A 
HETATM   23  C8  UNL     1      22.153   7.216  50.689  1.00  0.00     0.018 A 
HETATM   24  C9  UNL     1      22.429   7.473  49.283  1.00  0.00     0.008 A 
HETATM   25  C10 UNL     1      22.857   6.427  48.608  1.00  0.00    -0.030 A 
HETATM   26  C11 UNL     1      23.158   6.624  47.151  1.00  0.00     0.048 C 
HETATM   27  C12 UNL     1      23.130   5.057  49.037  1.00  0.00     0.306 A 
HETATM   28  F1  UNL     1      22.647   4.175  48.137  1.00  0.00    -0.221 F 
ENDBRANCH   7  21
BRANCH   1  29
HETATM   29  O1  UNL     1      21.121   1.060  49.889  1.00  0.00    -0.385 OA
HETATM   30  C1  UNL     1      21.579   1.078  48.605  1.00  0.00     0.202 C 
ENDBRANCH   1  29
TORSDOF 2
ENDMDL
MODEL 9
REMARK VINA RESULT:      -7.5      2.400      5.271
REMARK  2 active torsions:
REMARK  status: ('A' for Active; 'I' for Inactive)
REMARK    1  A    between atoms: O1_2  and  C2_3 
REMARK    2  A    between atoms: C6_9  and  N3_10 
ROOT
HETATM    1  C2  UNL     1      22.516   3.562  49.376  1.00  0.00     0.164 C 
HETATM    2  C3  UNL     1      21.351   3.478  50.287  1.00  0.00     0.046 A 
HETATM    3  C4  UNL     1      20.055   3.885  50.172  1.00  0.00     0.072 A 
HETATM    4  N1  UNL     1      19.164   3.727  51.157  1.00  0.00    -0.241 NA
HETATM    5  C5  UNL     1      19.423   3.173  52.324  1.00  0.00     0.235 A 
HETATM    6  N2  UNL     1      20.683   2.764  52.459  1.00  0.00    -0.223 NA
HETATM    7  C6  UNL     1      21.630   2.886  51.521  1.00  0.00     0.144 A 
HETATM    8  C13 UNL     1      19.353   4.511  49.076  1.00  0.00     0.056 C 
HETATM    9  C14 UNL     1      19.405   5.385  48.106  1.00  0.00     0.137 C 
HETATM   10  O2  UNL     1      20.697   5.814  48.308  1.00  0.00    -0.363 OA
HETATM   11  C15 UNL     1      21.401   6.298  47.161  1.00  0.00     0.174 C 
HETATM   12  C16 UNL     1      22.695   5.540  46.976  1.00  0.00     0.033 C 
HETATM   13  C17 UNL     1      23.585   5.543  48.144  1.00  0.00     0.022 C 
HETATM   14  C18 UNL     1      23.909   7.004  48.423  1.00  0.00     0.274 C 
HETATM   15  N4  UNL     1      25.361   7.232  48.482  1.00  0.00     0.083 N 
HETATM   16  C19 UNL     1      25.717   6.845  49.835  1.00  0.00     0.269 C 
HETATM   17  C20 UNL     1      25.636   5.358  49.897  1.00  0.00     0.030 C 
HETATM   18  C21 UNL     1      24.327   4.798  50.358  1.00  0.00     0.010 C 
HETATM   19  C22 UNL     1      23.162   4.918  49.407  1.00  0.00     0.025 C 
HETATM   20  H22 UNL     1      25.465   8.281  48.354  1.00  0.00     0.315 HD
ENDROOT
BRANCH   7  21
HETATM   21  N3  UNL     1      22.755   2.252  52.127  1.00  0.00    -0.306 N 
HETATM   22  C7  UNL     1      22.553   0.821  52.250  1.00  0.00     0.096 A 
HETATM   23  C8  UNL     1      23.333  -0.086  52.773  1.00  0.00     0.018 A 
HETATM   24  C9  UNL     1      24.606   0.351  53.326  1.00  0.00     0.008 A 
HETATM   25  C10 UNL     1      24.832   1.645  53.227  1.00  0.00    -0.030 A 
HETATM   26  C11 UNL     1      26.128   2.161  53.781  1.00  0.00     0.048 C 
HETATM   27  C12 UNL     1      24.034   2.712  52.628  1.00  0.00     0.306 A 
HETATM   28  F1  UNL     1      24.024   3.799  53.428  1.00  0.00    -0.221 F 
ENDBRANCH   7  21
BRANCH   1  29
HETATM   29  O1  UNL     1      22.068   3.150  48.127  1.00  0.00    -0.385 OA
HETATM   30  C1  UNL     1      22.253   1.813  47.933  1.00  0.00     0.202 C 
ENDBRANCH   1  29
TORSDOF 2
ENDMDL
