MODEL 1
REMARK VINA RESULT:      -8.9      0.000      0.000
REMARK  1 active torsions:
REMARK  status: ('A' for Active; 'I' for Inactive)
REMARK    1  A    between atoms: C1_2  and  C2_5 
ROOT
HETATM    1  C2  UNL     1      27.279   1.320  53.460  1.00  0.00     0.045 C 
HETATM    2  C3  UNL     1      26.871   2.013  52.412  1.00  0.00     0.019 C 
HETATM    3  C4  UNL     1      25.527   2.012  51.845  1.00  0.00     0.298 C 
HETATM    4  N1  UNL     1      24.956   3.356  51.797  1.00  0.00     0.092 N 
HETATM    5  C5  UNL     1      23.524   3.279  51.705  1.00  0.00     0.326 C 
HETATM    6  C6  UNL     1      22.963   2.671  50.504  1.00  0.00     0.035 A 
HETATM    7  C7  UNL     1      23.231   3.200  49.330  1.00  0.00     0.026 A 
HETATM    8  C8  UNL     1      22.709   2.656  48.085  1.00  0.00    -0.000 A 
HETATM    9  C9  UNL     1      21.946   1.592  48.256  1.00  0.00    -0.007 A 
HETATM   10  C10 UNL     1      21.533   0.865  49.473  1.00  0.00     0.150 A 
HETATM   11  N2  UNL     1      22.132   1.484  50.666  1.00  0.00    -0.379 N 
HETATM   12  C11 UNL     1      21.839   0.844  51.902  1.00  0.00     0.127 C 
HETATM   13  C12 UNL     1      20.555   1.296  52.572  1.00  0.00     0.048 C 
HETATM   14  C13 UNL     1      20.519   0.602  53.889  1.00  0.00    -0.006 C 
HETATM   15  C14 UNL     1      21.302  -0.193  54.601  1.00  0.00     0.112 C 
HETATM   16  N3  UNL     1      22.566  -0.814  54.522  1.00  0.00    -0.277 NA
HETATM   17  C15 UNL     1      23.464  -0.738  55.464  1.00  0.00     0.093 C 
HETATM   18  C16 UNL     1      24.723  -1.478  55.150  1.00  0.00     0.073 C 
HETATM   19  C17 UNL     1      25.724  -0.518  54.648  1.00  0.00    -0.021 C 
HETATM   20  C18 UNL     1      26.669   0.300  54.281  1.00  0.00     0.012 C 
HETATM   21  H4  UNL     1      25.375   3.864  50.985  1.00  0.00     0.316 HD
ENDROOT
BRANCH   1  22
HETATM   22  C1  UNL     1      28.691   1.391  53.985  1.00  0.00     0.417 C 
HETATM   23  F1  UNL     1      29.465   0.808  53.030  1.00  0.00    -0.166 F 
HETATM   24  F2  UNL     1      29.002   2.736  54.039  1.00  0.00    -0.166 F 
HETATM   25  F3  UNL     1      28.814   0.771  55.202  1.00  0.00    -0.166 F 
ENDBRANCH   1  22
TORSDOF 1
ENDMDL
MODEL 2
REMARK VINA RESULT:      -8.2      3.674      5.746
REMARK  1 active torsions:
REMARK  status: ('A' for Active; 'I' for Inactive)
REMARK    1  A    between atoms: C1_2  and  C2_5 
ROOT
HETATM    1  C2  UNL     1      21.809   0.321  53.255  1.00  0.00     0.045 C 
HETATM    2  C3  UNL     1      21.056   1.242  52.682  1.00  0.00     0.019 C 
HETATM    3  C4  UNL     1      21.529   2.413  51.953  1.00  0.00     0.298 C 
HETATM    4  N1  UNL     1      21.005   2.455  50.590  1.00  0.00     0.092 N 
HETATM    5  C5  UNL     1      21.830   3.300  49.771  1.00  0.00     0.326 C 
HETATM    6  C6  UNL     1      21.887   4.715  50.114  1.00  0.00     0.035 A 
HETATM    7  C7  UNL     1      20.777   5.423  50.112  1.00  0.00     0.026 A 
HETATM    8  C8  UNL     1      20.748   6.841  50.441  1.00  0.00    -0.000 A 
HETATM    9  C9  UNL     1      21.936   7.336  50.734  1.00  0.00    -0.007 A 
HETATM   10  C10 UNL     1      23.275   6.714  50.787  1.00  0.00     0.150 A 
HETATM   11  N2  UNL     1      23.184   5.282  50.460  1.00  0.00    -0.379 N 
HETATM   12  C11 UNL     1      24.410   4.561  50.519  1.00  0.00     0.127 C 
HETATM   13  C12 UNL     1      25.231   4.585  49.242  1.00  0.00     0.048 C 
HETATM   14  C13 UNL     1      26.385   3.675  49.486  1.00  0.00    -0.006 C 
HETATM   15  C14 UNL     1      26.804   2.855  50.437  1.00  0.00     0.112 C 
HETATM   16  N3  UNL     1      26.415   2.394  51.712  1.00  0.00    -0.277 NA
HETATM   17  C15 UNL     1      26.353   1.131  52.032  1.00  0.00     0.093 C 
HETATM   18  C16 UNL     1      25.915   0.892  53.440  1.00  0.00     0.073 C 
HETATM   19  C17 UNL     1      24.476   0.567  53.439  1.00  0.00    -0.021 C 
HETATM   20  C18 UNL     1      23.230   0.192  53.483  1.00  0.00     0.012 C 
HETATM   21  H4  UNL     1      20.015   2.790  50.628  1.00  0.00     0.316 HD
ENDROOT
BRANCH   1  22
HETATM   22  C1  UNL     1      21.231  -0.869  53.982  1.00  0.00     0.417 C 
HETATM   23  F1  UNL     1      21.934  -1.946  53.536  1.00  0.00    -0.166 F 
HETATM   24  F2  UNL     1      21.532  -0.672  55.316  1.00  0.00    -0.166 F 
HETATM   25  F3  UNL     1      19.886  -0.999  53.758  1.00  0.00    -0.166 F 
ENDBRANCH   1  22
TORSDOF 1
ENDMDL
MODEL 3
REMARK VINA RESULT:      -8.1      1.905      2.598
REMARK  1 active torsions:
REMARK  status: ('A' for Active; 'I' for Inactive)
REMARK    1  A    between atoms: C1_2  and  C2_5 
ROOT
HETATM    1  C2  UNL     1      25.685   1.007  53.480  1.00  0.00     0.045 C 
HETATM    2  C3  UNL     1      25.816   2.123  52.786  1.00  0.00     0.019 C 
HETATM    3  C4  UNL     1      24.787   2.760  51.972  1.00  0.00     0.298 C 
HETATM    4  N1  UNL     1      24.538   4.138  52.391  1.00  0.00     0.092 N 
HETATM    5  C5  UNL     1      23.245   4.565  51.931  1.00  0.00     0.326 C 
HETATM    6  C6  UNL     1      23.042   4.648  50.490  1.00  0.00     0.035 A 
HETATM    7  C7  UNL     1      23.805   5.448  49.777  1.00  0.00     0.026 A 
HETATM    8  C8  UNL     1      23.665   5.589  48.335  1.00  0.00    -0.000 A 
HETATM    9  C9  UNL     1      22.703   4.842  47.825  1.00  0.00    -0.007 A 
HETATM   10  C10 UNL     1      21.754   3.900  48.452  1.00  0.00     0.150 A 
HETATM   11  N2  UNL     1      21.998   3.819  49.900  1.00  0.00    -0.379 N 
HETATM   12  C11 UNL     1      21.169   2.906  50.611  1.00  0.00     0.127 C 
HETATM   13  C12 UNL     1      19.842   3.475  51.079  1.00  0.00     0.048 C 
HETATM   14  C13 UNL     1      19.209   2.404  51.898  1.00  0.00    -0.006 C 
HETATM   15  C14 UNL     1      19.521   1.198  52.348  1.00  0.00     0.112 C 
HETATM   16  N3  UNL     1      20.587   0.276  52.309  1.00  0.00    -0.277 NA
HETATM   17  C15 UNL     1      21.089  -0.287  53.372  1.00  0.00     0.093 C 
HETATM   18  C16 UNL     1      22.212  -1.228  53.077  1.00  0.00     0.073 C 
HETATM   19  C17 UNL     1      23.490  -0.529  53.312  1.00  0.00    -0.021 C 
HETATM   20  C18 UNL     1      24.640   0.014  53.587  1.00  0.00     0.012 C 
HETATM   21  H4  UNL     1      25.307   4.740  52.018  1.00  0.00     0.316 HD
ENDROOT
BRANCH   1  22
HETATM   22  C1  UNL     1      26.804   0.424  54.306  1.00  0.00     0.417 C 
HETATM   23  F1  UNL     1      27.776   1.376  54.328  1.00  0.00    -0.166 F 
HETATM   24  F2  UNL     1      26.295   0.291  55.584  1.00  0.00    -0.166 F 
HETATM   25  F3  UNL     1      27.254  -0.764  53.791  1.00  0.00    -0.166 F 
ENDBRANCH   1  22
TORSDOF 1
ENDMDL
MODEL 4
REMARK VINA RESULT:      -7.7      4.694      6.620
REMARK  1 active torsions:
REMARK  status: ('A' for Active; 'I' for Inactive)
REMARK    1  A    between atoms: C1_2  and  C2_5 
ROOT
HETATM    1  C2  UNL     1      18.914   0.339  51.374  1.00  0.00     0.045 C 
HETATM    2  C3  UNL     1      19.243   1.213  50.441  1.00  0.00     0.019 C 
HETATM    3  C4  UNL     1      20.531   1.885  50.302  1.00  0.00     0.298 C 
HETATM    4  N1  UNL     1      21.130   1.649  48.990  1.00  0.00     0.092 N 
HETATM    5  C5  UNL     1      22.545   1.890  49.046  1.00  0.00     0.326 C 
HETATM    6  C6  UNL     1      22.981   3.251  49.334  1.00  0.00     0.035 A 
HETATM    7  C7  UNL     1      22.623   4.226  48.526  1.00  0.00     0.026 A 
HETATM    8  C8  UNL     1      23.017   5.611  48.741  1.00  0.00    -0.000 A 
HETATM    9  C9  UNL     1      23.764   5.782  49.816  1.00  0.00    -0.007 A 
HETATM   10  C10 UNL     1      24.266   4.830  50.827  1.00  0.00     0.150 A 
HETATM   11  N2  UNL     1      23.792   3.470  50.525  1.00  0.00    -0.379 N 
HETATM   12  C11 UNL     1      24.177   2.466  51.457  1.00  0.00     0.127 C 
HETATM   13  C12 UNL     1      25.528   1.827  51.191  1.00  0.00     0.048 C 
HETATM   14  C13 UNL     1      25.664   0.735  52.194  1.00  0.00    -0.006 C 
HETATM   15  C14 UNL     1      24.927   0.174  53.141  1.00  0.00     0.112 C 
HETATM   16  N3  UNL     1      23.646   0.288  53.719  1.00  0.00    -0.277 NA
HETATM   17  C15 UNL     1      22.838  -0.722  53.880  1.00  0.00     0.093 C 
HETATM   18  C16 UNL     1      21.536  -0.352  54.514  1.00  0.00     0.073 C 
HETATM   19  C17 UNL     1      20.520  -0.202  53.455  1.00  0.00    -0.021 C 
HETATM   20  C18 UNL     1      19.568  -0.140  52.569  1.00  0.00     0.012 C 
HETATM   21  H4  UNL     1      20.653   2.265  48.294  1.00  0.00     0.316 HD
ENDROOT
BRANCH   1  22
HETATM   22  C1  UNL     1      17.556  -0.317  51.434  1.00  0.00     0.417 C 
HETATM   23  F1  UNL     1      16.712   0.636  51.916  1.00  0.00    -0.166 F 
HETATM   24  F2  UNL     1      17.212  -0.583  50.122  1.00  0.00    -0.166 F 
HETATM   25  F3  UNL     1      17.568  -1.443  52.215  1.00  0.00    -0.166 F 
ENDBRANCH   1  22
TORSDOF 1
ENDMDL
MODEL 5
REMARK VINA RESULT:      -7.6      4.967      6.512
REMARK  1 active torsions:
REMARK  status: ('A' for Active; 'I' for Inactive)
REMARK    1  A    between atoms: C1_2  and  C2_5 
ROOT
HETATM    1  C2  UNL     1      27.284   6.795  48.231  1.00  0.00     0.045 C 
HETATM    2  C3  UNL     1      26.277   7.648  48.272  1.00  0.00     0.019 C 
HETATM    3  C4  UNL     1      24.971   7.416  48.877  1.00  0.00     0.298 C 
HETATM    4  N1  UNL     1      24.654   8.417  49.893  1.00  0.00     0.092 N 
HETATM    5  C5  UNL     1      23.642   7.915  50.781  1.00  0.00     0.326 C 
HETATM    6  C6  UNL     1      22.329   7.640  50.211  1.00  0.00     0.035 A 
HETATM    7  C7  UNL     1      21.657   8.619  49.642  1.00  0.00     0.026 A 
HETATM    8  C8  UNL     1      20.340   8.429  49.052  1.00  0.00    -0.000 A 
HETATM    9  C9  UNL     1      19.896   7.190  49.148  1.00  0.00    -0.007 A 
HETATM   10  C10 UNL     1      20.490   5.976  49.742  1.00  0.00     0.150 A 
HETATM   11  N2  UNL     1      21.823   6.276  50.288  1.00  0.00    -0.379 N 
HETATM   12  C11 UNL     1      22.518   5.169  50.853  1.00  0.00     0.127 C 
HETATM   13  C12 UNL     1      22.212   4.898  52.314  1.00  0.00     0.048 C 
HETATM   14  C13 UNL     1      23.131   3.799  52.723  1.00  0.00    -0.006 C 
HETATM   15  C14 UNL     1      24.124   3.102  52.193  1.00  0.00     0.112 C 
HETATM   16  N3  UNL     1      24.849   3.004  50.987  1.00  0.00    -0.277 NA
HETATM   17  C15 UNL     1      26.151   3.020  50.927  1.00  0.00     0.093 C 
HETATM   18  C16 UNL     1      26.688   2.902  49.537  1.00  0.00     0.073 C 
HETATM   19  C17 UNL     1      27.032   4.250  49.047  1.00  0.00    -0.021 C 
HETATM   20  C18 UNL     1      27.431   5.406  48.601  1.00  0.00     0.012 C 
HETATM   21  H4  UNL     1      24.354   9.294  49.410  1.00  0.00     0.316 HD
ENDROOT
BRANCH   1  22
HETATM   22  C1  UNL     1      28.609   7.127  47.591  1.00  0.00     0.417 C 
HETATM   23  F1  UNL     1      28.305   7.652  46.373  1.00  0.00    -0.166 F 
HETATM   24  F2  UNL     1      29.161   8.124  48.372  1.00  0.00    -0.166 F 
HETATM   25  F3  UNL     1      29.418   6.025  47.493  1.00  0.00    -0.166 F 
ENDBRANCH   1  22
TORSDOF 1
ENDMDL
MODEL 6
REMARK VINA RESULT:      -7.5      7.967     10.775
REMARK  1 active torsions:
REMARK  status: ('A' for Active; 'I' for Inactive)
REMARK    1  A    between atoms: C1_2  and  C2_5 
ROOT
HETATM    1  C2  UNL     1      26.665   5.478  48.895  1.00  0.00     0.045 C 
HETATM    2  C3  UNL     1      27.899   5.129  48.582  1.00  0.00     0.019 C 
HETATM    3  C4  UNL     1      28.969   6.025  48.157  1.00  0.00     0.298 C 
HETATM    4  N1  UNL     1      30.143   5.921  49.022  1.00  0.00     0.092 N 
HETATM    5  C5  UNL     1      30.952   7.101  48.898  1.00  0.00     0.326 C 
HETATM    6  C6  UNL     1      31.559   7.363  47.598  1.00  0.00     0.035 A 
HETATM    7  C7  UNL     1      32.383   6.475  47.083  1.00  0.00     0.026 A 
HETATM    8  C8  UNL     1      33.032   6.661  45.793  1.00  0.00    -0.000 A 
HETATM    9  C9  UNL     1      32.713   7.799  45.204  1.00  0.00    -0.007 A 
HETATM   10  C10 UNL     1      31.825   8.904  45.617  1.00  0.00     0.150 A 
HETATM   11  N2  UNL     1      31.208   8.603  46.919  1.00  0.00    -0.379 N 
HETATM   12  C11 UNL     1      30.295   9.581  47.405  1.00  0.00     0.127 C 
HETATM   13  C12 UNL     1      30.926  10.709  48.201  1.00  0.00     0.048 C 
HETATM   14  C13 UNL     1      29.791  11.527  48.712  1.00  0.00    -0.006 C 
HETATM   15  C14 UNL     1      28.467  11.481  48.708  1.00  0.00     0.112 C 
HETATM   16  N3  UNL     1      27.419  10.664  48.237  1.00  0.00    -0.277 NA
HETATM   17  C15 UNL     1      26.438  10.247  48.989  1.00  0.00     0.093 C 
HETATM   18  C16 UNL     1      25.449   9.395  48.263  1.00  0.00     0.073 C 
HETATM   19  C17 UNL     1      25.753   7.977  48.538  1.00  0.00    -0.021 C 
HETATM   20  C18 UNL     1      25.927   6.718  48.817  1.00  0.00     0.012 C 
HETATM   21  H4  UNL     1      30.667   5.055  48.762  1.00  0.00     0.316 HD
ENDROOT
BRANCH   1  22
HETATM   22  C1  UNL     1      25.622   4.481  49.336  1.00  0.00     0.417 C 
HETATM   23  F1  UNL     1      25.322   4.812  50.622  1.00  0.00    -0.166 F 
HETATM   24  F2  UNL     1      24.513   4.729  48.551  1.00  0.00    -0.166 F 
HETATM   25  F3  UNL     1      26.071   3.191  49.225  1.00  0.00    -0.166 F 
ENDBRANCH   1  22
TORSDOF 1
ENDMDL
MODEL 7
REMARK VINA RESULT:      -7.4      3.057      5.327
REMARK  1 active torsions:
REMARK  status: ('A' for Active; 'I' for Inactive)
REMARK    1  A    between atoms: C1_2  and  C2_5 
ROOT
HETATM    1  C2  UNL     1      23.824   0.898  52.885  1.00  0.00     0.045 C 
HETATM    2  C3  UNL     1      22.752   0.219  52.517  1.00  0.00     0.019 C 
HETATM    3  C4  UNL     1      21.516   0.779  51.981  1.00  0.00     0.298 C 
HETATM    4  N1  UNL     1      21.187   0.219  50.672  1.00  0.00     0.092 N 
HETATM    5  C5  UNL     1      20.287   1.095  49.974  1.00  0.00     0.326 C 
HETATM    6  C6  UNL     1      18.966   1.298  50.556  1.00  0.00     0.035 A 
HETATM    7  C7  UNL     1      18.173   0.261  50.729  1.00  0.00     0.026 A 
HETATM    8  C8  UNL     1      16.840   0.378  51.300  1.00  0.00    -0.000 A 
HETATM    9  C9  UNL     1      16.512   1.617  51.618  1.00  0.00    -0.007 A 
HETATM   10  C10 UNL     1      17.250   2.891  51.498  1.00  0.00     0.150 A 
HETATM   11  N2  UNL     1      18.587   2.654  50.932  1.00  0.00    -0.379 N 
HETATM   12  C11 UNL     1      19.413   3.806  50.807  1.00  0.00     0.127 C 
HETATM   13  C12 UNL     1      19.235   4.585  49.517  1.00  0.00     0.048 C 
HETATM   14  C13 UNL     1      20.273   5.654  49.543  1.00  0.00    -0.006 C 
HETATM   15  C14 UNL     1      21.282   6.023  50.317  1.00  0.00     0.112 C 
HETATM   16  N3  UNL     1      21.926   5.631  51.508  1.00  0.00    -0.277 NA
HETATM   17  C15 UNL     1      23.215   5.459  51.607  1.00  0.00     0.093 C 
HETATM   18  C16 UNL     1      23.660   5.043  52.971  1.00  0.00     0.073 C 
HETATM   19  C17 UNL     1      23.851   3.580  52.982  1.00  0.00    -0.021 C 
HETATM   20  C18 UNL     1      24.116   2.306  53.020  1.00  0.00     0.012 C 
HETATM   21  H4  UNL     1      20.778  -0.733  50.815  1.00  0.00     0.316 HD
ENDROOT
BRANCH   1  22
HETATM   22  C1  UNL     1      25.067   0.232  53.420  1.00  0.00     0.417 C 
HETATM   23  F1  UNL     1      24.628  -0.843  54.131  1.00  0.00    -0.166 F 
HETATM   24  F2  UNL     1      25.751  -0.227  52.311  1.00  0.00    -0.166 F 
HETATM   25  F3  UNL     1      25.815   1.088  54.185  1.00  0.00    -0.166 F 
ENDBRANCH   1  22
TORSDOF 1
ENDMDL
MODEL 8
REMARK VINA RESULT:      -7.4      9.023     12.274
REMARK  1 active torsions:
REMARK  status: ('A' for Active; 'I' for Inactive)
REMARK    1  A    between atoms: C1_2  and  C2_5 
ROOT
HETATM    1  C2  UNL     1      28.129   6.395  48.076  1.00  0.00     0.045 C 
HETATM    2  C3  UNL     1      29.089   5.533  48.358  1.00  0.00     0.019 C 
HETATM    3  C4  UNL     1      30.458   5.571  47.857  1.00  0.00     0.298 C 
HETATM    4  N1  UNL     1      31.435   5.606  48.944  1.00  0.00     0.092 N 
HETATM    5  C5  UNL     1      32.688   6.119  48.462  1.00  0.00     0.326 C 
HETATM    6  C6  UNL     1      33.389   5.333  47.454  1.00  0.00     0.035 A 
HETATM    7  C7  UNL     1      33.749   4.098  47.735  1.00  0.00     0.026 A 
HETATM    8  C8  UNL     1      34.453   3.249  46.786  1.00  0.00    -0.000 A 
HETATM    9  C9  UNL     1      34.692   3.840  45.630  1.00  0.00    -0.007 A 
HETATM   10  C10 UNL     1      34.375   5.194  45.134  1.00  0.00     0.150 A 
HETATM   11  N2  UNL     1      33.648   5.956  46.162  1.00  0.00    -0.379 N 
HETATM   12  C11 UNL     1      33.249   7.269  45.785  1.00  0.00     0.127 C 
HETATM   13  C12 UNL     1      34.289   8.349  46.020  1.00  0.00     0.048 C 
HETATM   14  C13 UNL     1      33.621   9.636  45.682  1.00  0.00    -0.006 C 
HETATM   15  C14 UNL     1      32.415  10.051  45.324  1.00  0.00     0.112 C 
HETATM   16  N3  UNL     1      31.129   9.534  45.069  1.00  0.00    -0.277 NA
HETATM   17  C15 UNL     1      30.042  10.009  45.610  1.00  0.00     0.093 C 
HETATM   18  C16 UNL     1      28.800   9.295  45.185  1.00  0.00     0.073 C 
HETATM   19  C17 UNL     1      28.434   8.319  46.230  1.00  0.00    -0.021 C 
HETATM   20  C18 UNL     1      28.021   7.506  47.158  1.00  0.00     0.012 C 
HETATM   21  H4  UNL     1      31.529   4.641  49.334  1.00  0.00     0.316 HD
ENDROOT
BRANCH   1  22
HETATM   22  C1  UNL     1      26.738   6.284  48.650  1.00  0.00     0.417 C 
HETATM   23  F1  UNL     1      26.722   7.115  49.728  1.00  0.00    -0.166 F 
HETATM   24  F2  UNL     1      25.894   6.801  47.687  1.00  0.00    -0.166 F 
HETATM   25  F3  UNL     1      26.427   4.992  48.987  1.00  0.00    -0.166 F 
ENDBRANCH   1  22
TORSDOF 1
ENDMDL
MODEL 9
REMARK VINA RESULT:      -7.2      3.761      5.944
REMARK  1 active torsions:
REMARK  status: ('A' for Active; 'I' for Inactive)
REMARK    1  A    between atoms: C1_2  and  C2_5 
ROOT
HETATM    1  C2  UNL     1      21.375  -0.016  52.996  1.00  0.00     0.045 C 
HETATM    2  C3  UNL     1      20.366   0.304  52.206  1.00  0.00     0.019 C 
HETATM    3  C4  UNL     1      20.328   1.415  51.261  1.00  0.00     0.298 C 
HETATM    4  N1  UNL     1      20.047   0.963  49.900  1.00  0.00     0.092 N 
HETATM    5  C5  UNL     1      20.482   1.952  48.953  1.00  0.00     0.326 C 
HETATM    6  C6  UNL     1      19.813   3.248  48.984  1.00  0.00     0.035 A 
HETATM    7  C7  UNL     1      18.514   3.306  48.782  1.00  0.00     0.026 A 
HETATM    8  C8  UNL     1      17.772   4.558  48.794  1.00  0.00    -0.000 A 
HETATM    9  C9  UNL     1      18.530   5.615  49.023  1.00  0.00    -0.007 A 
HETATM   10  C10 UNL     1      19.980   5.751  49.266  1.00  0.00     0.150 A 
HETATM   11  N2  UNL     1      20.625   4.428  49.254  1.00  0.00    -0.379 N 
HETATM   12  C11 UNL     1      22.023   4.425  49.519  1.00  0.00     0.127 C 
HETATM   13  C12 UNL     1      22.908   4.635  48.304  1.00  0.00     0.048 C 
HETATM   14  C13 UNL     1      24.306   4.466  48.788  1.00  0.00    -0.006 C 
HETATM   15  C14 UNL     1      24.923   4.132  49.911  1.00  0.00     0.112 C 
HETATM   16  N3  UNL     1      24.620   3.761  51.237  1.00  0.00    -0.277 NA
HETATM   17  C15 UNL     1      25.118   2.706  51.820  1.00  0.00     0.093 C 
HETATM   18  C16 UNL     1      24.648   2.523  53.227  1.00  0.00     0.073 C 
HETATM   19  C17 UNL     1      23.551   1.537  53.235  1.00  0.00    -0.021 C 
HETATM   20  C18 UNL     1      22.638   0.611  53.307  1.00  0.00     0.012 C 
HETATM   21  H4  UNL     1      19.023   0.768  49.822  1.00  0.00     0.316 HD
ENDROOT
BRANCH   1  22
HETATM   22  C1  UNL     1      21.330  -1.194  53.938  1.00  0.00     0.417 C 
HETATM   23  F1  UNL     1      20.054  -1.662  53.876  1.00  0.00    -0.166 F 
HETATM   24  F2  UNL     1      22.171  -2.143  53.387  1.00  0.00    -0.166 F 
HETATM   25  F3  UNL     1      21.693  -0.843  55.212  1.00  0.00    -0.166 F 
ENDBRANCH   1  22
TORSDOF 1
ENDMDL
