MODEL 1
REMARK VINA RESULT:      -7.2      0.000      0.000
REMARK  7 active torsions:
REMARK  status: ('A' for Active; 'I' for Inactive)
REMARK    1  A    between atoms: C2_2  and  N1_3 
REMARK    2  A    between atoms: C2_2  and  C3_4 
REMARK    3  A    between atoms: C2_2  and  C10_13 
REMARK    4  A    between atoms: C3_4  and  C4_5 
REMARK    5  A    between atoms: C9_11  and  O1_12 
REMARK    6  A    between atoms: C10_13  and  N2_14 
REMARK    7  A    between atoms: C15_19  and  O2_20 
ROOT
HETATM    1  C1  UNL     1      25.120   2.909  53.537  1.00  0.00     0.051 C 
HETATM    2  C2  UNL     1      25.659   2.231  52.346  1.00  0.00     0.181 C 
ENDROOT
BRANCH   2   3
HETATM    3  N1  UNL     1      26.227   3.308  51.502  1.00  0.00     0.089 N 
HETATM    4  H4  UNL     1      25.582   4.105  51.382  1.00  0.00     0.313 HD
HETATM    5  H5  UNL     1      27.182   3.576  51.786  1.00  0.00     0.313 HD
ENDBRANCH   2   3
BRANCH   2   6
HETATM    6  C3  UNL     1      24.620   1.469  51.544  1.00  0.00     0.084 C 
BRANCH   6   7
HETATM    7  C4  UNL     1      23.344   1.223  52.189  1.00  0.00    -0.021 A 
HETATM    8  C5  UNL     1      22.318   2.122  51.900  1.00  0.00     0.010 A 
HETATM    9  C6  UNL     1      21.047   2.002  52.471  1.00  0.00     0.002 A 
HETATM   10  C7  UNL     1      20.853   0.952  53.336  1.00  0.00     0.026 A 
HETATM   11  C8  UNL     1      21.841   0.045  53.645  1.00  0.00     0.067 A 
HETATM   12 CL1  UNL     1      21.485  -1.294  54.761  1.00  0.00    -0.081 Cl
HETATM   13  C9  UNL     1      23.084   0.182  53.073  1.00  0.00     0.093 A 
BRANCH  13  14
HETATM   14  O1  UNL     1      24.035  -0.761  53.420  1.00  0.00    -0.358 OA
HETATM   15  H11 UNL     1      23.918  -1.697  52.989  1.00  0.00     0.217 HD
ENDBRANCH  13  14
ENDBRANCH   6   7
ENDBRANCH   2   6
BRANCH   2  16
HETATM   16  C10 UNL     1      26.805   1.275  52.553  1.00  0.00     0.317 C 
BRANCH  16  17
HETATM   17  N2  UNL     1      27.546   1.409  53.758  1.00  0.00     0.123 N 
HETATM   18  C11 UNL     1      27.320   0.140  54.494  1.00  0.00     0.303 C 
HETATM   19  C12 UNL     1      27.577  -0.961  53.528  1.00  0.00    -0.001 C 
HETATM   20  C13 UNL     1      28.859  -0.873  53.188  1.00  0.00    -0.025 C 
HETATM   21  C14 UNL     1      29.715   0.197  53.772  1.00  0.00     0.091 C 
HETATM   22  C15 UNL     1      28.985   1.536  53.568  1.00  0.00     0.360 C 
BRANCH  22  23
HETATM   23  O2  UNL     1      29.451   2.383  54.572  1.00  0.00    -0.367 OA
HETATM   24  H21 UNL     1      30.388   2.101  54.794  1.00  0.00     0.212 HD
ENDBRANCH  22  23
ENDBRANCH  16  17
ENDBRANCH   2  16
TORSDOF 7
ENDMDL
MODEL 2
REMARK VINA RESULT:      -7.0      1.575      1.905
REMARK  7 active torsions:
REMARK  status: ('A' for Active; 'I' for Inactive)
REMARK    1  A    between atoms: C2_2  and  N1_3 
REMARK    2  A    between atoms: C2_2  and  C3_4 
REMARK    3  A    between atoms: C2_2  and  C10_13 
REMARK    4  A    between atoms: C3_4  and  C4_5 
REMARK    5  A    between atoms: C9_11  and  O1_12 
REMARK    6  A    between atoms: C10_13  and  N2_14 
REMARK    7  A    between atoms: C15_19  and  O2_20 
ROOT
HETATM    1  C1  UNL     1      25.061   2.789  53.685  1.00  0.00     0.051 C 
HETATM    2  C2  UNL     1      25.552   2.088  52.486  1.00  0.00     0.181 C 
ENDROOT
BRANCH   2   3
HETATM    3  N1  UNL     1      25.681   3.131  51.443  1.00  0.00     0.089 N 
HETATM    4  H4  UNL     1      24.936   3.845  51.497  1.00  0.00     0.313 HD
HETATM    5  H5  UNL     1      26.635   3.518  51.382  1.00  0.00     0.313 HD
ENDBRANCH   2   3
BRANCH   2   6
HETATM    6  C3  UNL     1      24.623   0.996  51.985  1.00  0.00     0.084 C 
BRANCH   6   7
HETATM    7  C4  UNL     1      23.273   0.989  52.514  1.00  0.00    -0.021 A 
HETATM    8  C5  UNL     1      22.999   0.049  53.507  1.00  0.00     0.010 A 
HETATM    9  C6  UNL     1      21.731  -0.067  54.086  1.00  0.00     0.002 A 
HETATM   10  C7  UNL     1      20.760   0.790  53.628  1.00  0.00     0.026 A 
HETATM   11  C8  UNL     1      20.992   1.730  52.650  1.00  0.00     0.067 A 
HETATM   12 CL1  UNL     1      19.674   2.810  52.139  1.00  0.00    -0.081 Cl
HETATM   13  C9  UNL     1      22.246   1.828  52.094  1.00  0.00     0.093 A 
BRANCH  13  14
HETATM   14  O1  UNL     1      22.419   2.792  51.117  1.00  0.00    -0.358 OA
HETATM   15  H11 UNL     1      23.334   3.281  51.125  1.00  0.00     0.217 HD
ENDBRANCH  13  14
ENDBRANCH   6   7
ENDBRANCH   2   6
BRANCH   2  16
HETATM   16  C10 UNL     1      26.921   1.463  52.562  1.00  0.00     0.317 C 
BRANCH  16  17
HETATM   17  N2  UNL     1      27.556   1.456  53.833  1.00  0.00     0.123 N 
HETATM   18  C11 UNL     1      27.216   0.139  54.427  1.00  0.00     0.303 C 
HETATM   19  C12 UNL     1      27.515  -0.884  53.390  1.00  0.00    -0.001 C 
HETATM   20  C13 UNL     1      28.825  -0.826  53.170  1.00  0.00    -0.025 C 
HETATM   21  C14 UNL     1      29.666   0.147  53.920  1.00  0.00     0.091 C 
HETATM   22  C15 UNL     1      29.011   1.531  53.779  1.00  0.00     0.360 C 
BRANCH  22  23
HETATM   23  O2  UNL     1      29.418   2.264  54.893  1.00  0.00    -0.367 OA
HETATM   24  H21 UNL     1      29.470   3.227  54.618  1.00  0.00     0.212 HD
ENDBRANCH  22  23
ENDBRANCH  16  17
ENDBRANCH   2  16
TORSDOF 7
ENDMDL
MODEL 3
REMARK VINA RESULT:      -6.9      3.634      4.672
REMARK  7 active torsions:
REMARK  status: ('A' for Active; 'I' for Inactive)
REMARK    1  A    between atoms: C2_2  and  N1_3 
REMARK    2  A    between atoms: C2_2  and  C3_4 
REMARK    3  A    between atoms: C2_2  and  C10_13 
REMARK    4  A    between atoms: C3_4  and  C4_5 
REMARK    5  A    between atoms: C9_11  and  O1_12 
REMARK    6  A    between atoms: C10_13  and  N2_14 
REMARK    7  A    between atoms: C15_19  and  O2_20 
ROOT
HETATM    1  C1  UNL     1      23.095   1.651  52.860  1.00  0.00     0.051 C 
HETATM    2  C2  UNL     1      24.314   2.191  52.232  1.00  0.00     0.181 C 
ENDROOT
BRANCH   2   3
HETATM    3  N1  UNL     1      24.597   3.459  52.944  1.00  0.00     0.089 N 
HETATM    4  H4  UNL     1      23.741   3.994  53.163  1.00  0.00     0.313 HD
HETATM    5  H5  UNL     1      25.234   3.333  53.746  1.00  0.00     0.313 HD
ENDBRANCH   2   3
BRANCH   2   6
HETATM    6  C3  UNL     1      24.172   2.475  50.748  1.00  0.00     0.084 C 
BRANCH   6   7
HETATM    7  C4  UNL     1      24.942   3.584  50.216  1.00  0.00    -0.021 A 
HETATM    8  C5  UNL     1      26.163   3.265  49.624  1.00  0.00     0.010 A 
HETATM    9  C6  UNL     1      27.004   4.246  49.089  1.00  0.00     0.002 A 
HETATM   10  C7  UNL     1      26.570   5.547  49.173  1.00  0.00     0.026 A 
HETATM   11  C8  UNL     1      25.371   5.901  49.749  1.00  0.00     0.067 A 
HETATM   12 CL1  UNL     1      24.888   7.611  49.791  1.00  0.00    -0.081 Cl
HETATM   13  C9  UNL     1      24.560   4.920  50.271  1.00  0.00     0.093 A 
BRANCH  13  14
HETATM   14  O1  UNL     1      23.367   5.336  50.835  1.00  0.00    -0.358 OA
HETATM   15  H11 UNL     1      22.510   4.906  50.440  1.00  0.00     0.217 HD
ENDBRANCH  13  14
ENDBRANCH   6   7
ENDBRANCH   2   6
BRANCH   2  16
HETATM   16  C10 UNL     1      25.582   1.389  52.380  1.00  0.00     0.317 C 
BRANCH  16  17
HETATM   17  N2  UNL     1      26.395   1.673  53.510  1.00  0.00     0.123 N 
HETATM   18  C11 UNL     1      26.288   0.472  54.375  1.00  0.00     0.303 C 
HETATM   19  C12 UNL     1      26.536  -0.705  53.500  1.00  0.00    -0.001 C 
HETATM   20  C13 UNL     1      27.786  -0.590  53.060  1.00  0.00    -0.025 C 
HETATM   21  C14 UNL     1      28.621   0.570  53.477  1.00  0.00     0.091 C 
HETATM   22  C15 UNL     1      27.809   1.848  53.204  1.00  0.00     0.360 C 
BRANCH  22  23
HETATM   23  O2  UNL     1      28.297   2.809  54.089  1.00  0.00    -0.367 OA
HETATM   24  H21 UNL     1      27.905   3.692  53.820  1.00  0.00     0.212 HD
ENDBRANCH  22  23
ENDBRANCH  16  17
ENDBRANCH   2  16
TORSDOF 7
ENDMDL
MODEL 4
REMARK VINA RESULT:      -6.8      2.771      5.913
REMARK  7 active torsions:
REMARK  status: ('A' for Active; 'I' for Inactive)
REMARK    1  A    between atoms: C2_2  and  N1_3 
REMARK    2  A    between atoms: C2_2  and  C3_4 
REMARK    3  A    between atoms: C2_2  and  C10_13 
REMARK    4  A    between atoms: C3_4  and  C4_5 
REMARK    5  A    between atoms: C9_11  and  O1_12 
REMARK    6  A    between atoms: C10_13  and  N2_14 
REMARK    7  A    between atoms: C15_19  and  O2_20 
ROOT
HETATM    1  C1  UNL     1      23.367   3.440  51.658  1.00  0.00     0.051 C 
HETATM    2  C2  UNL     1      24.181   2.437  52.366  1.00  0.00     0.181 C 
ENDROOT
BRANCH   2   3
HETATM    3  N1  UNL     1      24.889   3.183  53.432  1.00  0.00     0.089 N 
HETATM    4  H4  UNL     1      25.798   3.560  53.121  1.00  0.00     0.313 HD
HETATM    5  H5  UNL     1      24.284   3.873  53.905  1.00  0.00     0.313 HD
ENDBRANCH   2   3
BRANCH   2   6
HETATM    6  C3  UNL     1      25.203   1.738  51.487  1.00  0.00     0.084 C 
BRANCH   6   7
HETATM    7  C4  UNL     1      26.213   0.942  52.160  1.00  0.00    -0.021 A 
HETATM    8  C5  UNL     1      25.942  -0.418  52.296  1.00  0.00     0.010 A 
HETATM    9  C6  UNL     1      26.829  -1.287  52.940  1.00  0.00     0.002 A 
HETATM   10  C7  UNL     1      27.986  -0.737  53.435  1.00  0.00     0.026 A 
HETATM   11  C8  UNL     1      28.288   0.601  53.320  1.00  0.00     0.067 A 
HETATM   12 CL1  UNL     1      29.823   1.215  53.976  1.00  0.00    -0.081 Cl
HETATM   13  C9  UNL     1      27.401   1.439  52.683  1.00  0.00     0.093 A 
BRANCH  13  14
HETATM   14  O1  UNL     1      27.760   2.772  52.596  1.00  0.00    -0.358 OA
HETATM   15  H11 UNL     1      27.206   3.425  53.180  1.00  0.00     0.217 HD
ENDBRANCH  13  14
ENDBRANCH   6   7
ENDBRANCH   2   6
BRANCH   2  16
HETATM   16  C10 UNL     1      23.449   1.342  53.099  1.00  0.00     0.317 C 
BRANCH  16  17
HETATM   17  N2  UNL     1      22.243   0.870  52.513  1.00  0.00     0.123 N 
HETATM   18  C11 UNL     1      22.315  -0.608  52.619  1.00  0.00     0.303 C 
HETATM   19  C12 UNL     1      22.681  -0.914  54.028  1.00  0.00    -0.001 C 
HETATM   20  C13 UNL     1      21.681  -0.468  54.782  1.00  0.00    -0.025 C 
HETATM   21  C14 UNL     1      20.503   0.189  54.149  1.00  0.00     0.091 C 
HETATM   22  C15 UNL     1      21.033   1.286  53.210  1.00  0.00     0.360 C 
BRANCH  22  23
HETATM   23  O2  UNL     1      20.050   1.466  52.239  1.00  0.00    -0.367 OA
HETATM   24  H21 UNL     1      19.673   0.562  52.020  1.00  0.00     0.212 HD
ENDBRANCH  22  23
ENDBRANCH  16  17
ENDBRANCH   2  16
TORSDOF 7
ENDMDL
MODEL 5
REMARK VINA RESULT:      -6.8      2.831      6.491
REMARK  7 active torsions:
REMARK  status: ('A' for Active; 'I' for Inactive)
REMARK    1  A    between atoms: C2_2  and  N1_3 
REMARK    2  A    between atoms: C2_2  and  C3_4 
REMARK    3  A    between atoms: C2_2  and  C10_13 
REMARK    4  A    between atoms: C3_4  and  C4_5 
REMARK    5  A    between atoms: C9_11  and  O1_12 
REMARK    6  A    between atoms: C10_13  and  N2_14 
REMARK    7  A    between atoms: C15_19  and  O2_20 
ROOT
HETATM    1  C1  UNL     1      24.738   1.821  51.173  1.00  0.00     0.051 C 
HETATM    2  C2  UNL     1      23.835   1.600  52.315  1.00  0.00     0.181 C 
ENDROOT
BRANCH   2   3
HETATM    3  N1  UNL     1      23.685   2.924  52.963  1.00  0.00     0.089 N 
HETATM    4  H4  UNL     1      22.950   2.933  53.688  1.00  0.00     0.313 HD
HETATM    5  H5  UNL     1      24.586   3.322  53.269  1.00  0.00     0.313 HD
ENDBRANCH   2   3
BRANCH   2   6
HETATM    6  C3  UNL     1      24.359   0.604  53.335  1.00  0.00     0.084 C 
BRANCH   6   7
HETATM    7  C4  UNL     1      25.790   0.367  53.345  1.00  0.00    -0.021 A 
HETATM    8  C5  UNL     1      26.215  -0.882  52.895  1.00  0.00     0.010 A 
HETATM    9  C6  UNL     1      27.568  -1.238  52.871  1.00  0.00     0.002 A 
HETATM   10  C7  UNL     1      28.465  -0.296  53.315  1.00  0.00     0.026 A 
HETATM   11  C8  UNL     1      28.082   0.947  53.766  1.00  0.00     0.067 A 
HETATM   12 CL1  UNL     1      29.321   2.106  54.300  1.00  0.00    -0.081 Cl
HETATM   13  C9  UNL     1      26.746   1.276  53.782  1.00  0.00     0.093 A 
BRANCH  13  14
HETATM   14  O1  UNL     1      26.424   2.540  54.244  1.00  0.00    -0.358 OA
HETATM   15  H11 UNL     1      26.323   3.272  53.516  1.00  0.00     0.217 HD
ENDBRANCH  13  14
ENDBRANCH   6   7
ENDBRANCH   2   6
BRANCH   2  16
HETATM   16  C10 UNL     1      22.423   1.172  52.008  1.00  0.00     0.317 C 
BRANCH  16  17
HETATM   17  N2  UNL     1      21.459   1.344  53.038  1.00  0.00     0.123 N 
HETATM   18  C11 UNL     1      20.361   2.123  52.413  1.00  0.00     0.303 C 
HETATM   19  C12 UNL     1      20.034   1.442  51.132  1.00  0.00    -0.001 C 
HETATM   20  C13 UNL     1      19.587   0.232  51.452  1.00  0.00    -0.025 C 
HETATM   21  C14 UNL     1      19.504  -0.180  52.881  1.00  0.00     0.091 C 
HETATM   22  C15 UNL     1      20.872   0.103  53.525  1.00  0.00     0.360 C 
BRANCH  22  23
HETATM   23  O2  UNL     1      20.626   0.280  54.886  1.00  0.00    -0.367 OA
HETATM   24  H21 UNL     1      21.415  -0.087  55.385  1.00  0.00     0.212 HD
ENDBRANCH  22  23
ENDBRANCH  16  17
ENDBRANCH   2  16
TORSDOF 7
ENDMDL
MODEL 6
REMARK VINA RESULT:      -6.8      3.864      6.031
REMARK  7 active torsions:
REMARK  status: ('A' for Active; 'I' for Inactive)
REMARK    1  A    between atoms: C2_2  and  N1_3 
REMARK    2  A    between atoms: C2_2  and  C3_4 
REMARK    3  A    between atoms: C2_2  and  C10_13 
REMARK    4  A    between atoms: C3_4  and  C4_5 
REMARK    5  A    between atoms: C9_11  and  O1_12 
REMARK    6  A    between atoms: C10_13  and  N2_14 
REMARK    7  A    between atoms: C15_19  and  O2_20 
ROOT
HETATM    1  C1  UNL     1      24.110   2.597  50.259  1.00  0.00     0.051 C 
HETATM    2  C2  UNL     1      24.560   3.605  51.234  1.00  0.00     0.181 C 
ENDROOT
BRANCH   2   3
HETATM    3  N1  UNL     1      26.032   3.679  51.077  1.00  0.00     0.089 N 
HETATM    4  H4  UNL     1      26.325   4.394  50.393  1.00  0.00     0.313 HD
HETATM    5  H5  UNL     1      26.527   3.728  51.980  1.00  0.00     0.313 HD
ENDBRANCH   2   3
BRANCH   2   6
HETATM    6  C3  UNL     1      24.232   3.261  52.676  1.00  0.00     0.084 C 
BRANCH   6   7
HETATM    7  C4  UNL     1      24.698   1.979  53.167  1.00  0.00    -0.021 A 
HETATM    8  C5  UNL     1      23.810   0.910  53.056  1.00  0.00     0.010 A 
HETATM    9  C6  UNL     1      24.136  -0.373  53.507  1.00  0.00     0.002 A 
HETATM   10  C7  UNL     1      25.379  -0.534  54.071  1.00  0.00     0.026 A 
HETATM   11  C8  UNL     1      26.283   0.497  54.198  1.00  0.00     0.067 A 
HETATM   12 CL1  UNL     1      27.876   0.183  54.923  1.00  0.00    -0.081 Cl
HETATM   13  C9  UNL     1      25.941   1.751  53.748  1.00  0.00     0.093 A 
BRANCH  13  14
HETATM   14  O1  UNL     1      26.891   2.745  53.901  1.00  0.00    -0.358 OA
HETATM   15  H11 UNL     1      27.697   2.700  53.251  1.00  0.00     0.217 HD
ENDBRANCH  13  14
ENDBRANCH   6   7
ENDBRANCH   2   6
BRANCH   2  16
HETATM   16  C10 UNL     1      24.091   5.023  51.030  1.00  0.00     0.317 C 
BRANCH  16  17
HETATM   17  N2  UNL     1      24.976   5.902  50.350  1.00  0.00     0.123 N 
HETATM   18  C11 UNL     1      24.401   6.052  48.990  1.00  0.00     0.303 C 
HETATM   19  C12 UNL     1      22.959   6.369  49.172  1.00  0.00    -0.001 C 
HETATM   20  C13 UNL     1      22.906   7.538  49.802  1.00  0.00    -0.025 C 
HETATM   21  C14 UNL     1      24.165   8.244  50.174  1.00  0.00     0.091 C 
HETATM   22  C15 UNL     1      25.055   7.239  50.924  1.00  0.00     0.360 C 
BRANCH  22  23
HETATM   23  O2  UNL     1      26.366   7.679  50.743  1.00  0.00    -0.367 OA
HETATM   24  H21 UNL     1      26.526   7.746  49.755  1.00  0.00     0.212 HD
ENDBRANCH  22  23
ENDBRANCH  16  17
ENDBRANCH   2  16
TORSDOF 7
ENDMDL
MODEL 7
REMARK VINA RESULT:      -6.7      2.531      6.117
REMARK  7 active torsions:
REMARK  status: ('A' for Active; 'I' for Inactive)
REMARK    1  A    between atoms: C2_2  and  N1_3 
REMARK    2  A    between atoms: C2_2  and  C3_4 
REMARK    3  A    between atoms: C2_2  and  C10_13 
REMARK    4  A    between atoms: C3_4  and  C4_5 
REMARK    5  A    between atoms: C9_11  and  O1_12 
REMARK    6  A    between atoms: C10_13  and  N2_14 
REMARK    7  A    between atoms: C15_19  and  O2_20 
ROOT
HETATM    1  C1  UNL     1      25.262   1.590  51.591  1.00  0.00     0.051 C 
HETATM    2  C2  UNL     1      24.630   1.966  52.868  1.00  0.00     0.181 C 
ENDROOT
BRANCH   2   3
HETATM    3  N1  UNL     1      24.601   3.448  52.872  1.00  0.00     0.089 N 
HETATM    4  H4  UNL     1      25.544   3.866  52.829  1.00  0.00     0.313 HD
HETATM    5  H5  UNL     1      23.934   3.835  52.187  1.00  0.00     0.313 HD
ENDBRANCH   2   3
BRANCH   2   6
HETATM    6  C3  UNL     1      25.380   1.481  54.096  1.00  0.00     0.084 C 
BRANCH   6   7
HETATM    7  C4  UNL     1      26.772   1.118  53.914  1.00  0.00    -0.021 A 
HETATM    8  C5  UNL     1      27.693   2.164  53.920  1.00  0.00     0.010 A 
HETATM    9  C6  UNL     1      29.063   1.944  53.739  1.00  0.00     0.002 A 
HETATM   10  C7  UNL     1      29.462   0.642  53.552  1.00  0.00     0.026 A 
HETATM   11  C8  UNL     1      28.582  -0.416  53.540  1.00  0.00     0.067 A 
HETATM   12 CL1  UNL     1      29.200  -2.068  53.312  1.00  0.00    -0.081 Cl
HETATM   13  C9  UNL     1      27.240  -0.178  53.719  1.00  0.00     0.093 A 
BRANCH  13  14
HETATM   14  O1  UNL     1      26.405  -1.281  53.699  1.00  0.00    -0.358 OA
HETATM   15  H11 UNL     1      26.048  -1.557  52.766  1.00  0.00     0.217 HD
ENDBRANCH  13  14
ENDBRANCH   6   7
ENDBRANCH   2   6
BRANCH   2  16
HETATM   16  C10 UNL     1      23.193   1.563  53.074  1.00  0.00     0.317 C 
BRANCH  16  17
HETATM   17  N2  UNL     1      22.677   0.556  52.215  1.00  0.00     0.123 N 
HETATM   18  C11 UNL     1      22.565  -0.656  53.064  1.00  0.00     0.303 C 
HETATM   19  C12 UNL     1      21.860  -0.240  54.306  1.00  0.00    -0.001 C 
HETATM   20  C13 UNL     1      20.644   0.150  53.936  1.00  0.00    -0.025 C 
HETATM   21  C14 UNL     1      20.250   0.106  52.500  1.00  0.00     0.091 C 
HETATM   22  C15 UNL     1      21.343   0.833  51.698  1.00  0.00     0.360 C 
BRANCH  22  23
HETATM   23  O2  UNL     1      21.291   0.300  50.410  1.00  0.00    -0.367 OA
HETATM   24  H21 UNL     1      22.041   0.710  49.884  1.00  0.00     0.212 HD
ENDBRANCH  22  23
ENDBRANCH  16  17
ENDBRANCH   2  16
TORSDOF 7
ENDMDL
MODEL 8
REMARK VINA RESULT:      -6.6      1.833      2.472
REMARK  7 active torsions:
REMARK  status: ('A' for Active; 'I' for Inactive)
REMARK    1  A    between atoms: C2_2  and  N1_3 
REMARK    2  A    between atoms: C2_2  and  C3_4 
REMARK    3  A    between atoms: C2_2  and  C10_13 
REMARK    4  A    between atoms: C3_4  and  C4_5 
REMARK    5  A    between atoms: C9_11  and  O1_12 
REMARK    6  A    between atoms: C10_13  and  N2_14 
REMARK    7  A    between atoms: C15_19  and  O2_20 
ROOT
HETATM    1  C1  UNL     1      23.976   3.255  53.183  1.00  0.00     0.051 C 
HETATM    2  C2  UNL     1      25.054   2.422  52.623  1.00  0.00     0.181 C 
ENDROOT
BRANCH   2   3
HETATM    3  N1  UNL     1      25.692   3.253  51.575  1.00  0.00     0.089 N 
HETATM    4  H4  UNL     1      25.109   4.056  51.292  1.00  0.00     0.313 HD
HETATM    5  H5  UNL     1      26.669   3.496  51.799  1.00  0.00     0.313 HD
ENDBRANCH   2   3
BRANCH   2   6
HETATM    6  C3  UNL     1      24.573   1.123  52.002  1.00  0.00     0.084 C 
BRANCH   6   7
HETATM    7  C4  UNL     1      23.367   0.538  52.555  1.00  0.00    -0.021 A 
HETATM    8  C5  UNL     1      23.518  -0.211  53.721  1.00  0.00     0.010 A 
HETATM    9  C6  UNL     1      22.433  -0.838  54.342  1.00  0.00     0.002 A 
HETATM   10  C7  UNL     1      21.203  -0.684  53.748  1.00  0.00     0.026 A 
HETATM   11  C8  UNL     1      21.016   0.048  52.597  1.00  0.00     0.067 A 
HETATM   12 CL1  UNL     1      19.381   0.207  51.915  1.00  0.00    -0.081 Cl
HETATM   13  C9  UNL     1      22.097   0.656  52.002  1.00  0.00     0.093 A 
BRANCH  13  14
HETATM   14  O1  UNL     1      21.845   1.379  50.849  1.00  0.00    -0.358 OA
HETATM   15  H11 UNL     1      20.848   1.594  50.663  1.00  0.00     0.217 HD
ENDBRANCH  13  14
ENDBRANCH   6   7
ENDBRANCH   2   6
BRANCH   2  16
HETATM   16  C10 UNL     1      26.187   2.046  53.543  1.00  0.00     0.317 C 
BRANCH  16  17
HETATM   17  N2  UNL     1      26.924   0.877  53.213  1.00  0.00     0.123 N 
HETATM   18  C11 UNL     1      28.209   1.373  52.660  1.00  0.00     0.303 C 
HETATM   19  C12 UNL     1      28.722   2.383  53.623  1.00  0.00    -0.001 C 
HETATM   20  C13 UNL     1      28.954   1.736  54.761  1.00  0.00    -0.025 C 
HETATM   21  C14 UNL     1      28.686   0.273  54.856  1.00  0.00     0.091 C 
HETATM   22  C15 UNL     1      27.253   0.031  54.353  1.00  0.00     0.360 C 
BRANCH  22  23
HETATM   23  O2  UNL     1      27.224  -1.287  53.900  1.00  0.00    -0.367 OA
HETATM   24  H21 UNL     1      27.876  -1.359  53.141  1.00  0.00     0.212 HD
ENDBRANCH  22  23
ENDBRANCH  16  17
ENDBRANCH   2  16
TORSDOF 7
ENDMDL
MODEL 9
REMARK VINA RESULT:      -6.5      2.793      6.169
REMARK  7 active torsions:
REMARK  status: ('A' for Active; 'I' for Inactive)
REMARK    1  A    between atoms: C2_2  and  N1_3 
REMARK    2  A    between atoms: C2_2  and  C3_4 
REMARK    3  A    between atoms: C2_2  and  C10_13 
REMARK    4  A    between atoms: C3_4  and  C4_5 
REMARK    5  A    between atoms: C9_11  and  O1_12 
REMARK    6  A    between atoms: C10_13  and  N2_14 
REMARK    7  A    between atoms: C15_19  and  O2_20 
ROOT
HETATM    1  C1  UNL     1      25.091   2.682  50.977  1.00  0.00     0.051 C 
HETATM    2  C2  UNL     1      24.256   2.962  52.158  1.00  0.00     0.181 C 
ENDROOT
BRANCH   2   3
HETATM    3  N1  UNL     1      24.172   4.439  52.241  1.00  0.00     0.089 N 
HETATM    4  H4  UNL     1      23.906   4.875  51.344  1.00  0.00     0.313 HD
HETATM    5  H5  UNL     1      23.619   4.762  53.050  1.00  0.00     0.313 HD
ENDBRANCH   2   3
BRANCH   2   6
HETATM    6  C3  UNL     1      24.824   2.423  53.459  1.00  0.00     0.084 C 
BRANCH   6   7
HETATM    7  C4  UNL     1      25.831   1.385  53.355  1.00  0.00    -0.021 A 
HETATM    8  C5  UNL     1      25.383   0.120  52.976  1.00  0.00     0.010 A 
HETATM    9  C6  UNL     1      26.255  -0.967  52.856  1.00  0.00     0.002 A 
HETATM   10  C7  UNL     1      27.580  -0.733  53.132  1.00  0.00     0.026 A 
HETATM   11  C8  UNL     1      28.060   0.501  53.509  1.00  0.00     0.067 A 
HETATM   12 CL1  UNL     1      29.797   0.709  53.823  1.00  0.00    -0.081 Cl
HETATM   13  C9  UNL     1      27.185   1.557  53.621  1.00  0.00     0.093 A 
BRANCH  13  14
HETATM   14  O1  UNL     1      27.726   2.773  54.001  1.00  0.00    -0.358 OA
HETATM   15  H11 UNL     1      28.417   3.181  53.346  1.00  0.00     0.217 HD
ENDBRANCH  13  14
ENDBRANCH   6   7
ENDBRANCH   2   6
BRANCH   2  16
HETATM   16  C10 UNL     1      22.820   2.507  52.113  1.00  0.00     0.317 C 
BRANCH  16  17
HETATM   17  N2  UNL     1      22.509   1.444  51.224  1.00  0.00     0.123 N 
HETATM   18  C11 UNL     1      22.017   0.345  52.093  1.00  0.00     0.303 C 
HETATM   19  C12 UNL     1      20.998   0.943  52.996  1.00  0.00    -0.001 C 
HETATM   20  C13 UNL     1      20.006   1.365  52.218  1.00  0.00    -0.025 C 
HETATM   21  C14 UNL     1      20.086   1.183  50.741  1.00  0.00     0.091 C 
HETATM   22  C15 UNL     1      21.441   1.744  50.279  1.00  0.00     0.360 C 
BRANCH  22  23
HETATM   23  O2  UNL     1      21.750   1.072  49.096  1.00  0.00    -0.367 OA
HETATM   24  H21 UNL     1      22.382   0.329  49.329  1.00  0.00     0.212 HD
ENDBRANCH  22  23
ENDBRANCH  16  17
ENDBRANCH   2  16
TORSDOF 7
ENDMDL
