MODEL 1
REMARK VINA RESULT:      -7.8      0.000      0.000
REMARK  6 active torsions:
REMARK  status: ('A' for Active; 'I' for Inactive)
REMARK    1  A    between atoms: C2_4  and  C3_5 
REMARK    2  A    between atoms: C3_5  and  C4_6 
REMARK    3  A    between atoms: C5_7  and  C6_8 
REMARK    4  A    between atoms: C10_13  and  N2_14 
REMARK    5  A    between atoms: N2_14  and  C11_15 
REMARK    6  A    between atoms: C11_15  and  C12_16 
ROOT
HETATM    1  C1  UNL     1      28.997   2.100  53.950  1.00  0.00     0.188 C 
HETATM    2  N1  UNL     1      27.778   1.912  53.166  1.00  0.00    -0.238 N 
HETATM    3  O1  UNL     1      27.639   2.548  51.941  1.00  0.00    -0.238 OA
HETATM    4  C2  UNL     1      26.471   2.355  51.211  1.00  0.00     0.081 A 
HETATM    5  C8  UNL     1      25.528   1.578  51.693  1.00  0.00     0.054 A 
HETATM    6  C9  UNL     1      25.665   0.917  52.957  1.00  0.00     0.060 A 
HETATM    7  C10 UNL     1      24.657   0.106  53.437  1.00  0.00     0.139 A 
HETATM    8  N3  UNL     1      24.873  -0.467  54.622  1.00  0.00    -0.224 NA
HETATM    9  C18 UNL     1      25.955  -0.340  55.390  1.00  0.00     0.237 A 
HETATM   10  N4  UNL     1      26.931   0.451  54.915  1.00  0.00    -0.222 NA
HETATM   11  C19 UNL     1      26.779   1.048  53.746  1.00  0.00     0.165 A 
ENDROOT
BRANCH   7  12
HETATM   12  N2  UNL     1      23.448  -0.151  52.766  1.00  0.00    -0.370 N 
HETATM   13  H11 UNL     1      23.612  -0.538  51.812  1.00  0.00     0.161 HD
BRANCH  12  14
HETATM   14  C11 UNL     1      22.011  -0.072  52.916  1.00  0.00     0.163 C 
BRANCH  14  15
HETATM   15  C12 UNL     1      21.349   0.398  51.672  1.00  0.00    -0.002 A 
HETATM   16  C13 UNL     1      22.160   0.924  50.667  1.00  0.00     0.012 A 
HETATM   17  C14 UNL     1      21.750   1.445  49.455  1.00  0.00     0.001 A 
HETATM   18  C15 UNL     1      20.395   1.435  49.233  1.00  0.00     0.003 A 
HETATM   19  C16 UNL     1      19.525   0.938  50.159  1.00  0.00     0.043 A 
HETATM   20  C17 UNL     1      20.011   0.429  51.359  1.00  0.00     0.124 A 
HETATM   21  F1  UNL     1      19.146  -0.085  52.252  1.00  0.00    -0.205 F 
ENDBRANCH  14  15
ENDBRANCH  12  14
ENDBRANCH   7  12
BRANCH   4  22
HETATM   22  C3  UNL     1      26.434   3.086  49.916  1.00  0.00     0.094 C 
BRANCH  22  23
HETATM   23  C4  UNL     1      25.051   3.447  49.519  1.00  0.00    -0.020 C 
HETATM   24  C5  UNL     1      24.414   4.509  49.959  1.00  0.00    -0.003 C 
BRANCH  24  25
HETATM   25  C6  UNL     1      23.081   4.989  49.669  1.00  0.00     0.011 C 
HETATM   26  C7  UNL     1      22.039   4.948  50.478  1.00  0.00     0.084 C 
HETATM   27 CL1  UNL     1      22.341   4.232  52.058  1.00  0.00    -0.097 Cl
ENDBRANCH  24  25
ENDBRANCH  22  23
ENDBRANCH   4  22
TORSDOF 6
ENDMDL
MODEL 2
REMARK VINA RESULT:      -7.7      3.577      6.853
REMARK  6 active torsions:
REMARK  status: ('A' for Active; 'I' for Inactive)
REMARK    1  A    between atoms: C2_4  and  C3_5 
REMARK    2  A    between atoms: C3_5  and  C4_6 
REMARK    3  A    between atoms: C5_7  and  C6_8 
REMARK    4  A    between atoms: C10_13  and  N2_14 
REMARK    5  A    between atoms: N2_14  and  C11_15 
REMARK    6  A    between atoms: C11_15  and  C12_16 
ROOT
HETATM    1  C1  UNL     1      22.888   4.488  48.144  1.00  0.00     0.188 C 
HETATM    2  N1  UNL     1      23.082   3.543  49.243  1.00  0.00    -0.238 N 
HETATM    3  O1  UNL     1      21.999   2.837  49.746  1.00  0.00    -0.238 OA
HETATM    4  C2  UNL     1      22.206   1.943  50.791  1.00  0.00     0.081 A 
HETATM    5  C8  UNL     1      23.416   1.786  51.279  1.00  0.00     0.054 A 
HETATM    6  C9  UNL     1      24.538   2.512  50.764  1.00  0.00     0.060 A 
HETATM    7  C10 UNL     1      25.797   2.326  51.296  1.00  0.00     0.139 A 
HETATM    8  N3  UNL     1      26.781   3.045  50.753  1.00  0.00    -0.224 NA
HETATM    9  C18 UNL     1      26.678   3.921  49.754  1.00  0.00     0.237 A 
HETATM   10  N4  UNL     1      25.449   4.096  49.243  1.00  0.00    -0.222 NA
HETATM   11  C19 UNL     1      24.431   3.414  49.736  1.00  0.00     0.165 A 
ENDROOT
BRANCH   7  12
HETATM   12  N2  UNL     1      26.100   1.441  52.347  1.00  0.00    -0.370 N 
HETATM   13  H11 UNL     1      25.463   0.616  52.350  1.00  0.00     0.161 HD
BRANCH  12  14
HETATM   14  C11 UNL     1      26.998   1.248  53.464  1.00  0.00     0.163 C 
BRANCH  14  15
HETATM   15  C12 UNL     1      27.779  -0.009  53.338  1.00  0.00    -0.002 A 
HETATM   16  C13 UNL     1      27.110  -1.141  52.873  1.00  0.00     0.012 A 
HETATM   17  C14 UNL     1      27.634  -2.409  52.715  1.00  0.00     0.001 A 
HETATM   18  C15 UNL     1      28.956  -2.552  53.055  1.00  0.00     0.003 A 
HETATM   19  C16 UNL     1      29.691  -1.499  53.517  1.00  0.00     0.043 A 
HETATM   20  C17 UNL     1      29.095  -0.249  53.651  1.00  0.00     0.124 A 
HETATM   21  F1  UNL     1      29.837   0.788  54.080  1.00  0.00    -0.205 F 
ENDBRANCH  14  15
ENDBRANCH  12  14
ENDBRANCH   7  12
BRANCH   4  22
HETATM   22  C3  UNL     1      20.974   1.244  51.249  1.00  0.00     0.094 C 
BRANCH  22  23
HETATM   23  C4  UNL     1      21.067   0.822  52.667  1.00  0.00    -0.020 C 
HETATM   24  C5  UNL     1      21.224  -0.425  53.053  1.00  0.00    -0.003 C 
BRANCH  24  25
HETATM   25  C6  UNL     1      21.330  -0.987  54.382  1.00  0.00     0.011 C 
HETATM   26  C7  UNL     1      22.441  -1.174  55.068  1.00  0.00     0.084 C 
HETATM   27 CL1  UNL     1      23.921  -0.677  54.254  1.00  0.00    -0.097 Cl
ENDBRANCH  24  25
ENDBRANCH  22  23
ENDBRANCH   4  22
TORSDOF 6
ENDMDL
MODEL 3
REMARK VINA RESULT:      -7.7      1.862      2.258
REMARK  6 active torsions:
REMARK  status: ('A' for Active; 'I' for Inactive)
REMARK    1  A    between atoms: C2_4  and  C3_5 
REMARK    2  A    between atoms: C3_5  and  C4_6 
REMARK    3  A    between atoms: C5_7  and  C6_8 
REMARK    4  A    between atoms: C10_13  and  N2_14 
REMARK    5  A    between atoms: N2_14  and  C11_15 
REMARK    6  A    between atoms: C11_15  and  C12_16 
ROOT
HETATM    1  C1  UNL     1      28.822   2.468  53.485  1.00  0.00     0.188 C 
HETATM    2  N1  UNL     1      27.542   2.178  52.841  1.00  0.00    -0.238 N 
HETATM    3  O1  UNL     1      27.216   2.796  51.643  1.00  0.00    -0.238 OA
HETATM    4  C2  UNL     1      25.994   2.505  51.047  1.00  0.00     0.081 A 
HETATM    5  C8  UNL     1      25.177   1.656  51.627  1.00  0.00     0.054 A 
HETATM    6  C9  UNL     1      25.507   1.014  52.864  1.00  0.00     0.060 A 
HETATM    7  C10 UNL     1      24.628   0.126  53.450  1.00  0.00     0.139 A 
HETATM    8  N3  UNL     1      25.021  -0.423  54.601  1.00  0.00    -0.224 NA
HETATM    9  C18 UNL     1      26.169  -0.205  55.244  1.00  0.00     0.237 A 
HETATM   10  N4  UNL     1      27.017   0.661  54.666  1.00  0.00    -0.222 NA
HETATM   11  C19 UNL     1      26.688   1.238  53.525  1.00  0.00     0.165 A 
ENDROOT
BRANCH   7  12
HETATM   12  N2  UNL     1      23.377  -0.232  52.917  1.00  0.00    -0.370 N 
HETATM   13  H11 UNL     1      23.469  -0.656  51.969  1.00  0.00     0.161 HD
BRANCH  12  14
HETATM   14  C11 UNL     1      21.960  -0.226  53.208  1.00  0.00     0.163 C 
BRANCH  14  15
HETATM   15  C12 UNL     1      21.155   0.208  52.037  1.00  0.00    -0.002 A 
HETATM   16  C13 UNL     1      21.841   0.712  50.933  1.00  0.00     0.012 A 
HETATM   17  C14 UNL     1      21.289   1.199  49.764  1.00  0.00     0.001 A 
HETATM   18  C15 UNL     1      19.918   1.174  49.699  1.00  0.00     0.003 A 
HETATM   19  C16 UNL     1      19.164   0.697  50.731  1.00  0.00     0.043 A 
HETATM   20  C17 UNL     1      19.790   0.222  51.879  1.00  0.00     0.124 A 
HETATM   21  F1  UNL     1      19.038  -0.273  52.879  1.00  0.00    -0.205 F 
ENDBRANCH  14  15
ENDBRANCH  12  14
ENDBRANCH   7  12
BRANCH   4  22
HETATM   22  C3  UNL     1      25.752   3.225  49.767  1.00  0.00     0.094 C 
BRANCH  22  23
HETATM   23  C4  UNL     1      26.955   3.960  49.305  1.00  0.00    -0.020 C 
HETATM   24  C5  UNL     1      26.923   5.165  48.782  1.00  0.00    -0.003 C 
BRANCH  24  25
HETATM   25  C6  UNL     1      27.996   6.001  48.290  1.00  0.00     0.011 C 
HETATM   26  C7  UNL     1      28.143   7.295  48.504  1.00  0.00     0.084 C 
HETATM   27 CL1  UNL     1      26.890   8.042  49.489  1.00  0.00    -0.097 Cl
ENDBRANCH  24  25
ENDBRANCH  22  23
ENDBRANCH   4  22
TORSDOF 6
ENDMDL
MODEL 4
REMARK VINA RESULT:      -7.7      3.019      6.031
REMARK  6 active torsions:
REMARK  status: ('A' for Active; 'I' for Inactive)
REMARK    1  A    between atoms: C2_4  and  C3_5 
REMARK    2  A    between atoms: C3_5  and  C4_6 
REMARK    3  A    between atoms: C5_7  and  C6_8 
REMARK    4  A    between atoms: C10_13  and  N2_14 
REMARK    5  A    between atoms: N2_14  and  C11_15 
REMARK    6  A    between atoms: C11_15  and  C12_16 
ROOT
HETATM    1  C1  UNL     1      25.407  -0.873  55.246  1.00  0.00     0.188 C 
HETATM    2  N1  UNL     1      25.155  -0.002  54.100  1.00  0.00    -0.238 N 
HETATM    3  O1  UNL     1      23.897   0.025  53.517  1.00  0.00    -0.238 OA
HETATM    4  C2  UNL     1      23.678   0.861  52.427  1.00  0.00     0.081 A 
HETATM    5  C8  UNL     1      24.661   1.605  51.974  1.00  0.00     0.054 A 
HETATM    6  C9  UNL     1      25.964   1.582  52.571  1.00  0.00     0.060 A 
HETATM    7  C10 UNL     1      26.977   2.374  52.072  1.00  0.00     0.139 A 
HETATM    8  N3  UNL     1      28.156   2.286  52.693  1.00  0.00    -0.224 NA
HETATM    9  C18 UNL     1      28.457   1.517  53.739  1.00  0.00     0.237 A 
HETATM   10  N4  UNL     1      27.464   0.749  54.216  1.00  0.00    -0.222 NA
HETATM   11  C19 UNL     1      26.273   0.790  53.647  1.00  0.00     0.165 A 
ENDROOT
BRANCH   7  12
HETATM   12  N2  UNL     1      26.845   3.252  50.981  1.00  0.00    -0.370 N 
HETATM   13  H11 UNL     1      26.998   4.243  51.265  1.00  0.00     0.161 HD
BRANCH  12  14
HETATM   14  C11 UNL     1      26.564   3.288  49.563  1.00  0.00     0.163 C 
BRANCH  14  15
HETATM   15  C12 UNL     1      26.731   4.651  48.999  1.00  0.00    -0.002 A 
HETATM   16  C13 UNL     1      28.016   5.039  48.616  1.00  0.00     0.012 A 
HETATM   17  C14 UNL     1      28.395   6.264  48.104  1.00  0.00     0.001 A 
HETATM   18  C15 UNL     1      27.389   7.187  47.963  1.00  0.00     0.003 A 
HETATM   19  C16 UNL     1      26.102   6.896  48.311  1.00  0.00     0.043 A 
HETATM   20  C17 UNL     1      25.793   5.639  48.820  1.00  0.00     0.124 A 
HETATM   21  F1  UNL     1      24.516   5.353  49.131  1.00  0.00    -0.205 F 
ENDBRANCH  14  15
ENDBRANCH  12  14
ENDBRANCH   7  12
BRANCH   4  22
HETATM   22  C3  UNL     1      22.293   0.807  51.885  1.00  0.00     0.094 C 
BRANCH  22  23
HETATM   23  C4  UNL     1      21.388   0.006  52.746  1.00  0.00    -0.020 C 
HETATM   24  C5  UNL     1      20.090  -0.084  52.562  1.00  0.00    -0.003 C 
BRANCH  24  25
HETATM   25  C6  UNL     1      19.087  -0.814  53.306  1.00  0.00     0.011 C 
HETATM   26  C7  UNL     1      17.854  -1.074  52.914  1.00  0.00     0.084 C 
HETATM   27 CL1  UNL     1      17.423  -0.454  51.324  1.00  0.00    -0.097 Cl
ENDBRANCH  24  25
ENDBRANCH  22  23
ENDBRANCH   4  22
TORSDOF 6
ENDMDL
MODEL 5
REMARK VINA RESULT:      -7.7      2.611      4.618
REMARK  6 active torsions:
REMARK  status: ('A' for Active; 'I' for Inactive)
REMARK    1  A    between atoms: C2_4  and  C3_5 
REMARK    2  A    between atoms: C3_5  and  C4_6 
REMARK    3  A    between atoms: C5_7  and  C6_8 
REMARK    4  A    between atoms: C10_13  and  N2_14 
REMARK    5  A    between atoms: N2_14  and  C11_15 
REMARK    6  A    between atoms: C11_15  and  C12_16 
ROOT
HETATM    1  C1  UNL     1      25.635  -0.932  55.483  1.00  0.00     0.188 C 
HETATM    2  N1  UNL     1      25.320  -0.077  54.340  1.00  0.00    -0.238 N 
HETATM    3  O1  UNL     1      24.050  -0.109  53.782  1.00  0.00    -0.238 OA
HETATM    4  C2  UNL     1      23.772   0.712  52.695  1.00  0.00     0.081 A 
HETATM    5  C8  UNL     1      24.711   1.499  52.221  1.00  0.00     0.054 A 
HETATM    6  C9  UNL     1      26.024   1.537  52.792  1.00  0.00     0.060 A 
HETATM    7  C10 UNL     1      26.990   2.373  52.271  1.00  0.00     0.139 A 
HETATM    8  N3  UNL     1      28.184   2.341  52.868  1.00  0.00    -0.224 NA
HETATM    9  C18 UNL     1      28.541   1.590  53.910  1.00  0.00     0.237 A 
HETATM   10  N4  UNL     1      27.594   0.779  54.409  1.00  0.00    -0.222 NA
HETATM   11  C19 UNL     1      26.391   0.763  53.864  1.00  0.00     0.165 A 
ENDROOT
BRANCH   7  12
HETATM   12  N2  UNL     1      26.797   3.241  51.181  1.00  0.00    -0.370 N 
HETATM   13  H11 UNL     1      26.701   4.232  51.491  1.00  0.00     0.161 HD
BRANCH  12  14
HETATM   14  C11 UNL     1      26.676   3.266  49.740  1.00  0.00     0.163 C 
BRANCH  14  15
HETATM   15  C12 UNL     1      25.502   4.061  49.296  1.00  0.00    -0.002 A 
HETATM   16  C13 UNL     1      24.302   3.381  49.090  1.00  0.00     0.012 A 
HETATM   17  C14 UNL     1      23.108   3.918  48.648  1.00  0.00     0.001 A 
HETATM   18  C15 UNL     1      23.123   5.266  48.389  1.00  0.00     0.003 A 
HETATM   19  C16 UNL     1      24.252   6.012  48.563  1.00  0.00     0.043 A 
HETATM   20  C17 UNL     1      25.419   5.403  49.013  1.00  0.00     0.124 A 
HETATM   21  F1  UNL     1      26.518   6.154  49.209  1.00  0.00    -0.205 F 
ENDBRANCH  14  15
ENDBRANCH  12  14
ENDBRANCH   7  12
BRANCH   4  22
HETATM   22  C3  UNL     1      22.380   0.593  52.181  1.00  0.00     0.094 C 
BRANCH  22  23
HETATM   23  C4  UNL     1      21.915   1.844  51.534  1.00  0.00    -0.020 C 
HETATM   24  C5  UNL     1      21.376   2.851  52.185  1.00  0.00    -0.003 C 
BRANCH  24  25
HETATM   25  C6  UNL     1      20.880   4.120  51.701  1.00  0.00     0.011 C 
HETATM   26  C7  UNL     1      21.564   5.244  51.601  1.00  0.00     0.084 C 
HETATM   27 CL1  UNL     1      23.245   5.149  52.118  1.00  0.00    -0.097 Cl
ENDBRANCH  24  25
ENDBRANCH  22  23
ENDBRANCH   4  22
TORSDOF 6
ENDMDL
MODEL 6
REMARK VINA RESULT:      -7.6      3.071      6.102
REMARK  6 active torsions:
REMARK  status: ('A' for Active; 'I' for Inactive)
REMARK    1  A    between atoms: C2_4  and  C3_5 
REMARK    2  A    between atoms: C3_5  and  C4_6 
REMARK    3  A    between atoms: C5_7  and  C6_8 
REMARK    4  A    between atoms: C10_13  and  N2_14 
REMARK    5  A    between atoms: N2_14  and  C11_15 
REMARK    6  A    between atoms: C11_15  and  C12_16 
ROOT
HETATM    1  C1  UNL     1      18.948   0.973  51.604  1.00  0.00     0.188 C 
HETATM    2  N1  UNL     1      20.399   1.150  51.575  1.00  0.00    -0.238 N 
HETATM    3  O1  UNL     1      20.964   2.083  50.718  1.00  0.00    -0.238 OA
HETATM    4  C2  UNL     1      22.346   2.236  50.707  1.00  0.00     0.081 A 
HETATM    5  C8  UNL     1      23.085   1.499  51.503  1.00  0.00     0.054 A 
HETATM    6  C9  UNL     1      22.509   0.533  52.391  1.00  0.00     0.060 A 
HETATM    7  C10 UNL     1      23.312  -0.227  53.216  1.00  0.00     0.139 A 
HETATM    8  N3  UNL     1      22.687  -1.100  54.009  1.00  0.00    -0.224 NA
HETATM    9  C18 UNL     1      21.374  -1.315  54.087  1.00  0.00     0.237 A 
HETATM   10  N4  UNL     1      20.600  -0.571  53.280  1.00  0.00    -0.222 NA
HETATM   11  C19 UNL     1      21.158   0.313  52.472  1.00  0.00     0.165 A 
ENDROOT
BRANCH   7  12
HETATM   12  N2  UNL     1      24.714  -0.136  53.276  1.00  0.00    -0.370 N 
HETATM   13  H11 UNL     1      25.024   0.549  53.998  1.00  0.00     0.161 HD
BRANCH  12  14
HETATM   14  C11 UNL     1      25.926  -0.658  52.683  1.00  0.00     0.163 C 
BRANCH  14  15
HETATM   15  C12 UNL     1      27.125   0.113  53.102  1.00  0.00    -0.002 A 
HETATM   16  C13 UNL     1      26.999   1.498  53.202  1.00  0.00     0.012 A 
HETATM   17  C14 UNL     1      27.991   2.400  53.539  1.00  0.00     0.001 A 
HETATM   18  C15 UNL     1      29.224   1.857  53.800  1.00  0.00     0.003 A 
HETATM   19  C16 UNL     1      29.439   0.511  53.728  1.00  0.00     0.043 A 
HETATM   20  C17 UNL     1      28.393  -0.337  53.383  1.00  0.00     0.124 A 
HETATM   21  F1  UNL     1      28.609  -1.664  53.344  1.00  0.00    -0.205 F 
ENDBRANCH  14  15
ENDBRANCH  12  14
ENDBRANCH   7  12
BRANCH   4  22
HETATM   22  C3  UNL     1      22.838   3.264  49.749  1.00  0.00     0.094 C 
BRANCH  22  23
HETATM   23  C4  UNL     1      24.248   3.030  49.355  1.00  0.00    -0.020 C 
HETATM   24  C5  UNL     1      25.262   3.739  49.801  1.00  0.00    -0.003 C 
BRANCH  24  25
HETATM   25  C6  UNL     1      26.676   3.634  49.513  1.00  0.00     0.011 C 
HETATM   26  C7  UNL     1      27.426   4.546  48.925  1.00  0.00     0.084 C 
HETATM   27 CL1  UNL     1      26.588   6.022  48.457  1.00  0.00    -0.097 Cl
ENDBRANCH  24  25
ENDBRANCH  22  23
ENDBRANCH   4  22
TORSDOF 6
ENDMDL
MODEL 7
REMARK VINA RESULT:      -7.5      2.354      4.432
REMARK  6 active torsions:
REMARK  status: ('A' for Active; 'I' for Inactive)
REMARK    1  A    between atoms: C2_4  and  C3_5 
REMARK    2  A    between atoms: C3_5  and  C4_6 
REMARK    3  A    between atoms: C5_7  and  C6_8 
REMARK    4  A    between atoms: C10_13  and  N2_14 
REMARK    5  A    between atoms: N2_14  and  C11_15 
REMARK    6  A    between atoms: C11_15  and  C12_16 
ROOT
HETATM    1  C1  UNL     1      23.566  -1.619  55.729  1.00  0.00     0.188 C 
HETATM    2  N1  UNL     1      23.684  -0.849  54.492  1.00  0.00    -0.238 N 
HETATM    3  O1  UNL     1      22.568  -0.647  53.694  1.00  0.00    -0.238 OA
HETATM    4  C2  UNL     1      22.703   0.089  52.522  1.00  0.00     0.081 A 
HETATM    5  C8  UNL     1      23.879   0.577  52.196  1.00  0.00     0.054 A 
HETATM    6  C9  UNL     1      25.036   0.373  53.015  1.00  0.00     0.060 A 
HETATM    7  C10 UNL     1      26.257   0.897  52.646  1.00  0.00     0.139 A 
HETATM    8  N3  UNL     1      27.278   0.656  53.472  1.00  0.00    -0.224 NA
HETATM    9  C18 UNL     1      27.243  -0.036  54.610  1.00  0.00     0.237 A 
HETATM   10  N4  UNL     1      26.050  -0.543  54.961  1.00  0.00    -0.222 NA
HETATM   11  C19 UNL     1      24.999  -0.339  54.187  1.00  0.00     0.165 A 
ENDROOT
BRANCH   7  12
HETATM   12  N2  UNL     1      26.485   1.658  51.485  1.00  0.00    -0.370 N 
HETATM   13  H11 UNL     1      26.681   1.051  50.660  1.00  0.00     0.161 HD
BRANCH  12  14
HETATM   14  C11 UNL     1      26.553   3.017  50.997  1.00  0.00     0.163 C 
BRANCH  14  15
HETATM   15  C12 UNL     1      25.204   3.578  50.726  1.00  0.00    -0.002 A 
HETATM   16  C13 UNL     1      24.858   3.814  49.396  1.00  0.00     0.012 A 
HETATM   17  C14 UNL     1      23.677   4.358  48.929  1.00  0.00     0.001 A 
HETATM   18  C15 UNL     1      22.758   4.696  49.891  1.00  0.00     0.003 A 
HETATM   19  C16 UNL     1      23.010   4.500  51.218  1.00  0.00     0.043 A 
HETATM   20  C17 UNL     1      24.222   3.946  51.614  1.00  0.00     0.124 A 
HETATM   21  F1  UNL     1      24.448   3.730  52.923  1.00  0.00    -0.205 F 
ENDBRANCH  14  15
ENDBRANCH  12  14
ENDBRANCH   7  12
BRANCH   4  22
HETATM   22  C3  UNL     1      21.441   0.240  51.747  1.00  0.00     0.094 C 
BRANCH  22  23
HETATM   23  C4  UNL     1      21.590   1.189  50.617  1.00  0.00    -0.020 C 
HETATM   24  C5  UNL     1      21.241   0.917  49.379  1.00  0.00    -0.003 C 
BRANCH  24  25
HETATM   25  C6  UNL     1      21.324   1.728  48.184  1.00  0.00     0.011 C 
HETATM   26  C7  UNL     1      20.444   2.626  47.784  1.00  0.00     0.084 C 
HETATM   27 CL1  UNL     1      19.046   2.830  48.834  1.00  0.00    -0.097 Cl
ENDBRANCH  24  25
ENDBRANCH  22  23
ENDBRANCH   4  22
TORSDOF 6
ENDMDL
MODEL 8
REMARK VINA RESULT:      -7.4      3.339      5.692
REMARK  6 active torsions:
REMARK  status: ('A' for Active; 'I' for Inactive)
REMARK    1  A    between atoms: C2_4  and  C3_5 
REMARK    2  A    between atoms: C3_5  and  C4_6 
REMARK    3  A    between atoms: C5_7  and  C6_8 
REMARK    4  A    between atoms: C10_13  and  N2_14 
REMARK    5  A    between atoms: N2_14  and  C11_15 
REMARK    6  A    between atoms: C11_15  and  C12_16 
ROOT
HETATM    1  C1  UNL     1      25.735   6.863  49.466  1.00  0.00     0.188 C 
HETATM    2  N1  UNL     1      25.258   5.637  50.105  1.00  0.00    -0.238 N 
HETATM    3  O1  UNL     1      26.114   4.555  50.248  1.00  0.00    -0.238 OA
HETATM    4  C2  UNL     1      25.640   3.399  50.859  1.00  0.00     0.081 A 
HETATM    5  C8  UNL     1      24.399   3.355  51.287  1.00  0.00     0.054 A 
HETATM    6  C9  UNL     1      23.510   4.469  51.143  1.00  0.00     0.060 A 
HETATM    7  C10 UNL     1      22.211   4.393  51.602  1.00  0.00     0.139 A 
HETATM    8  N3  UNL     1      21.457   5.480  51.424  1.00  0.00    -0.224 NA
HETATM    9  C18 UNL     1      21.823   6.626  50.852  1.00  0.00     0.237 A 
HETATM   10  N4  UNL     1      23.088   6.691  50.407  1.00  0.00    -0.222 NA
HETATM   11  C19 UNL     1      23.887   5.649  50.554  1.00  0.00     0.165 A 
ENDROOT
BRANCH   7  12
HETATM   12  N2  UNL     1      21.650   3.270  52.236  1.00  0.00    -0.370 N 
HETATM   13  H11 UNL     1      21.589   3.402  53.268  1.00  0.00     0.161 HD
BRANCH  12  14
HETATM   14  C11 UNL     1      21.110   1.954  51.976  1.00  0.00     0.163 C 
BRANCH  14  15
HETATM   15  C12 UNL     1      21.728   0.919  52.844  1.00  0.00    -0.002 A 
HETATM   16  C13 UNL     1      20.993   0.476  53.944  1.00  0.00     0.012 A 
HETATM   17  C14 UNL     1      21.392  -0.447  54.891  1.00  0.00     0.001 A 
HETATM   18  C15 UNL     1      22.646  -0.976  54.715  1.00  0.00     0.003 A 
HETATM   19  C16 UNL     1      23.435  -0.603  53.666  1.00  0.00     0.043 A 
HETATM   20  C17 UNL     1      22.967   0.334  52.750  1.00  0.00     0.124 A 
HETATM   21  F1  UNL     1      23.742   0.672  51.704  1.00  0.00    -0.205 F 
ENDBRANCH  14  15
ENDBRANCH  12  14
ENDBRANCH   7  12
BRANCH   4  22
HETATM   22  C3  UNL     1      26.645   2.306  50.957  1.00  0.00     0.094 C 
BRANCH  22  23
HETATM   23  C4  UNL     1      26.964   1.966  52.365  1.00  0.00    -0.020 C 
HETATM   24  C5  UNL     1      27.039   0.737  52.825  1.00  0.00    -0.003 C 
BRANCH  24  25
HETATM   25  C6  UNL     1      27.335   0.251  54.155  1.00  0.00     0.011 C 
HETATM   26  C7  UNL     1      28.521  -0.098  54.616  1.00  0.00     0.084 C 
HETATM   27 CL1  UNL     1      29.849   0.055  53.470  1.00  0.00    -0.097 Cl
ENDBRANCH  24  25
ENDBRANCH  22  23
ENDBRANCH   4  22
TORSDOF 6
ENDMDL
MODEL 9
REMARK VINA RESULT:      -7.2      2.730      4.816
REMARK  6 active torsions:
REMARK  status: ('A' for Active; 'I' for Inactive)
REMARK    1  A    between atoms: C2_4  and  C3_5 
REMARK    2  A    between atoms: C3_5  and  C4_6 
REMARK    3  A    between atoms: C5_7  and  C6_8 
REMARK    4  A    between atoms: C10_13  and  N2_14 
REMARK    5  A    between atoms: N2_14  and  C11_15 
REMARK    6  A    between atoms: C11_15  and  C12_16 
ROOT
HETATM    1  C1  UNL     1      27.088  -1.272  53.000  1.00  0.00     0.188 C 
HETATM    2  N1  UNL     1      25.826  -0.543  53.107  1.00  0.00    -0.238 N 
HETATM    3  O1  UNL     1      24.757  -1.108  53.787  1.00  0.00    -0.238 OA
HETATM    4  C2  UNL     1      23.565  -0.397  53.877  1.00  0.00     0.081 A 
HETATM    5  C8  UNL     1      23.476   0.789  53.320  1.00  0.00     0.054 A 
HETATM    6  C9  UNL     1      24.575   1.379  52.617  1.00  0.00     0.060 A 
HETATM    7  C10 UNL     1      24.451   2.627  52.042  1.00  0.00     0.139 A 
HETATM    8  N3  UNL     1      25.527   3.096  51.408  1.00  0.00    -0.224 NA
HETATM    9  C18 UNL     1      26.706   2.489  51.271  1.00  0.00     0.237 A 
HETATM   10  N4  UNL     1      26.818   1.274  51.833  1.00  0.00    -0.222 NA
HETATM   11  C19 UNL     1      25.788   0.754  52.476  1.00  0.00     0.165 A 
ENDROOT
BRANCH   7  12
HETATM   12  N2  UNL     1      23.289   3.418  52.088  1.00  0.00    -0.370 N 
HETATM   13  H11 UNL     1      23.307   4.081  52.893  1.00  0.00     0.161 HD
BRANCH  12  14
HETATM   14  C11 UNL     1      22.035   3.659  51.410  1.00  0.00     0.163 C 
BRANCH  14  15
HETATM   15  C12 UNL     1      22.048   3.137  50.019  1.00  0.00    -0.002 A 
HETATM   16  C13 UNL     1      22.239   4.056  48.987  1.00  0.00     0.012 A 
HETATM   17  C14 UNL     1      22.251   3.791  47.631  1.00  0.00     0.001 A 
HETATM   18  C15 UNL     1      22.053   2.478  47.280  1.00  0.00     0.003 A 
HETATM   19  C16 UNL     1      21.858   1.511  48.223  1.00  0.00     0.043 A 
HETATM   20  C17 UNL     1      21.859   1.852  49.571  1.00  0.00     0.124 A 
HETATM   21  F1  UNL     1      21.696   0.885  50.492  1.00  0.00    -0.205 F 
ENDBRANCH  14  15
ENDBRANCH  12  14
ENDBRANCH   7  12
BRANCH   4  22
HETATM   22  C3  UNL     1      22.490  -1.102  54.628  1.00  0.00     0.094 C 
BRANCH  22  23
HETATM   23  C4  UNL     1      21.152  -0.520  54.363  1.00  0.00    -0.020 C 
HETATM   24  C5  UNL     1      20.381  -0.879  53.360  1.00  0.00    -0.003 C 
BRANCH  24  25
HETATM   25  C6  UNL     1      19.069  -0.411  52.974  1.00  0.00     0.011 C 
HETATM   26  C7  UNL     1      17.934  -1.075  53.087  1.00  0.00     0.084 C 
HETATM   27 CL1  UNL     1      18.073  -2.688  53.780  1.00  0.00    -0.097 Cl
ENDBRANCH  24  25
ENDBRANCH  22  23
ENDBRANCH   4  22
TORSDOF 6
ENDMDL
