MODEL 1
REMARK VINA RESULT:      -8.3      0.000      0.000
REMARK  8 active torsions:
REMARK  status: ('A' for Active; 'I' for Inactive)
REMARK    1  A    between atoms: C6_6  and  C7_7 
REMARK    2  A    between atoms: C7_7  and  N1_8 
REMARK    3  A    between atoms: N1_8  and  C8_9 
REMARK    4  A    between atoms: N1_8  and  C14_16 
REMARK    5  A    between atoms: C8_9  and  C9_10 
REMARK    6  A    between atoms: C14_16  and  N2_18 
REMARK    7  A    between atoms: N2_18  and  C15_19 
REMARK    8  A    between atoms: C21_25  and  O1_26 
ROOT
HETATM    1  N1  UNL     1      25.182   0.282  53.015  1.00  0.00    -0.349 N 
ENDROOT
BRANCH   1   2
HETATM    2  C7  UNL     1      25.408   1.736  53.123  1.00  0.00     0.167 C 
BRANCH   2   3
HETATM    3  C6  UNL     1      25.213   2.390  51.803  1.00  0.00    -0.007 A 
HETATM    4  C5  UNL     1      23.964   2.431  51.191  1.00  0.00     0.011 A 
HETATM    5  C4  UNL     1      23.697   3.017  49.969  1.00  0.00     0.001 A 
HETATM    6  C3  UNL     1      24.766   3.607  49.313  1.00  0.00     0.009 A 
HETATM    7  C2  UNL     1      26.028   3.589  49.889  1.00  0.00    -0.028 A 
HETATM    8  C1  UNL     1      27.086   4.252  49.090  1.00  0.00     0.051 C 
HETATM    9  C21 UNL     1      26.248   2.999  51.097  1.00  0.00     0.079 A 
BRANCH   9  10
HETATM   10  O1  UNL     1      27.527   3.000  51.643  1.00  0.00    -0.360 OA
HETATM   11  H19 UNL     1      28.274   2.690  51.038  1.00  0.00     0.217 HD
ENDBRANCH   9  10
ENDBRANCH   2   3
ENDBRANCH   1   2
BRANCH   1  12
HETATM   12  C8  UNL     1      26.184  -0.167  52.128  1.00  0.00     0.165 C 
BRANCH  12  13
HETATM   13  C9  UNL     1      27.303  -0.956  52.693  1.00  0.00    -0.026 C 
HETATM   14  C10 UNL     1      28.353  -0.505  53.363  1.00  0.00     0.024 C 
HETATM   15  C11 UNL     1      29.342  -1.346  53.479  1.00  0.00     0.128 C 
HETATM   16  F1  UNL     1      30.621  -1.059  53.832  1.00  0.00    -0.205 F 
HETATM   17  C12 UNL     1      28.794  -2.656  53.151  1.00  0.00     0.044 C 
HETATM   18  C13 UNL     1      27.579  -2.414  52.684  1.00  0.00     0.013 C 
ENDBRANCH  12  13
ENDBRANCH   1  12
BRANCH   1  19
HETATM   19  C14 UNL     1      24.179  -0.471  53.682  1.00  0.00     0.174 C 
HETATM   20  S1  UNL     1      24.636  -1.000  55.154  1.00  0.00    -0.041 SA
BRANCH  19  21
HETATM   21  N2  UNL     1      22.893  -0.734  53.172  1.00  0.00    -0.333 N 
HETATM   22  H13 UNL     1      22.641  -1.739  53.288  1.00  0.00     0.168 HD
BRANCH  21  23
HETATM   23  C15 UNL     1      21.925   0.058  52.561  1.00  0.00     0.034 A 
HETATM   24  C16 UNL     1      21.299   1.068  53.301  1.00  0.00     0.029 A 
HETATM   25  C17 UNL     1      20.340   1.895  52.790  1.00  0.00     0.002 A 
HETATM   26  C18 UNL     1      19.960   1.738  51.481  1.00  0.00     0.000 A 
HETATM   27  C19 UNL     1      20.525   0.769  50.680  1.00  0.00     0.002 A 
HETATM   28  C20 UNL     1      21.485  -0.019  51.281  1.00  0.00     0.029 A 
ENDBRANCH  21  23
ENDBRANCH  19  21
ENDBRANCH   1  19
TORSDOF 8
ENDMDL
MODEL 2
REMARK VINA RESULT:      -8.2      2.662      5.452
REMARK  8 active torsions:
REMARK  status: ('A' for Active; 'I' for Inactive)
REMARK    1  A    between atoms: C6_6  and  C7_7 
REMARK    2  A    between atoms: C7_7  and  N1_8 
REMARK    3  A    between atoms: N1_8  and  C8_9 
REMARK    4  A    between atoms: N1_8  and  C14_16 
REMARK    5  A    between atoms: C8_9  and  C9_10 
REMARK    6  A    between atoms: C14_16  and  N2_18 
REMARK    7  A    between atoms: N2_18  and  C15_19 
REMARK    8  A    between atoms: C21_25  and  O1_26 
ROOT
HETATM    1  N1  UNL     1      25.606   2.555  51.465  1.00  0.00    -0.349 N 
ENDROOT
BRANCH   1   2
HETATM    2  C7  UNL     1      26.788   2.515  52.347  1.00  0.00     0.167 C 
BRANCH   2   3
HETATM    3  C6  UNL     1      27.217   1.110  52.574  1.00  0.00    -0.007 A 
HETATM    4  C5  UNL     1      26.376   0.040  52.290  1.00  0.00     0.011 A 
HETATM    5  C4  UNL     1      26.695  -1.292  52.471  1.00  0.00     0.001 A 
HETATM    6  C3  UNL     1      27.956  -1.569  52.975  1.00  0.00     0.009 A 
HETATM    7  C2  UNL     1      28.827  -0.530  53.272  1.00  0.00    -0.028 A 
HETATM    8  C1  UNL     1      30.143  -0.954  53.804  1.00  0.00     0.051 C 
HETATM    9  C21 UNL     1      28.472   0.771  53.078  1.00  0.00     0.079 A 
BRANCH   9  10
HETATM   10  O1  UNL     1      29.370   1.786  53.388  1.00  0.00    -0.360 OA
HETATM   11  H19 UNL     1      30.318   1.660  53.066  1.00  0.00     0.217 HD
ENDBRANCH   9  10
ENDBRANCH   2   3
ENDBRANCH   1   2
BRANCH   1  12
HETATM   12  C8  UNL     1      26.140   2.570  50.159  1.00  0.00     0.165 C 
BRANCH  12  13
HETATM   13  C9  UNL     1      26.258   3.880  49.476  1.00  0.00    -0.026 C 
HETATM   14  C10 UNL     1      27.333   4.396  48.899  1.00  0.00     0.024 C 
HETATM   15  C11 UNL     1      27.270   5.673  48.649  1.00  0.00     0.128 C 
HETATM   16  F1  UNL     1      28.306   6.501  48.358  1.00  0.00    -0.205 F 
HETATM   17  C12 UNL     1      25.860   6.031  48.747  1.00  0.00     0.044 C 
HETATM   18  C13 UNL     1      25.265   4.957  49.240  1.00  0.00     0.013 C 
ENDBRANCH  12  13
ENDBRANCH   1  12
BRANCH   1  19
HETATM   19  C14 UNL     1      24.246   2.561  51.873  1.00  0.00     0.174 C 
HETATM   20  S1  UNL     1      23.731   4.016  52.396  1.00  0.00    -0.041 SA
BRANCH  19  21
HETATM   21  N2  UNL     1      23.383   1.449  51.823  1.00  0.00    -0.333 N 
HETATM   22  H13 UNL     1      23.220   1.142  50.840  1.00  0.00     0.168 HD
BRANCH  21  23
HETATM   23  C15 UNL     1      22.724   0.705  52.797  1.00  0.00     0.034 A 
HETATM   24  C16 UNL     1      21.395   1.011  53.114  1.00  0.00     0.029 A 
HETATM   25  C17 UNL     1      20.667   0.338  54.053  1.00  0.00     0.002 A 
HETATM   26  C18 UNL     1      21.258  -0.698  54.731  1.00  0.00     0.000 A 
HETATM   27  C19 UNL     1      22.563  -1.068  54.482  1.00  0.00     0.002 A 
HETATM   28  C20 UNL     1      23.220  -0.332  53.517  1.00  0.00     0.029 A 
ENDBRANCH  21  23
ENDBRANCH  19  21
ENDBRANCH   1  19
TORSDOF 8
ENDMDL
MODEL 3
REMARK VINA RESULT:      -8.1      3.113      6.333
REMARK  8 active torsions:
REMARK  status: ('A' for Active; 'I' for Inactive)
REMARK    1  A    between atoms: C6_6  and  C7_7 
REMARK    2  A    between atoms: C7_7  and  N1_8 
REMARK    3  A    between atoms: N1_8  and  C8_9 
REMARK    4  A    between atoms: N1_8  and  C14_16 
REMARK    5  A    between atoms: C8_9  and  C9_10 
REMARK    6  A    between atoms: C14_16  and  N2_18 
REMARK    7  A    between atoms: N2_18  and  C15_19 
REMARK    8  A    between atoms: C21_25  and  O1_26 
ROOT
HETATM    1  N1  UNL     1      24.627   2.017  52.130  1.00  0.00    -0.349 N 
ENDROOT
BRANCH   1   2
HETATM    2  C7  UNL     1      25.573   0.999  51.633  1.00  0.00     0.167 C 
BRANCH   2   3
HETATM    3  C6  UNL     1      26.843   1.055  52.401  1.00  0.00    -0.007 A 
HETATM    4  C5  UNL     1      27.394   2.266  52.806  1.00  0.00     0.011 A 
HETATM    5  C4  UNL     1      28.567   2.406  53.521  1.00  0.00     0.001 A 
HETATM    6  C3  UNL     1      29.238   1.240  53.855  1.00  0.00     0.009 A 
HETATM    7  C2  UNL     1      28.723   0.011  53.470  1.00  0.00    -0.028 A 
HETATM    8  C1  UNL     1      29.531  -1.160  53.887  1.00  0.00     0.051 C 
HETATM    9  C21 UNL     1      27.562  -0.083  52.765  1.00  0.00     0.079 A 
BRANCH   9  10
HETATM   10  O1  UNL     1      27.076  -1.332  52.396  1.00  0.00    -0.360 OA
HETATM   11  H19 UNL     1      26.985  -1.504  51.405  1.00  0.00     0.217 HD
ENDBRANCH   9  10
ENDBRANCH   2   3
ENDBRANCH   1   2
BRANCH   1  12
HETATM   12  C8  UNL     1      24.174   1.506  53.365  1.00  0.00     0.165 C 
BRANCH  12  13
HETATM   13  C9  UNL     1      23.079   0.508  53.340  1.00  0.00    -0.026 C 
HETATM   14  C10 UNL     1      21.878   0.638  52.797  1.00  0.00     0.024 C 
HETATM   15  C11 UNL     1      20.997  -0.244  53.174  1.00  0.00     0.128 C 
HETATM   16  F1  UNL     1      19.650  -0.170  53.025  1.00  0.00    -0.205 F 
HETATM   17  C12 UNL     1      21.755  -1.327  53.791  1.00  0.00     0.044 C 
HETATM   18  C13 UNL     1      22.993  -0.870  53.885  1.00  0.00     0.013 C 
ENDBRANCH  12  13
ENDBRANCH   1  12
BRANCH   1  19
HETATM   19  C14 UNL     1      24.282   3.237  51.489  1.00  0.00     0.174 C 
HETATM   20  S1  UNL     1      23.510   4.288  52.466  1.00  0.00    -0.041 SA
BRANCH  19  21
HETATM   21  N2  UNL     1      24.583   3.559  50.152  1.00  0.00    -0.333 N 
HETATM   22  H13 UNL     1      23.974   3.030  49.490  1.00  0.00     0.168 HD
BRANCH  21  23
HETATM   23  C15 UNL     1      25.503   4.418  49.558  1.00  0.00     0.034 A 
HETATM   24  C16 UNL     1      26.798   3.956  49.288  1.00  0.00     0.029 A 
HETATM   25  C17 UNL     1      27.768   4.722  48.709  1.00  0.00     0.002 A 
HETATM   26  C18 UNL     1      27.473   6.018  48.368  1.00  0.00     0.000 A 
HETATM   27  C19 UNL     1      26.223   6.555  48.598  1.00  0.00     0.002 A 
HETATM   28  C20 UNL     1      25.307   5.707  49.186  1.00  0.00     0.029 A 
ENDBRANCH  21  23
ENDBRANCH  19  21
ENDBRANCH   1  19
TORSDOF 8
ENDMDL
MODEL 4
REMARK VINA RESULT:      -8.1      1.832      2.639
REMARK  8 active torsions:
REMARK  status: ('A' for Active; 'I' for Inactive)
REMARK    1  A    between atoms: C6_6  and  C7_7 
REMARK    2  A    between atoms: C7_7  and  N1_8 
REMARK    3  A    between atoms: N1_8  and  C8_9 
REMARK    4  A    between atoms: N1_8  and  C14_16 
REMARK    5  A    between atoms: C8_9  and  C9_10 
REMARK    6  A    between atoms: C14_16  and  N2_18 
REMARK    7  A    between atoms: N2_18  and  C15_19 
REMARK    8  A    between atoms: C21_25  and  O1_26 
ROOT
HETATM    1  N1  UNL     1      25.962   2.206  51.643  1.00  0.00    -0.349 N 
ENDROOT
BRANCH   1   2
HETATM    2  C7  UNL     1      26.334   2.325  50.221  1.00  0.00     0.167 C 
BRANCH   2   3
HETATM    3  C6  UNL     1      25.787   3.581  49.645  1.00  0.00    -0.007 A 
HETATM    4  C5  UNL     1      24.427   3.733  49.399  1.00  0.00     0.011 A 
HETATM    5  C4  UNL     1      23.837   4.864  48.868  1.00  0.00     0.001 A 
HETATM    6  C3  UNL     1      24.679   5.922  48.562  1.00  0.00     0.009 A 
HETATM    7  C2  UNL     1      26.042   5.812  48.794  1.00  0.00    -0.028 A 
HETATM    8  C1  UNL     1      26.834   7.009  48.426  1.00  0.00     0.051 C 
HETATM    9  C21 UNL     1      26.583   4.677  49.319  1.00  0.00     0.079 A 
BRANCH   9  10
HETATM   10  O1  UNL     1      27.954   4.602  49.536  1.00  0.00    -0.360 OA
HETATM   11  H19 UNL     1      28.462   5.474  49.505  1.00  0.00     0.217 HD
ENDBRANCH   9  10
ENDBRANCH   2   3
ENDBRANCH   1   2
BRANCH   1  12
HETATM   12  C8  UNL     1      27.192   2.227  52.334  1.00  0.00     0.165 C 
BRANCH  12  13
HETATM   13  C9  UNL     1      27.735   0.936  52.817  1.00  0.00    -0.026 C 
HETATM   14  C10 UNL     1      28.856   0.732  53.492  1.00  0.00     0.024 C 
HETATM   15  C11 UNL     1      29.268  -0.503  53.527  1.00  0.00     0.128 C 
HETATM   16  F1  UNL     1      30.506  -0.943  53.869  1.00  0.00    -0.205 F 
HETATM   17  C12 UNL     1      28.128  -1.317  53.122  1.00  0.00     0.044 C 
HETATM   18  C13 UNL     1      27.220  -0.451  52.701  1.00  0.00     0.013 C 
ENDBRANCH  12  13
ENDBRANCH   1  12
BRANCH   1  19
HETATM   19  C14 UNL     1      24.645   2.109  52.168  1.00  0.00     0.174 C 
HETATM   20  S1  UNL     1      24.204   3.401  53.056  1.00  0.00    -0.041 SA
BRANCH  19  21
HETATM   21  N2  UNL     1      23.764   1.033  51.945  1.00  0.00    -0.333 N 
HETATM   22  H13 UNL     1      23.777   0.736  50.946  1.00  0.00     0.168 HD
BRANCH  21  23
HETATM   23  C15 UNL     1      22.907   0.312  52.771  1.00  0.00     0.034 A 
HETATM   24  C16 UNL     1      23.437  -0.409  53.849  1.00  0.00     0.029 A 
HETATM   25  C17 UNL     1      22.678  -1.144  54.713  1.00  0.00     0.002 A 
HETATM   26  C18 UNL     1      21.319  -1.188  54.527  1.00  0.00     0.000 A 
HETATM   27  C19 UNL     1      20.713  -0.508  53.492  1.00  0.00     0.002 A 
HETATM   28  C20 UNL     1      21.558   0.208  52.671  1.00  0.00     0.029 A 
ENDBRANCH  21  23
ENDBRANCH  19  21
ENDBRANCH   1  19
TORSDOF 8
ENDMDL
MODEL 5
REMARK VINA RESULT:      -8.0      3.091      5.573
REMARK  8 active torsions:
REMARK  status: ('A' for Active; 'I' for Inactive)
REMARK    1  A    between atoms: C6_6  and  C7_7 
REMARK    2  A    between atoms: C7_7  and  N1_8 
REMARK    3  A    between atoms: N1_8  and  C8_9 
REMARK    4  A    between atoms: N1_8  and  C14_16 
REMARK    5  A    between atoms: C8_9  and  C9_10 
REMARK    6  A    between atoms: C14_16  and  N2_18 
REMARK    7  A    between atoms: N2_18  and  C15_19 
REMARK    8  A    between atoms: C21_25  and  O1_26 
ROOT
HETATM    1  N1  UNL     1      23.444   2.817  51.069  1.00  0.00    -0.349 N 
ENDROOT
BRANCH   1   2
HETATM    2  C7  UNL     1      23.888   2.711  49.666  1.00  0.00     0.167 C 
BRANCH   2   3
HETATM    3  C6  UNL     1      24.857   3.790  49.347  1.00  0.00    -0.007 A 
HETATM    4  C5  UNL     1      26.230   3.562  49.363  1.00  0.00     0.011 A 
HETATM    5  C4  UNL     1      27.196   4.507  49.079  1.00  0.00     0.001 A 
HETATM    6  C3  UNL     1      26.750   5.778  48.753  1.00  0.00     0.009 A 
HETATM    7  C2  UNL     1      25.389   6.048  48.725  1.00  0.00    -0.028 A 
HETATM    8  C1  UNL     1      25.040   7.442  48.363  1.00  0.00     0.051 C 
HETATM    9  C21 UNL     1      24.469   5.086  49.012  1.00  0.00     0.079 A 
BRANCH   9  10
HETATM   10  O1  UNL     1      23.113   5.394  48.974  1.00  0.00    -0.360 OA
HETATM   11  H19 UNL     1      22.482   4.685  49.319  1.00  0.00     0.217 HD
ENDBRANCH   9  10
ENDBRANCH   2   3
ENDBRANCH   1   2
BRANCH   1  12
HETATM   12  C8  UNL     1      22.225   2.108  51.109  1.00  0.00     0.165 C 
BRANCH  12  13
HETATM   13  C9  UNL     1      22.021   1.145  52.217  1.00  0.00    -0.026 C 
HETATM   14  C10 UNL     1      21.070   1.162  53.138  1.00  0.00     0.024 C 
HETATM   15  C11 UNL     1      21.286   0.402  54.174  1.00  0.00     0.128 C 
HETATM   16  F1  UNL     1      20.653   0.456  55.374  1.00  0.00    -0.205 F 
HETATM   17  C12 UNL     1      22.346  -0.519  53.781  1.00  0.00     0.044 C 
HETATM   18  C13 UNL     1      22.778  -0.068  52.614  1.00  0.00     0.013 C 
ENDBRANCH  12  13
ENDBRANCH   1  12
BRANCH   1  19
HETATM   19  C14 UNL     1      24.124   3.481  52.124  1.00  0.00     0.174 C 
HETATM   20  S1  UNL     1      23.373   4.836  52.631  1.00  0.00    -0.041 SA
BRANCH  19  21
HETATM   21  N2  UNL     1      25.318   3.034  52.723  1.00  0.00    -0.333 N 
HETATM   22  H13 UNL     1      25.912   3.837  53.024  1.00  0.00     0.168 HD
BRANCH  21  23
HETATM   23  C15 UNL     1      25.844   1.772  52.982  1.00  0.00     0.034 A 
HETATM   24  C16 UNL     1      26.252   0.965  51.911  1.00  0.00     0.029 A 
HETATM   25  C17 UNL     1      26.779  -0.284  52.065  1.00  0.00     0.002 A 
HETATM   26  C18 UNL     1      26.924  -0.791  53.332  1.00  0.00     0.000 A 
HETATM   27  C19 UNL     1      26.549  -0.065  54.443  1.00  0.00     0.002 A 
HETATM   28  C20 UNL     1      26.027   1.187  54.191  1.00  0.00     0.029 A 
ENDBRANCH  21  23
ENDBRANCH  19  21
ENDBRANCH   1  19
TORSDOF 8
ENDMDL
MODEL 6
REMARK VINA RESULT:      -8.0      2.671      5.765
REMARK  8 active torsions:
REMARK  status: ('A' for Active; 'I' for Inactive)
REMARK    1  A    between atoms: C6_6  and  C7_7 
REMARK    2  A    between atoms: C7_7  and  N1_8 
REMARK    3  A    between atoms: N1_8  and  C8_9 
REMARK    4  A    between atoms: N1_8  and  C14_16 
REMARK    5  A    between atoms: C8_9  and  C9_10 
REMARK    6  A    between atoms: C14_16  and  N2_18 
REMARK    7  A    between atoms: N2_18  and  C15_19 
REMARK    8  A    between atoms: C21_25  and  O1_26 
ROOT
HETATM    1  N1  UNL     1      24.234   2.472  52.331  1.00  0.00    -0.349 N 
ENDROOT
BRANCH   1   2
HETATM    2  C7  UNL     1      24.150   1.031  52.026  1.00  0.00     0.167 C 
BRANCH   2   3
HETATM    3  C6  UNL     1      22.982   0.423  52.713  1.00  0.00    -0.007 A 
HETATM    4  C5  UNL     1      23.122  -0.247  53.925  1.00  0.00     0.011 A 
HETATM    5  C4  UNL     1      22.091  -0.839  54.628  1.00  0.00     0.001 A 
HETATM    6  C3  UNL     1      20.824  -0.750  54.073  1.00  0.00     0.009 A 
HETATM    7  C2  UNL     1      20.641  -0.090  52.867  1.00  0.00    -0.028 A 
HETATM    8  C1  UNL     1      19.242  -0.063  52.378  1.00  0.00     0.051 C 
HETATM    9  C21 UNL     1      21.686   0.480  52.204  1.00  0.00     0.079 A 
BRANCH   9  10
HETATM   10  O1  UNL     1      21.465   1.133  50.997  1.00  0.00    -0.360 OA
HETATM   11  H19 UNL     1      21.103   2.074  51.055  1.00  0.00     0.217 HD
ENDBRANCH   9  10
ENDBRANCH   2   3
ENDBRANCH   1   2
BRANCH   1  12
HETATM   12  C8  UNL     1      24.971   2.537  53.533  1.00  0.00     0.165 C 
BRANCH  12  13
HETATM   13  C9  UNL     1      26.303   1.889  53.562  1.00  0.00    -0.026 C 
HETATM   14  C10 UNL     1      26.693   0.875  54.319  1.00  0.00     0.024 C 
HETATM   15  C11 UNL     1      27.981   0.693  54.387  1.00  0.00     0.128 C 
HETATM   16  F1  UNL     1      28.655  -0.049  55.302  1.00  0.00    -0.205 F 
HETATM   17  C12 UNL     1      28.551   1.451  53.279  1.00  0.00     0.044 C 
HETATM   18  C13 UNL     1      27.544   2.160  52.794  1.00  0.00     0.013 C 
ENDBRANCH  12  13
ENDBRANCH   1  12
BRANCH   1  19
HETATM   19  C14 UNL     1      23.695   3.534  51.557  1.00  0.00     0.174 C 
HETATM   20  S1  UNL     1      22.605   4.438  52.364  1.00  0.00    -0.041 SA
BRANCH  19  21
HETATM   21  N2  UNL     1      24.058   3.830  50.229  1.00  0.00    -0.333 N 
HETATM   22  H13 UNL     1      23.319   3.523  49.559  1.00  0.00     0.168 HD
BRANCH  21  23
HETATM   23  C15 UNL     1      25.173   4.432  49.653  1.00  0.00     0.034 A 
HETATM   24  C16 UNL     1      25.077   5.749  49.184  1.00  0.00     0.029 A 
HETATM   25  C17 UNL     1      26.114   6.422  48.606  1.00  0.00     0.002 A 
HETATM   26  C18 UNL     1      27.322   5.787  48.470  1.00  0.00     0.000 A 
HETATM   27  C19 UNL     1      27.505   4.491  48.904  1.00  0.00     0.002 A 
HETATM   28  C20 UNL     1      26.403   3.890  49.475  1.00  0.00     0.029 A 
ENDBRANCH  21  23
ENDBRANCH  19  21
ENDBRANCH   1  19
TORSDOF 8
ENDMDL
MODEL 7
REMARK VINA RESULT:      -7.8      3.474      5.950
REMARK  8 active torsions:
REMARK  status: ('A' for Active; 'I' for Inactive)
REMARK    1  A    between atoms: C6_6  and  C7_7 
REMARK    2  A    between atoms: C7_7  and  N1_8 
REMARK    3  A    between atoms: N1_8  and  C8_9 
REMARK    4  A    between atoms: N1_8  and  C14_16 
REMARK    5  A    between atoms: C8_9  and  C9_10 
REMARK    6  A    between atoms: C14_16  and  N2_18 
REMARK    7  A    between atoms: N2_18  and  C15_19 
REMARK    8  A    between atoms: C21_25  and  O1_26 
ROOT
HETATM    1  N1  UNL     1      24.477   2.809  51.644  1.00  0.00    -0.349 N 
ENDROOT
BRANCH   1   2
HETATM    2  C7  UNL     1      23.719   3.681  52.562  1.00  0.00     0.167 C 
BRANCH   2   3
HETATM    3  C6  UNL     1      22.891   4.646  51.794  1.00  0.00    -0.007 A 
HETATM    4  C5  UNL     1      21.565   4.370  51.474  1.00  0.00     0.011 A 
HETATM    5  C4  UNL     1      20.728   5.210  50.766  1.00  0.00     0.001 A 
HETATM    6  C3  UNL     1      21.262   6.418  50.349  1.00  0.00     0.009 A 
HETATM    7  C2  UNL     1      22.580   6.733  50.648  1.00  0.00    -0.028 A 
HETATM    8  C1  UNL     1      23.033   8.053  50.148  1.00  0.00     0.051 C 
HETATM    9  C21 UNL     1      23.373   5.875  51.349  1.00  0.00     0.079 A 
BRANCH   9  10
HETATM   10  O1  UNL     1      24.689   6.224  51.629  1.00  0.00    -0.360 OA
HETATM   11  H19 UNL     1      25.282   5.488  51.984  1.00  0.00     0.217 HD
ENDBRANCH   9  10
ENDBRANCH   2   3
ENDBRANCH   1   2
BRANCH   1  12
HETATM   12  C8  UNL     1      23.564   1.795  51.285  1.00  0.00     0.165 C 
BRANCH  12  13
HETATM   13  C9  UNL     1      23.074   0.896  52.356  1.00  0.00    -0.026 C 
HETATM   14  C10 UNL     1      21.851   0.831  52.860  1.00  0.00     0.024 C 
HETATM   15  C11 UNL     1      21.748   0.192  53.991  1.00  0.00     0.128 C 
HETATM   16  F1  UNL     1      20.708   0.234  54.862  1.00  0.00    -0.205 F 
HETATM   17  C12 UNL     1      22.979  -0.577  54.129  1.00  0.00     0.044 C 
HETATM   18  C13 UNL     1      23.763  -0.151  53.151  1.00  0.00     0.013 C 
ENDBRANCH  12  13
ENDBRANCH   1  12
BRANCH   1  19
HETATM   19  C14 UNL     1      25.821   2.989  51.222  1.00  0.00     0.174 C 
HETATM   20  S1  UNL     1      25.961   3.396  49.651  1.00  0.00    -0.041 SA
BRANCH  19  21
HETATM   21  N2  UNL     1      26.952   2.864  52.053  1.00  0.00    -0.333 N 
HETATM   22  H13 UNL     1      27.409   3.788  52.209  1.00  0.00     0.168 HD
BRANCH  21  23
HETATM   23  C15 UNL     1      27.559   1.784  52.687  1.00  0.00     0.034 A 
HETATM   24  C16 UNL     1      28.636   2.012  53.552  1.00  0.00     0.029 A 
HETATM   25  C17 UNL     1      29.294   1.019  54.218  1.00  0.00     0.002 A 
HETATM   26  C18 UNL     1      28.889  -0.280  54.039  1.00  0.00     0.000 A 
HETATM   27  C19 UNL     1      27.838  -0.595  53.204  1.00  0.00     0.002 A 
HETATM   28  C20 UNL     1      27.233   0.472  52.575  1.00  0.00     0.029 A 
ENDBRANCH  21  23
ENDBRANCH  19  21
ENDBRANCH   1  19
TORSDOF 8
ENDMDL
MODEL 8
REMARK VINA RESULT:      -7.8      2.377      3.500
REMARK  8 active torsions:
REMARK  status: ('A' for Active; 'I' for Inactive)
REMARK    1  A    between atoms: C6_6  and  C7_7 
REMARK    2  A    between atoms: C7_7  and  N1_8 
REMARK    3  A    between atoms: N1_8  and  C8_9 
REMARK    4  A    between atoms: N1_8  and  C14_16 
REMARK    5  A    between atoms: C8_9  and  C9_10 
REMARK    6  A    between atoms: C14_16  and  N2_18 
REMARK    7  A    between atoms: N2_18  and  C15_19 
REMARK    8  A    between atoms: C21_25  and  O1_26 
ROOT
HETATM    1  N1  UNL     1      25.025   2.802  51.156  1.00  0.00    -0.349 N 
ENDROOT
BRANCH   1   2
HETATM    2  C7  UNL     1      25.069   2.901  49.684  1.00  0.00     0.167 C 
BRANCH   2   3
HETATM    3  C6  UNL     1      25.716   4.171  49.269  1.00  0.00    -0.007 A 
HETATM    4  C5  UNL     1      27.080   4.237  49.000  1.00  0.00     0.011 A 
HETATM    5  C4  UNL     1      27.759   5.374  48.610  1.00  0.00     0.001 A 
HETATM    6  C3  UNL     1      27.012   6.534  48.479  1.00  0.00     0.009 A 
HETATM    7  C2  UNL     1      25.649   6.512  48.737  1.00  0.00    -0.028 A 
HETATM    8  C1  UNL     1      24.962   7.814  48.562  1.00  0.00     0.051 C 
HETATM    9  C21 UNL     1      25.017   5.368  49.121  1.00  0.00     0.079 A 
BRANCH   9  10
HETATM   10  O1  UNL     1      23.650   5.384  49.372  1.00  0.00    -0.360 OA
HETATM   11  H19 UNL     1      23.180   6.269  49.243  1.00  0.00     0.217 HD
ENDBRANCH   9  10
ENDBRANCH   2   3
ENDBRANCH   1   2
BRANCH   1  12
HETATM   12  C8  UNL     1      26.361   2.549  51.533  1.00  0.00     0.165 C 
BRANCH  12  13
HETATM   13  C9  UNL     1      26.631   1.344  52.353  1.00  0.00    -0.026 C 
HETATM   14  C10 UNL     1      26.931   1.295  53.642  1.00  0.00     0.024 C 
HETATM   15  C11 UNL     1      27.425   0.162  54.055  1.00  0.00     0.128 C 
HETATM   16  F1  UNL     1      28.089  -0.064  55.217  1.00  0.00    -0.205 F 
HETATM   17  C12 UNL     1      27.119  -0.811  53.014  1.00  0.00     0.044 C 
HETATM   18  C13 UNL     1      26.647  -0.098  52.004  1.00  0.00     0.013 C 
ENDBRANCH  12  13
ENDBRANCH   1  12
BRANCH   1  19
HETATM   19  C14 UNL     1      23.878   2.950  51.980  1.00  0.00     0.174 C 
HETATM   20  S1  UNL     1      23.874   4.332  52.844  1.00  0.00    -0.041 SA
BRANCH  19  21
HETATM   21  N2  UNL     1      22.813   2.032  52.056  1.00  0.00    -0.333 N 
HETATM   22  H13 UNL     1      22.148   2.160  51.263  1.00  0.00     0.168 HD
BRANCH  21  23
HETATM   23  C15 UNL     1      22.485   1.019  52.952  1.00  0.00     0.034 A 
HETATM   24  C16 UNL     1      21.153   0.865  53.355  1.00  0.00     0.029 A 
HETATM   25  C17 UNL     1      20.734  -0.098  54.228  1.00  0.00     0.002 A 
HETATM   26  C18 UNL     1      21.659  -0.968  54.748  1.00  0.00     0.000 A 
HETATM   27  C19 UNL     1      22.992  -0.888  54.405  1.00  0.00     0.002 A 
HETATM   28  C20 UNL     1      23.323   0.114  53.517  1.00  0.00     0.029 A 
ENDBRANCH  21  23
ENDBRANCH  19  21
ENDBRANCH   1  19
TORSDOF 8
ENDMDL
MODEL 9
REMARK VINA RESULT:      -7.8      2.933      6.357
REMARK  8 active torsions:
REMARK  status: ('A' for Active; 'I' for Inactive)
REMARK    1  A    between atoms: C6_6  and  C7_7 
REMARK    2  A    between atoms: C7_7  and  N1_8 
REMARK    3  A    between atoms: N1_8  and  C8_9 
REMARK    4  A    between atoms: N1_8  and  C14_16 
REMARK    5  A    between atoms: C8_9  and  C9_10 
REMARK    6  A    between atoms: C14_16  and  N2_18 
REMARK    7  A    between atoms: N2_18  and  C15_19 
REMARK    8  A    between atoms: C21_25  and  O1_26 
ROOT
HETATM    1  N1  UNL     1      23.766   1.953  51.649  1.00  0.00    -0.349 N 
ENDROOT
BRANCH   1   2
HETATM    2  C7  UNL     1      24.291   1.835  53.022  1.00  0.00     0.167 C 
BRANCH   2   3
HETATM    3  C6  UNL     1      25.561   1.064  53.026  1.00  0.00    -0.007 A 
HETATM    4  C5  UNL     1      25.621  -0.240  52.545  1.00  0.00     0.011 A 
HETATM    5  C4  UNL     1      26.757  -1.024  52.512  1.00  0.00     0.001 A 
HETATM    6  C3  UNL     1      27.923  -0.454  53.000  1.00  0.00     0.009 A 
HETATM    7  C2  UNL     1      27.908   0.844  53.489  1.00  0.00    -0.028 A 
HETATM    8  C1  UNL     1      29.215   1.338  53.982  1.00  0.00     0.051 C 
HETATM    9  C21 UNL     1      26.764   1.583  53.503  1.00  0.00     0.079 A 
BRANCH   9  10
HETATM   10  O1  UNL     1      26.786   2.881  54.002  1.00  0.00    -0.360 OA
HETATM   11  H19 UNL     1      26.097   3.103  54.706  1.00  0.00     0.217 HD
ENDBRANCH   9  10
ENDBRANCH   2   3
ENDBRANCH   1   2
BRANCH   1  12
HETATM   12  C8  UNL     1      22.914   0.838  51.498  1.00  0.00     0.165 C 
BRANCH  12  13
HETATM   13  C9  UNL     1      22.043   0.475  52.641  1.00  0.00    -0.026 C 
HETATM   14  C10 UNL     1      22.119  -0.605  53.404  1.00  0.00     0.024 C 
HETATM   15  C11 UNL     1      21.065  -0.847  54.130  1.00  0.00     0.128 C 
HETATM   16  F1  UNL     1      20.750  -2.014  54.750  1.00  0.00    -0.205 F 
HETATM   17  C12 UNL     1      20.292   0.389  54.140  1.00  0.00     0.044 C 
HETATM   18  C13 UNL     1      20.882   1.171  53.250  1.00  0.00     0.013 C 
ENDBRANCH  12  13
ENDBRANCH   1  12
BRANCH   1  19
HETATM   19  C14 UNL     1      24.060   2.983  50.716  1.00  0.00     0.174 C 
HETATM   20  S1  UNL     1      23.169   2.900  49.354  1.00  0.00    -0.041 SA
BRANCH  19  21
HETATM   21  N2  UNL     1      25.002   4.010  50.918  1.00  0.00    -0.333 N 
HETATM   22  H13 UNL     1      25.036   4.300  51.919  1.00  0.00     0.168 HD
BRANCH  21  23
HETATM   23  C15 UNL     1      25.869   4.694  50.069  1.00  0.00     0.034 A 
HETATM   24  C16 UNL     1      25.692   6.069  49.870  1.00  0.00     0.029 A 
HETATM   25  C17 UNL     1      26.489   6.824  49.059  1.00  0.00     0.002 A 
HETATM   26  C18 UNL     1      27.525   6.215  48.397  1.00  0.00     0.000 A 
HETATM   27  C19 UNL     1      27.772   4.865  48.535  1.00  0.00     0.002 A 
HETATM   28  C20 UNL     1      26.916   4.184  49.375  1.00  0.00     0.029 A 
ENDBRANCH  21  23
ENDBRANCH  19  21
ENDBRANCH   1  19
TORSDOF 8
ENDMDL
