MODEL 1
REMARK VINA RESULT:      -9.8      0.000      0.000
REMARK  2 active torsions:
REMARK  status: ('A' for Active; 'I' for Inactive)
REMARK    1  A    between atoms: O1_1  and  C1_2 
REMARK    2  A    between atoms: C3_5  and  N1_6 
ROOT
HETATM    1  N1  UNL     1      26.433   0.386  52.745  1.00  0.00    -0.229 N 
HETATM    2  N2  UNL     1      25.079   0.243  53.445  1.00  0.00    -0.173 NA
HETATM    3  C4  UNL     1      24.338   1.160  52.932  1.00  0.00     0.068 C 
HETATM    4  C5  UNL     1      25.357   2.135  53.179  1.00  0.00     0.102 C 
HETATM    5  C6  UNL     1      26.112   1.424  51.935  1.00  0.00     0.197 C 
HETATM    6  C7  UNL     1      26.286   2.407  51.078  1.00  0.00    -0.078 C 
HETATM    7  C8  UNL     1      26.414   3.252  50.335  1.00  0.00    -0.099 C 
HETATM    8  C9  UNL     1      26.546   4.275  49.424  1.00  0.00     0.141 C 
HETATM    9  C10 UNL     1      25.151   4.912  49.114  1.00  0.00     0.003 A 
HETATM   10 CL1  UNL     1      24.065   5.934  48.211  1.00  0.00    -0.179 Cl
HETATM   11  C11 UNL     1      23.933   4.746  49.751  1.00  0.00     0.115 A 
HETATM   12  C12 UNL     1      22.542   4.645  50.364  1.00  0.00     0.066 C 
HETATM   13  C13 UNL     1      22.120   3.298  50.722  1.00  0.00    -0.017 A 
HETATM   14  C14 UNL     1      23.088   2.800  51.624  1.00  0.00     0.023 A 
HETATM   15  C15 UNL     1      23.166   1.579  52.213  1.00  0.00    -0.009 A 
HETATM   16  C16 UNL     1      22.237   0.616  51.996  1.00  0.00     0.016 A 
HETATM   17  C17 UNL     1      21.257   1.054  51.119  1.00  0.00     0.044 A 
HETATM   18  C18 UNL     1      21.193   2.298  50.520  1.00  0.00     0.122 A 
HETATM   19  F1  UNL     1      20.297   2.795  49.672  1.00  0.00    -0.206 F 
ENDROOT
BRANCH   1  20
HETATM   20  C3  UNL     1      27.530  -0.453  53.048  1.00  0.00     0.193 A 
HETATM   21  S1  UNL     1      29.132   0.429  53.546  1.00  0.00    -0.058 SA
HETATM   22  C2  UNL     1      30.014  -1.237  53.764  1.00  0.00     0.111 A 
HETATM   23  C1  UNL     1      28.924  -2.156  53.417  1.00  0.00     0.171 A 
HETATM   24  N3  UNL     1      27.777  -1.576  53.092  1.00  0.00    -0.198 NA
BRANCH  23  25
HETATM   25  O1  UNL     1      29.014  -3.543  53.408  1.00  0.00    -0.344 OA
HETATM   26  H1  UNL     1      28.562  -4.067  52.672  1.00  0.00     0.219 HD
ENDBRANCH  23  25
ENDBRANCH   1  20
TORSDOF 2
ENDMDL
MODEL 2
REMARK VINA RESULT:      -9.1      3.154      4.623
REMARK  2 active torsions:
REMARK  status: ('A' for Active; 'I' for Inactive)
REMARK    1  A    between atoms: O1_1  and  C1_2 
REMARK    2  A    between atoms: C3_5  and  N1_6 
ROOT
HETATM    1  N1  UNL     1      25.808   1.462  52.970  1.00  0.00    -0.229 N 
HETATM    2  N2  UNL     1      25.469   2.514  51.911  1.00  0.00    -0.173 NA
HETATM    3  C4  UNL     1      24.215   2.356  51.671  1.00  0.00     0.068 C 
HETATM    4  C5  UNL     1      24.418   0.952  51.482  1.00  0.00     0.102 C 
HETATM    5  C6  UNL     1      24.571   0.921  53.094  1.00  0.00     0.197 C 
HETATM    6  C7  UNL     1      23.636   0.078  53.475  1.00  0.00    -0.078 C 
HETATM    7  C8  UNL     1      22.816  -0.633  53.800  1.00  0.00    -0.099 C 
HETATM    8  C9  UNL     1      21.803  -1.478  54.194  1.00  0.00     0.141 C 
HETATM    9  C10 UNL     1      20.430  -0.978  53.637  1.00  0.00     0.003 A 
HETATM   10 CL1  UNL     1      18.689  -0.978  53.538  1.00  0.00    -0.179 Cl
HETATM   11  C11 UNL     1      20.150  -0.004  52.693  1.00  0.00     0.115 A 
HETATM   12  C12 UNL     1      19.717   1.042  51.673  1.00  0.00     0.066 C 
HETATM   13  C13 UNL     1      20.425   2.312  51.751  1.00  0.00    -0.017 A 
HETATM   14  C14 UNL     1      21.799   2.017  51.593  1.00  0.00     0.023 A 
HETATM   15  C15 UNL     1      22.867   2.854  51.628  1.00  0.00    -0.009 A 
HETATM   16  C16 UNL     1      22.729   4.188  51.823  1.00  0.00     0.016 A 
HETATM   17  C17 UNL     1      21.397   4.535  51.980  1.00  0.00     0.044 A 
HETATM   18  C18 UNL     1      20.318   3.672  51.949  1.00  0.00     0.122 A 
HETATM   19  F1  UNL     1      19.018   3.920  52.092  1.00  0.00    -0.206 F 
ENDROOT
BRANCH   1  20
HETATM   20  C3  UNL     1      27.112   1.312  53.495  1.00  0.00     0.193 A 
HETATM   21  S1  UNL     1      27.843  -0.434  53.408  1.00  0.00    -0.058 SA
HETATM   22  C2  UNL     1      29.445   0.166  54.229  1.00  0.00     0.111 A 
HETATM   23  C1  UNL     1      29.125   1.586  54.418  1.00  0.00     0.171 A 
HETATM   24  N3  UNL     1      27.926   1.957  53.990  1.00  0.00    -0.198 NA
BRANCH  23  25
HETATM   25  O1  UNL     1      29.967   2.530  54.992  1.00  0.00    -0.344 OA
HETATM   26  H1  UNL     1      29.614   3.136  55.719  1.00  0.00     0.219 HD
ENDBRANCH  23  25
ENDBRANCH   1  20
TORSDOF 2
ENDMDL
MODEL 3
REMARK VINA RESULT:      -8.9      5.341      7.631
REMARK  2 active torsions:
REMARK  status: ('A' for Active; 'I' for Inactive)
REMARK    1  A    between atoms: O1_1  and  C1_2 
REMARK    2  A    between atoms: C3_5  and  N1_6 
ROOT
HETATM    1  N1  UNL     1      19.994   1.821  51.859  1.00  0.00    -0.229 N 
HETATM    2  N2  UNL     1      19.875   0.382  52.366  1.00  0.00    -0.173 NA
HETATM    3  C4  UNL     1      21.087  -0.014  52.540  1.00  0.00     0.068 C 
HETATM    4  C5  UNL     1      21.430   0.429  51.223  1.00  0.00     0.102 C 
HETATM    5  C6  UNL     1      21.347   1.910  51.873  1.00  0.00     0.197 C 
HETATM    6  C7  UNL     1      22.543   2.410  51.652  1.00  0.00    -0.078 C 
HETATM    7  C8  UNL     1      23.581   2.828  51.478  1.00  0.00    -0.099 C 
HETATM    8  C9  UNL     1      24.851   3.324  51.287  1.00  0.00     0.141 C 
HETATM    9  C10 UNL     1      25.913   2.355  51.904  1.00  0.00     0.003 A 
HETATM   10 CL1  UNL     1      27.519   1.926  52.432  1.00  0.00    -0.179 Cl
HETATM   11  C11 UNL     1      25.773   1.062  52.379  1.00  0.00     0.115 A 
HETATM   12  C12 UNL     1      25.744  -0.358  52.930  1.00  0.00     0.066 C 
HETATM   13  C13 UNL     1      24.607  -0.666  53.786  1.00  0.00    -0.017 A 
HETATM   14  C14 UNL     1      23.446  -0.418  53.018  1.00  0.00     0.023 A 
HETATM   15  C15 UNL     1      22.141  -0.518  53.377  1.00  0.00    -0.009 A 
HETATM   16  C16 UNL     1      21.765  -0.914  54.617  1.00  0.00     0.016 A 
HETATM   17  C17 UNL     1      22.868  -1.176  55.415  1.00  0.00     0.044 A 
HETATM   18  C18 UNL     1      24.193  -1.063  55.040  1.00  0.00     0.122 A 
HETATM   19  F1  UNL     1      25.303  -1.291  55.737  1.00  0.00    -0.206 F 
ENDROOT
BRANCH   1  20
HETATM   20  C3  UNL     1      18.862   2.606  51.542  1.00  0.00     0.193 A 
HETATM   21  S1  UNL     1      18.434   2.735  49.700  1.00  0.00    -0.058 SA
HETATM   22  C2  UNL     1      16.945   3.842  50.095  1.00  0.00     0.111 A 
HETATM   23  C1  UNL     1      17.050   3.908  51.557  1.00  0.00     0.171 A 
HETATM   24  N3  UNL     1      18.062   3.232  52.082  1.00  0.00    -0.198 NA
BRANCH  23  25
HETATM   25  O1  UNL     1      16.188   4.607  52.394  1.00  0.00    -0.344 OA
HETATM   26  H1  UNL     1      16.496   5.471  52.818  1.00  0.00     0.219 HD
ENDBRANCH  23  25
ENDBRANCH   1  20
TORSDOF 2
ENDMDL
MODEL 4
REMARK VINA RESULT:      -8.7      4.082      5.742
REMARK  2 active torsions:
REMARK  status: ('A' for Active; 'I' for Inactive)
REMARK    1  A    between atoms: O1_1  and  C1_2 
REMARK    2  A    between atoms: C3_5  and  N1_6 
ROOT
HETATM    1  N1  UNL     1      25.142   3.580  50.550  1.00  0.00    -0.229 N 
HETATM    2  N2  UNL     1      25.445   3.162  51.991  1.00  0.00    -0.173 NA
HETATM    3  C4  UNL     1      24.397   2.527  52.383  1.00  0.00     0.068 C 
HETATM    4  C5  UNL     1      23.566   3.603  51.936  1.00  0.00     0.102 C 
HETATM    5  C6  UNL     1      23.905   3.036  50.457  1.00  0.00     0.197 C 
HETATM    6  C7  UNL     1      22.720   2.768  49.951  1.00  0.00    -0.078 C 
HETATM    7  C8  UNL     1      21.699   2.520  49.528  1.00  0.00    -0.099 C 
HETATM    8  C9  UNL     1      20.459   2.196  49.027  1.00  0.00     0.141 C 
HETATM    9  C10 UNL     1      19.720   1.213  49.994  1.00  0.00     0.003 A 
HETATM   10 CL1  UNL     1      18.449   0.097  50.418  1.00  0.00    -0.179 Cl
HETATM   11  C11 UNL     1      20.030   0.832  51.289  1.00  0.00     0.115 A 
HETATM   12  C12 UNL     1      20.266   0.339  52.710  1.00  0.00     0.066 C 
HETATM   13  C13 UNL     1      21.646  -0.001  53.025  1.00  0.00    -0.017 A 
HETATM   14  C14 UNL     1      22.413   1.161  52.780  1.00  0.00     0.023 A 
HETATM   15  C15 UNL     1      23.754   1.344  52.886  1.00  0.00    -0.009 A 
HETATM   16  C16 UNL     1      24.586   0.351  53.286  1.00  0.00     0.016 A 
HETATM   17  C17 UNL     1      23.883  -0.815  53.547  1.00  0.00     0.044 A 
HETATM   18  C18 UNL     1      22.518  -0.991  53.428  1.00  0.00     0.122 A 
HETATM   19  F1  UNL     1      21.770  -2.068  53.653  1.00  0.00    -0.206 F 
ENDROOT
BRANCH   1  20
HETATM   20  C3  UNL     1      26.063   4.315  49.769  1.00  0.00     0.193 A 
HETATM   21  S1  UNL     1      25.471   6.014  49.172  1.00  0.00    -0.058 SA
HETATM   22  C2  UNL     1      27.124   6.312  48.291  1.00  0.00     0.111 A 
HETATM   23  C1  UNL     1      27.821   5.062  48.614  1.00  0.00     0.171 A 
HETATM   24  N3  UNL     1      27.130   4.205  49.353  1.00  0.00    -0.198 NA
BRANCH  23  25
HETATM   25  O1  UNL     1      29.109   4.732  48.212  1.00  0.00    -0.344 OA
HETATM   26  H1  UNL     1      29.352   4.775  47.232  1.00  0.00     0.219 HD
ENDBRANCH  23  25
ENDBRANCH   1  20
TORSDOF 2
ENDMDL
MODEL 5
REMARK VINA RESULT:      -8.5      4.692      6.428
REMARK  2 active torsions:
REMARK  status: ('A' for Active; 'I' for Inactive)
REMARK    1  A    between atoms: O1_1  and  C1_2 
REMARK    2  A    between atoms: C3_5  and  N1_6 
ROOT
HETATM    1  N1  UNL     1      24.590   4.762  50.624  1.00  0.00    -0.229 N 
HETATM    2  N2  UNL     1      23.228   4.399  50.025  1.00  0.00    -0.173 NA
HETATM    3  C4  UNL     1      22.914   3.275  50.566  1.00  0.00     0.068 C 
HETATM    4  C5  UNL     1      24.196   2.740  50.223  1.00  0.00     0.102 C 
HETATM    5  C6  UNL     1      24.731   3.680  51.428  1.00  0.00     0.197 C 
HETATM    6  C7  UNL     1      25.315   2.830  52.245  1.00  0.00    -0.078 C 
HETATM    7  C8  UNL     1      25.798   2.092  52.955  1.00  0.00    -0.099 C 
HETATM    8  C9  UNL     1      26.362   1.189  53.828  1.00  0.00     0.141 C 
HETATM    9  C10 UNL     1      25.323   0.086  54.218  1.00  0.00     0.003 A 
HETATM   10 CL1  UNL     1      24.755  -1.261  55.168  1.00  0.00    -0.179 Cl
HETATM   11  C11 UNL     1      24.084  -0.206  53.673  1.00  0.00     0.115 A 
HETATM   12  C12 UNL     1      22.711  -0.621  53.161  1.00  0.00     0.066 C 
HETATM   13  C13 UNL     1      21.801   0.477  52.870  1.00  0.00    -0.017 A 
HETATM   14  C14 UNL     1      22.450   1.294  51.915  1.00  0.00     0.023 A 
HETATM   15  C15 UNL     1      22.032   2.458  51.354  1.00  0.00    -0.009 A 
HETATM   16  C16 UNL     1      20.835   3.015  51.660  1.00  0.00     0.016 A 
HETATM   17  C17 UNL     1      20.151   2.250  52.592  1.00  0.00     0.044 A 
HETATM   18  C18 UNL     1      20.591   1.070  53.162  1.00  0.00     0.122 A 
HETATM   19  F1  UNL     1      20.004   0.280  54.058  1.00  0.00    -0.206 F 
ENDROOT
BRANCH   1  20
HETATM   20  C3  UNL     1      25.279   5.944  50.268  1.00  0.00     0.193 A 
HETATM   21  S1  UNL     1      26.503   5.785  48.829  1.00  0.00    -0.058 SA
HETATM   22  C2  UNL     1      26.953   7.622  48.973  1.00  0.00     0.111 A 
HETATM   23  C1  UNL     1      26.089   8.016  50.091  1.00  0.00     0.171 A 
HETATM   24  N3  UNL     1      25.338   7.046  50.594  1.00  0.00    -0.198 NA
BRANCH  23  25
HETATM   25  O1  UNL     1      26.008   9.292  50.634  1.00  0.00    -0.344 OA
HETATM   26  H1  UNL     1      25.479  10.006  50.154  1.00  0.00     0.219 HD
ENDBRANCH  23  25
ENDBRANCH   1  20
TORSDOF 2
ENDMDL
MODEL 6
REMARK VINA RESULT:      -8.5      5.116      7.545
REMARK  2 active torsions:
REMARK  status: ('A' for Active; 'I' for Inactive)
REMARK    1  A    between atoms: O1_1  and  C1_2 
REMARK    2  A    between atoms: C3_5  and  N1_6 
ROOT
HETATM    1  N1  UNL     1      23.053   3.131  49.043  1.00  0.00    -0.229 N 
HETATM    2  N2  UNL     1      24.423   3.432  49.657  1.00  0.00    -0.173 NA
HETATM    3  C4  UNL     1      24.457   2.753  50.749  1.00  0.00     0.068 C 
HETATM    4  C5  UNL     1      23.186   3.286  51.132  1.00  0.00     0.102 C 
HETATM    5  C6  UNL     1      22.605   2.283  50.001  1.00  0.00     0.197 C 
HETATM    6  C7  UNL     1      21.761   1.525  50.666  1.00  0.00    -0.078 C 
HETATM    7  C8  UNL     1      21.051   0.861  51.248  1.00  0.00    -0.099 C 
HETATM    8  C9  UNL     1      20.209   0.039  51.962  1.00  0.00     0.141 C 
HETATM    9  C10 UNL     1      20.977  -0.627  53.151  1.00  0.00     0.003 A 
HETATM   10 CL1  UNL     1      21.151  -1.774  54.454  1.00  0.00    -0.179 Cl
HETATM   11  C11 UNL     1      22.230  -0.351  53.672  1.00  0.00     0.115 A 
HETATM   12  C12 UNL     1      23.588  -0.143  54.329  1.00  0.00     0.066 C 
HETATM   13  C13 UNL     1      24.696   0.061  53.408  1.00  0.00    -0.017 A 
HETATM   14  C14 UNL     1      24.361   1.184  52.617  1.00  0.00     0.023 A 
HETATM   15  C15 UNL     1      25.048   1.749  51.591  1.00  0.00    -0.009 A 
HETATM   16  C16 UNL     1      26.247   1.269  51.178  1.00  0.00     0.016 A 
HETATM   17  C17 UNL     1      26.628   0.166  51.926  1.00  0.00     0.044 A 
HETATM   18  C18 UNL     1      25.916  -0.405  52.963  1.00  0.00     0.122 A 
HETATM   19  F1  UNL     1      26.206  -1.457  53.725  1.00  0.00    -0.206 F 
ENDROOT
BRANCH   1  20
HETATM   20  C3  UNL     1      22.632   3.706  47.822  1.00  0.00     0.193 A 
HETATM   21  S1  UNL     1      22.577   5.600  47.776  1.00  0.00    -0.058 SA
HETATM   22  C2  UNL     1      21.976   5.566  45.977  1.00  0.00     0.111 A 
HETATM   23  C1  UNL     1      21.928   4.118  45.745  1.00  0.00     0.171 A 
HETATM   24  N3  UNL     1      22.289   3.369  46.777  1.00  0.00    -0.198 NA
BRANCH  23  25
HETATM   25  O1  UNL     1      21.545   3.506  44.558  1.00  0.00    -0.344 OA
HETATM   26  H1  UNL     1      21.453   4.060  43.718  1.00  0.00     0.219 HD
ENDBRANCH  23  25
ENDBRANCH   1  20
TORSDOF 2
ENDMDL
MODEL 7
REMARK VINA RESULT:      -8.5      5.194      7.269
REMARK  2 active torsions:
REMARK  status: ('A' for Active; 'I' for Inactive)
REMARK    1  A    between atoms: O1_1  and  C1_2 
REMARK    2  A    between atoms: C3_5  and  N1_6 
ROOT
HETATM    1  N1  UNL     1      21.544   3.486  51.056  1.00  0.00    -0.229 N 
HETATM    2  N2  UNL     1      20.672   2.281  51.420  1.00  0.00    -0.173 NA
HETATM    3  C4  UNL     1      21.497   1.376  51.811  1.00  0.00     0.068 C 
HETATM    4  C5  UNL     1      22.283   1.568  50.631  1.00  0.00     0.102 C 
HETATM    5  C6  UNL     1      22.747   2.939  51.357  1.00  0.00     0.197 C 
HETATM    6  C7  UNL     1      24.056   2.823  51.427  1.00  0.00    -0.078 C 
HETATM    7  C8  UNL     1      25.180   2.708  51.504  1.00  0.00    -0.099 C 
HETATM    8  C9  UNL     1      26.543   2.555  51.619  1.00  0.00     0.141 C 
HETATM    9  C10 UNL     1      26.880   1.224  52.369  1.00  0.00     0.003 A 
HETATM   10 CL1  UNL     1      27.953   0.118  53.186  1.00  0.00    -0.179 Cl
HETATM   11  C11 UNL     1      26.064   0.158  52.708  1.00  0.00     0.115 A 
HETATM   12  C12 UNL     1      25.269  -1.069  53.135  1.00  0.00     0.066 C 
HETATM   13  C13 UNL     1      23.962  -0.790  53.711  1.00  0.00    -0.017 A 
HETATM   14  C14 UNL     1      23.242  -0.058  52.738  1.00  0.00     0.023 A 
HETATM   15  C15 UNL     1      21.992   0.468  52.810  1.00  0.00    -0.009 A 
HETATM   16  C16 UNL     1      21.217   0.330  53.913  1.00  0.00     0.016 A 
HETATM   17  C17 UNL     1      21.873  -0.387  54.900  1.00  0.00     0.044 A 
HETATM   18  C18 UNL     1      23.149  -0.911  54.818  1.00  0.00     0.122 A 
HETATM   19  F1  UNL     1      23.850  -1.605  55.712  1.00  0.00    -0.206 F 
ENDROOT
BRANCH   1  20
HETATM   20  C3  UNL     1      20.995   4.695  50.569  1.00  0.00     0.193 A 
HETATM   21  S1  UNL     1      22.056   6.245  50.821  1.00  0.00    -0.058 SA
HETATM   22  C2  UNL     1      20.740   7.317  49.975  1.00  0.00     0.111 A 
HETATM   23  C1  UNL     1      19.735   6.295  49.658  1.00  0.00     0.171 A 
HETATM   24  N3  UNL     1      20.047   5.062  50.032  1.00  0.00    -0.198 NA
BRANCH  23  25
HETATM   25  O1  UNL     1      18.526   6.529  49.015  1.00  0.00    -0.344 OA
HETATM   26  H1  UNL     1      17.662   6.449  49.533  1.00  0.00     0.219 HD
ENDBRANCH  23  25
ENDBRANCH   1  20
TORSDOF 2
ENDMDL
MODEL 8
REMARK VINA RESULT:      -8.4      5.077      7.604
REMARK  2 active torsions:
REMARK  status: ('A' for Active; 'I' for Inactive)
REMARK    1  A    between atoms: O1_1  and  C1_2 
REMARK    2  A    between atoms: C3_5  and  N1_6 
ROOT
HETATM    1  N1  UNL     1      23.339   4.205  50.795  1.00  0.00    -0.229 N 
HETATM    2  N2  UNL     1      24.812   4.143  51.208  1.00  0.00    -0.173 NA
HETATM    3  C4  UNL     1      24.897   3.129  51.995  1.00  0.00     0.068 C 
HETATM    4  C5  UNL     1      23.789   3.617  52.759  1.00  0.00     0.102 C 
HETATM    5  C6  UNL     1      22.907   3.126  51.492  1.00  0.00     0.197 C 
HETATM    6  C7  UNL     1      22.061   2.269  52.021  1.00  0.00    -0.078 C 
HETATM    7  C8  UNL     1      21.348   1.516  52.478  1.00  0.00    -0.099 C 
HETATM    8  C9  UNL     1      20.500   0.584  53.031  1.00  0.00     0.141 C 
HETATM    9  C10 UNL     1      21.318  -0.522  53.777  1.00  0.00     0.003 A 
HETATM   10 CL1  UNL     1      21.499  -2.058  54.582  1.00  0.00    -0.179 Cl
HETATM   11  C11 UNL     1      22.660  -0.563  54.117  1.00  0.00     0.115 A 
HETATM   12  C12 UNL     1      24.114  -0.725  54.543  1.00  0.00     0.066 C 
HETATM   13  C13 UNL     1      25.098  -0.323  53.548  1.00  0.00    -0.017 A 
HETATM   14  C14 UNL     1      24.828   1.030  53.239  1.00  0.00     0.023 A 
HETATM   15  C15 UNL     1      25.441   1.845  52.343  1.00  0.00    -0.009 A 
HETATM   16  C16 UNL     1      26.481   1.425  51.582  1.00  0.00     0.016 A 
HETATM   17  C17 UNL     1      26.793   0.100  51.849  1.00  0.00     0.044 A 
HETATM   18  C18 UNL     1      26.156  -0.722  52.759  1.00  0.00     0.122 A 
HETATM   19  F1  UNL     1      26.387  -1.994  53.072  1.00  0.00    -0.206 F 
ENDROOT
BRANCH   1  20
HETATM   20  C3  UNL     1      22.841   5.203  49.926  1.00  0.00     0.193 A 
HETATM   21  S1  UNL     1      22.593   4.679  48.122  1.00  0.00    -0.058 SA
HETATM   22  C2  UNL     1      21.965   6.413  47.676  1.00  0.00     0.111 A 
HETATM   23  C1  UNL     1      22.060   7.070  48.985  1.00  0.00     0.171 A 
HETATM   24  N3  UNL     1      22.515   6.305  49.968  1.00  0.00    -0.198 NA
BRANCH  23  25
HETATM   25  O1  UNL     1      21.718   8.390  49.249  1.00  0.00    -0.344 OA
HETATM   26  H1  UNL     1      20.776   8.611  49.542  1.00  0.00     0.219 HD
ENDBRANCH  23  25
ENDBRANCH   1  20
TORSDOF 2
ENDMDL
MODEL 9
REMARK VINA RESULT:      -8.1      6.246      8.618
REMARK  2 active torsions:
REMARK  status: ('A' for Active; 'I' for Inactive)
REMARK    1  A    between atoms: O1_1  and  C1_2 
REMARK    2  A    between atoms: C3_5  and  N1_6 
ROOT
HETATM    1  N1  UNL     1      18.089   1.937  51.500  1.00  0.00    -0.229 N 
HETATM    2  N2  UNL     1      18.174   0.409  51.555  1.00  0.00    -0.173 NA
HETATM    3  C4  UNL     1      19.401   0.152  51.841  1.00  0.00     0.068 C 
HETATM    4  C5  UNL     1      19.838   1.019  50.790  1.00  0.00     0.102 C 
HETATM    5  C6  UNL     1      19.384   2.203  51.797  1.00  0.00     0.197 C 
HETATM    6  C7  UNL     1      20.483   2.909  51.957  1.00  0.00    -0.078 C 
HETATM    7  C8  UNL     1      21.437   3.500  52.108  1.00  0.00    -0.099 C 
HETATM    8  C9  UNL     1      22.604   4.202  52.310  1.00  0.00     0.141 C 
HETATM    9  C10 UNL     1      23.732   3.248  52.825  1.00  0.00     0.003 A 
HETATM   10 CL1  UNL     1      25.298   2.906  53.511  1.00  0.00    -0.179 Cl
HETATM   11  C11 UNL     1      23.773   1.866  52.887  1.00  0.00     0.115 A 
HETATM   12  C12 UNL     1      23.935   0.356  53.006  1.00  0.00     0.066 C 
HETATM   13  C13 UNL     1      22.768  -0.354  53.508  1.00  0.00    -0.017 A 
HETATM   14  C14 UNL     1      21.703  -0.047  52.631  1.00  0.00     0.023 A 
HETATM   15  C15 UNL     1      20.402  -0.433  52.691  1.00  0.00    -0.009 A 
HETATM   16  C16 UNL     1      19.935  -1.237  53.677  1.00  0.00     0.016 A 
HETATM   17  C17 UNL     1      20.943  -1.575  54.567  1.00  0.00     0.044 A 
HETATM   18  C18 UNL     1      22.263  -1.170  54.499  1.00  0.00     0.122 A 
HETATM   19  F1  UNL     1      23.286  -1.443  55.305  1.00  0.00    -0.206 F 
ENDROOT
BRANCH   1  20
HETATM   20  C3  UNL     1      16.885   2.615  51.202  1.00  0.00     0.193 A 
HETATM   21  S1  UNL     1      15.334   1.969  52.079  1.00  0.00    -0.058 SA
HETATM   22  C2  UNL     1      14.269   3.285  51.224  1.00  0.00     0.111 A 
HETATM   23  C1  UNL     1      15.292   3.973  50.429  1.00  0.00     0.171 A 
HETATM   24  N3  UNL     1      16.522   3.494  50.555  1.00  0.00    -0.198 NA
BRANCH  23  25
HETATM   25  O1  UNL     1      15.064   5.053  49.586  1.00  0.00    -0.344 OA
HETATM   26  H1  UNL     1      15.641   5.878  49.665  1.00  0.00     0.219 HD
ENDBRANCH  23  25
ENDBRANCH   1  20
TORSDOF 2
ENDMDL
