MODEL 1
REMARK VINA RESULT:      -7.7      0.000      0.000
REMARK  6 active torsions:
REMARK  status: ('A' for Active; 'I' for Inactive)
REMARK       I    between atoms: C2_2  and  N1_4 
REMARK    1  A    between atoms: N1_4  and  C3_5 
REMARK    2  A    between atoms: C6_8  and  N2_9 
REMARK    3  A    between atoms: C7_10  and  C8_11 
REMARK    4  A    between atoms: C8_11  and  C11_16 
REMARK    5  A    between atoms: N3_12  and  C9_13 
REMARK    6  A    between atoms: C10_14  and  N4_15 
ROOT
HETATM    1  C8  UNL     1      22.075   0.088  52.419  1.00  0.00     0.079 C 
HETATM    2  N3  UNL     1      21.212   0.201  51.433  1.00  0.00    -0.258 NA
ENDROOT
BRANCH   1   3
HETATM    3  C7  UNL     1      23.098  -0.219  53.395  1.00  0.00     0.017 A 
HETATM    4  C6  UNL     1      22.491  -0.711  54.576  1.00  0.00     0.018 A 
HETATM    5  C5  UNL     1      23.212  -1.288  55.629  1.00  0.00     0.026 A 
HETATM    6  C4  UNL     1      24.564  -1.298  55.335  1.00  0.00     0.031 A 
HETATM    7  C3  UNL     1      25.162  -0.829  54.198  1.00  0.00     0.035 A 
HETATM    8  C17 UNL     1      24.414  -0.279  53.211  1.00  0.00     0.045 A 
BRANCH   4   9
HETATM    9  N2  UNL     1      21.117  -0.743  54.826  1.00  0.00    -0.302 NA
HETATM   10  H7  UNL     1      20.105  -0.753  54.794  1.00  0.00     0.124 HD
HETATM   11  H8  UNL     1      20.160  -0.722  54.433  1.00  0.00     0.124 HD
ENDBRANCH   4   9
BRANCH   7  12
HETATM   12  N1  UNL     1      26.550  -0.847  53.976  1.00  0.00    -0.327 N 
HETATM   13  C2  UNL     1      27.555   0.033  54.362  1.00  0.00     0.218 C 
HETATM   14  C1  UNL     1      28.999   0.078  54.186  1.00  0.00     0.117 C 
HETATM   15  O1  UNL     1      27.200   1.078  55.037  1.00  0.00    -0.274 OA
HETATM   16  H4  UNL     1      26.956  -1.657  53.424  1.00  0.00     0.169 HD
ENDBRANCH   7  12
ENDBRANCH   1   3
BRANCH   1  17
HETATM   17  C11 UNL     1      22.723   1.446  52.044  1.00  0.00    -0.005 A 
HETATM   18  C12 UNL     1      23.239   1.740  50.751  1.00  0.00     0.017 A 
HETATM   19  C13 UNL     1      23.866   2.869  50.195  1.00  0.00     0.045 A 
HETATM   20  C14 UNL     1      24.004   3.919  51.126  1.00  0.00     0.138 A 
HETATM   21  F1  UNL     1      24.587   5.020  50.650  1.00  0.00    -0.204 F 
HETATM   22  C15 UNL     1      23.568   3.800  52.398  1.00  0.00     0.073 A 
HETATM   23 CL1  UNL     1      23.740   5.098  53.550  1.00  0.00    -0.081 Cl
HETATM   24  C16 UNL     1      22.998   2.626  52.711  1.00  0.00     0.041 A 
ENDBRANCH   1  17
BRANCH   2  25
HETATM   25  C9  UNL     1      20.337   1.374  51.669  1.00  0.00     0.134 C 
HETATM   26  C10 UNL     1      19.304   2.190  51.372  1.00  0.00     0.099 C 
BRANCH  26  27
HETATM   27  N4  UNL     1      18.400   3.307  51.516  1.00  0.00    -0.407 N 
HETATM   28  H11 UNL     1      18.027   3.173  50.515  1.00  0.00     0.155 HD
HETATM   29  H12 UNL     1      18.535   3.678  52.471  1.00  0.00     0.155 HD
ENDBRANCH  26  27
ENDBRANCH   2  25
TORSDOF 6
ENDMDL
MODEL 2
REMARK VINA RESULT:      -7.1      1.578      1.999
REMARK  6 active torsions:
REMARK  status: ('A' for Active; 'I' for Inactive)
REMARK       I    between atoms: C2_2  and  N1_4 
REMARK    1  A    between atoms: N1_4  and  C3_5 
REMARK    2  A    between atoms: C6_8  and  N2_9 
REMARK    3  A    between atoms: C7_10  and  C8_11 
REMARK    4  A    between atoms: C8_11  and  C11_16 
REMARK    5  A    between atoms: N3_12  and  C9_13 
REMARK    6  A    between atoms: C10_14  and  N4_15 
ROOT
HETATM    1  C8  UNL     1      22.339   1.098  50.984  1.00  0.00     0.079 C 
HETATM    2  N3  UNL     1      21.939   1.379  49.763  1.00  0.00    -0.258 NA
ENDROOT
BRANCH   1   3
HETATM    3  C7  UNL     1      22.909   0.634  52.230  1.00  0.00     0.017 A 
HETATM    4  C6  UNL     1      21.871   0.219  53.100  1.00  0.00     0.018 A 
HETATM    5  C5  UNL     1      22.100  -0.469  54.297  1.00  0.00     0.026 A 
HETATM    6  C4  UNL     1      23.457  -0.670  54.484  1.00  0.00     0.031 A 
HETATM    7  C3  UNL     1      24.468  -0.278  53.651  1.00  0.00     0.035 A 
HETATM    8  C17 UNL     1      24.188   0.387  52.504  1.00  0.00     0.045 A 
BRANCH   4   9
HETATM    9  N2  UNL     1      20.504   0.382  52.863  1.00  0.00    -0.302 NA
HETATM   10  H7  UNL     1      19.495   0.321  52.808  1.00  0.00     0.124 HD
HETATM   11  H8  UNL     1      19.546   0.017  53.007  1.00  0.00     0.124 HD
ENDBRANCH   4   9
BRANCH   7  12
HETATM   12  N1  UNL     1      25.832  -0.493  53.916  1.00  0.00    -0.327 N 
HETATM   13  C2  UNL     1      26.806   0.339  54.459  1.00  0.00     0.218 C 
HETATM   14  C1  UNL     1      28.218   0.189  54.774  1.00  0.00     0.117 C 
HETATM   15  O1  UNL     1      26.447   1.539  54.781  1.00  0.00    -0.274 OA
HETATM   16  H4  UNL     1      26.241  -1.443  53.683  1.00  0.00     0.169 HD
ENDBRANCH   7  12
ENDBRANCH   1   3
BRANCH   1  17
HETATM   17  C11 UNL     1      22.922   2.524  51.151  1.00  0.00    -0.005 A 
HETATM   18  C12 UNL     1      22.491   3.438  52.153  1.00  0.00     0.017 A 
HETATM   19  C13 UNL     1      22.857   4.755  52.481  1.00  0.00     0.045 A 
HETATM   20  C14 UNL     1      23.861   5.261  51.631  1.00  0.00     0.138 A 
HETATM   21  F1  UNL     1      24.253   6.507  51.901  1.00  0.00    -0.204 F 
HETATM   22  C15 UNL     1      24.378   4.522  50.627  1.00  0.00     0.073 A 
HETATM   23 CL1  UNL     1      25.619   5.147  49.574  1.00  0.00    -0.081 Cl
HETATM   24  C16 UNL     1      23.875   3.284  50.497  1.00  0.00     0.041 A 
ENDBRANCH   1  17
BRANCH   2  25
HETATM   25  C9  UNL     1      20.915   2.449  49.808  1.00  0.00     0.134 C 
HETATM   26  C10 UNL     1      19.677   2.946  49.605  1.00  0.00     0.099 C 
BRANCH  26  27
HETATM   27  N4  UNL     1      18.613   3.923  49.606  1.00  0.00    -0.407 N 
HETATM   28  H11 UNL     1      18.873   4.251  50.598  1.00  0.00     0.155 HD
HETATM   29  H12 UNL     1      18.137   3.845  48.692  1.00  0.00     0.155 HD
ENDBRANCH  26  27
ENDBRANCH   2  25
TORSDOF 6
ENDMDL
MODEL 3
REMARK VINA RESULT:      -6.9      3.302      5.711
REMARK  6 active torsions:
REMARK  status: ('A' for Active; 'I' for Inactive)
REMARK       I    between atoms: C2_2  and  N1_4 
REMARK    1  A    between atoms: N1_4  and  C3_5 
REMARK    2  A    between atoms: C6_8  and  N2_9 
REMARK    3  A    between atoms: C7_10  and  C8_11 
REMARK    4  A    between atoms: C8_11  and  C11_16 
REMARK    5  A    between atoms: N3_12  and  C9_13 
REMARK    6  A    between atoms: C10_14  and  N4_15 
ROOT
HETATM    1  C8  UNL     1      22.536   2.117  52.032  1.00  0.00     0.079 C 
HETATM    2  N3  UNL     1      22.030   1.907  53.228  1.00  0.00    -0.258 NA
ENDROOT
BRANCH   1   3
HETATM    3  C7  UNL     1      23.037   2.563  50.750  1.00  0.00     0.017 A 
HETATM    4  C6  UNL     1      22.388   1.848  49.715  1.00  0.00     0.018 A 
HETATM    5  C5  UNL     1      22.498   2.186  48.360  1.00  0.00     0.026 A 
HETATM    6  C4  UNL     1      23.315   3.293  48.207  1.00  0.00     0.031 A 
HETATM    7  C3  UNL     1      23.944   3.994  49.198  1.00  0.00     0.035 A 
HETATM    8  C17 UNL     1      23.802   3.621  50.493  1.00  0.00     0.045 A 
BRANCH   4   9
HETATM    9  N2  UNL     1      21.521   0.768  49.898  1.00  0.00    -0.302 NA
HETATM   10  H7  UNL     1      21.074  -0.124  50.070  1.00  0.00     0.124 HD
HETATM   11  H8  UNL     1      21.419  -0.239  50.117  1.00  0.00     0.124 HD
ENDBRANCH   4   9
BRANCH   7  12
HETATM   12  N1  UNL     1      24.783   5.098  48.968  1.00  0.00    -0.327 N 
HETATM   13  C2  UNL     1      26.168   5.201  48.897  1.00  0.00     0.218 C 
HETATM   14  C1  UNL     1      27.101   6.290  48.652  1.00  0.00     0.117 C 
HETATM   15  O1  UNL     1      26.854   4.120  49.082  1.00  0.00    -0.274 OA
HETATM   16  H4  UNL     1      24.330   6.044  48.811  1.00  0.00     0.169 HD
ENDBRANCH   7  12
ENDBRANCH   1   3
BRANCH   1  17
HETATM   17  C11 UNL     1      23.936   1.661  52.515  1.00  0.00    -0.005 A 
HETATM   18  C12 UNL     1      24.775   2.448  53.353  1.00  0.00     0.017 A 
HETATM   19  C13 UNL     1      26.056   2.251  53.896  1.00  0.00     0.045 A 
HETATM   20  C14 UNL     1      26.613   1.012  53.521  1.00  0.00     0.138 A 
HETATM   21  F1  UNL     1      27.829   0.769  54.014  1.00  0.00    -0.204 F 
HETATM   22  C15 UNL     1      25.949   0.147  52.727  1.00  0.00     0.073 A 
HETATM   23 CL1  UNL     1      26.637  -1.386  52.262  1.00  0.00    -0.081 Cl
HETATM   24  C16 UNL     1      24.732   0.545  52.323  1.00  0.00     0.041 A 
ENDBRANCH   1  17
BRANCH   2  25
HETATM   25  C9  UNL     1      22.115   0.465  53.559  1.00  0.00     0.134 C 
HETATM   26  C10 UNL     1      21.728  -0.649  54.215  1.00  0.00     0.099 C 
BRANCH  26  27
HETATM   27  N4  UNL     1      21.734  -2.040  54.604  1.00  0.00    -0.407 N 
HETATM   28  H11 UNL     1      20.814  -1.922  55.152  1.00  0.00     0.155 HD
HETATM   29  H12 UNL     1      22.578  -2.463  54.183  1.00  0.00     0.155 HD
ENDBRANCH  26  27
ENDBRANCH   2  25
TORSDOF 6
ENDMDL
MODEL 4
REMARK VINA RESULT:      -6.8      3.647      5.149
REMARK  6 active torsions:
REMARK  status: ('A' for Active; 'I' for Inactive)
REMARK       I    between atoms: C2_2  and  N1_4 
REMARK    1  A    between atoms: N1_4  and  C3_5 
REMARK    2  A    between atoms: C6_8  and  N2_9 
REMARK    3  A    between atoms: C7_10  and  C8_11 
REMARK    4  A    between atoms: C8_11  and  C11_16 
REMARK    5  A    between atoms: N3_12  and  C9_13 
REMARK    6  A    between atoms: C10_14  and  N4_15 
ROOT
HETATM    1  C8  UNL     1      24.335   4.078  51.545  1.00  0.00     0.079 C 
HETATM    2  N3  UNL     1      23.987   5.343  51.442  1.00  0.00    -0.258 NA
ENDROOT
BRANCH   1   3
HETATM    3  C7  UNL     1      24.661   2.708  51.876  1.00  0.00     0.017 A 
HETATM    4  C6  UNL     1      26.007   2.444  51.521  1.00  0.00     0.018 A 
HETATM    5  C5  UNL     1      26.687   1.279  51.897  1.00  0.00     0.026 A 
HETATM    6  C4  UNL     1      25.859   0.460  52.645  1.00  0.00     0.031 A 
HETATM    7  C3  UNL     1      24.560   0.705  52.997  1.00  0.00     0.035 A 
HETATM    8  C17 UNL     1      23.951   1.850  52.604  1.00  0.00     0.045 A 
BRANCH   4   9
HETATM    9  N2  UNL     1      26.842   3.312  50.815  1.00  0.00    -0.302 NA
HETATM   10  H7  UNL     1      27.605   3.841  50.409  1.00  0.00     0.124 HD
HETATM   11  H8  UNL     1      27.810   3.629  50.627  1.00  0.00     0.124 HD
ENDBRANCH   4   9
BRANCH   7  12
HETATM   12  N1  UNL     1      23.766  -0.187  53.739  1.00  0.00    -0.327 N 
HETATM   13  C2  UNL     1      22.543  -0.785  53.454  1.00  0.00     0.218 C 
HETATM   14  C1  UNL     1      21.674  -1.718  54.154  1.00  0.00     0.117 C 
HETATM   15  O1  UNL     1      21.989  -0.491  52.323  1.00  0.00    -0.274 OA
HETATM   16  H4  UNL     1      24.118  -0.493  54.691  1.00  0.00     0.169 HD
ENDBRANCH   7  12
ENDBRANCH   1   3
BRANCH   1  17
HETATM   17  C11 UNL     1      23.223   3.662  50.550  1.00  0.00    -0.005 A 
HETATM   18  C12 UNL     1      23.477   2.987  49.323  1.00  0.00     0.017 A 
HETATM   19  C13 UNL     1      22.650   2.530  48.282  1.00  0.00     0.045 A 
HETATM   20  C14 UNL     1      21.288   2.807  48.519  1.00  0.00     0.138 A 
HETATM   21  F1  UNL     1      20.455   2.389  47.564  1.00  0.00    -0.204 F 
HETATM   22  C15 UNL     1      20.877   3.444  49.635  1.00  0.00     0.073 A 
HETATM   23 CL1  UNL     1      19.193   3.787  49.928  1.00  0.00    -0.081 Cl
HETATM   24  C16 UNL     1      21.846   3.791  50.497  1.00  0.00     0.041 A 
ENDBRANCH   1  17
BRANCH   2  25
HETATM   25  C9  UNL     1      24.212   5.809  50.054  1.00  0.00     0.134 C 
HETATM   26  C10 UNL     1      24.752   6.628  49.126  1.00  0.00     0.099 C 
BRANCH  26  27
HETATM   27  N4  UNL     1      25.031   7.158  47.812  1.00  0.00    -0.407 N 
HETATM   28  H11 UNL     1      25.510   6.241  47.511  1.00  0.00     0.155 HD
HETATM   29  H12 UNL     1      24.649   8.117  47.791  1.00  0.00     0.155 HD
ENDBRANCH  26  27
ENDBRANCH   2  25
TORSDOF 6
ENDMDL
MODEL 5
REMARK VINA RESULT:      -6.7      9.642     11.479
REMARK  6 active torsions:
REMARK  status: ('A' for Active; 'I' for Inactive)
REMARK       I    between atoms: C2_2  and  N1_4 
REMARK    1  A    between atoms: N1_4  and  C3_5 
REMARK    2  A    between atoms: C6_8  and  N2_9 
REMARK    3  A    between atoms: C7_10  and  C8_11 
REMARK    4  A    between atoms: C8_11  and  C11_16 
REMARK    5  A    between atoms: N3_12  and  C9_13 
REMARK    6  A    between atoms: C10_14  and  N4_15 
ROOT
HETATM    1  C8  UNL     1      31.772   6.965  48.459  1.00  0.00     0.079 C 
HETATM    2  N3  UNL     1      31.513   7.608  49.577  1.00  0.00    -0.258 NA
ENDROOT
BRANCH   1   3
HETATM    3  C7  UNL     1      32.106   6.083  47.362  1.00  0.00     0.017 A 
HETATM    4  C6  UNL     1      33.083   6.699  46.542  1.00  0.00     0.018 A 
HETATM    5  C5  UNL     1      33.763   6.026  45.520  1.00  0.00     0.026 A 
HETATM    6  C4  UNL     1      33.340   4.710  45.446  1.00  0.00     0.031 A 
HETATM    7  C3  UNL     1      32.402   4.104  46.234  1.00  0.00     0.035 A 
HETATM    8  C17 UNL     1      31.773   4.804  47.210  1.00  0.00     0.045 A 
BRANCH   4   9
HETATM    9  N2  UNL     1      33.536   8.014  46.672  1.00  0.00    -0.302 NA
HETATM   10  H7  UNL     1      33.654   9.014  46.774  1.00  0.00     0.124 HD
HETATM   11  H8  UNL     1      33.288   9.014  46.775  1.00  0.00     0.124 HD
ENDBRANCH   4   9
BRANCH   7  12
HETATM   12  N1  UNL     1      32.000   2.764  46.087  1.00  0.00    -0.327 N 
HETATM   13  C2  UNL     1      32.315   1.624  46.818  1.00  0.00     0.218 C 
HETATM   14  C1  UNL     1      31.935   0.222  46.740  1.00  0.00     0.117 C 
HETATM   15  O1  UNL     1      33.129   1.764  47.813  1.00  0.00    -0.274 OA
HETATM   16  H4  UNL     1      31.335   2.528  45.296  1.00  0.00     0.169 HD
ENDBRANCH   7  12
ENDBRANCH   1   3
BRANCH   1  17
HETATM   17  C11 UNL     1      30.300   7.118  47.999  1.00  0.00    -0.005 A 
HETATM   18  C12 UNL     1      29.903   7.905  46.882  1.00  0.00     0.017 A 
HETATM   19  C13 UNL     1      28.658   8.194  46.297  1.00  0.00     0.045 A 
HETATM   20  C14 UNL     1      27.591   7.567  46.971  1.00  0.00     0.138 A 
HETATM   21  F1  UNL     1      26.383   7.801  46.454  1.00  0.00    -0.204 F 
HETATM   22  C15 UNL     1      27.795   6.787  48.053  1.00  0.00     0.073 A 
HETATM   23 CL1  UNL     1      26.475   6.011  48.887  1.00  0.00    -0.081 Cl
HETATM   24  C16 UNL     1      29.074   6.651  48.438  1.00  0.00     0.041 A 
ENDBRANCH   1  17
BRANCH   2  25
HETATM   25  C9  UNL     1      31.118   9.003  49.270  1.00  0.00     0.134 C 
HETATM   26  C10 UNL     1      30.693  10.240  49.603  1.00  0.00     0.099 C 
BRANCH  26  27
HETATM   27  N4  UNL     1      30.290  11.612  49.404  1.00  0.00    -0.407 N 
HETATM   28  H11 UNL     1      30.336  11.503  48.334  1.00  0.00     0.155 HD
HETATM   29  H12 UNL     1      30.151  12.020  50.343  1.00  0.00     0.155 HD
ENDBRANCH  26  27
ENDBRANCH   2  25
TORSDOF 6
ENDMDL
MODEL 6
REMARK VINA RESULT:      -6.6     10.622     13.258
REMARK  6 active torsions:
REMARK  status: ('A' for Active; 'I' for Inactive)
REMARK       I    between atoms: C2_2  and  N1_4 
REMARK    1  A    between atoms: N1_4  and  C3_5 
REMARK    2  A    between atoms: C6_8  and  N2_9 
REMARK    3  A    between atoms: C7_10  and  C8_11 
REMARK    4  A    between atoms: C8_11  and  C11_16 
REMARK    5  A    between atoms: N3_12  and  C9_13 
REMARK    6  A    between atoms: C10_14  and  N4_15 
ROOT
HETATM    1  C8  UNL     1      32.014   7.666  45.675  1.00  0.00     0.079 C 
HETATM    2  N3  UNL     1      32.535   7.572  44.471  1.00  0.00    -0.258 NA
ENDROOT
BRANCH   1   3
HETATM    3  C7  UNL     1      31.247   7.706  46.901  1.00  0.00     0.017 A 
HETATM    4  C6  UNL     1      31.399   8.975  47.511  1.00  0.00     0.018 A 
HETATM    5  C5  UNL     1      30.627   9.403  48.598  1.00  0.00     0.026 A 
HETATM    6  C4  UNL     1      29.726   8.419  48.964  1.00  0.00     0.031 A 
HETATM    7  C3  UNL     1      29.568   7.191  48.382  1.00  0.00     0.035 A 
HETATM    8  C17 UNL     1      30.344   6.830  47.331  1.00  0.00     0.045 A 
BRANCH   4   9
HETATM    9  N2  UNL     1      32.276   9.976  47.088  1.00  0.00    -0.302 NA
HETATM   10  H7  UNL     1      32.912  10.758  46.988  1.00  0.00     0.124 HD
HETATM   11  H8  UNL     1      32.856  10.794  47.349  1.00  0.00     0.124 HD
ENDBRANCH   4   9
BRANCH   7  12
HETATM   12  N1  UNL     1      28.647   6.226  48.823  1.00  0.00    -0.327 N 
HETATM   13  C2  UNL     1      27.282   6.083  48.594  1.00  0.00     0.218 C 
HETATM   14  C1  UNL     1      26.273   5.117  48.999  1.00  0.00     0.117 C 
HETATM   15  O1  UNL     1      26.707   6.981  47.861  1.00  0.00    -0.274 OA
HETATM   16  H4  UNL     1      29.004   5.442  49.441  1.00  0.00     0.169 HD
ENDBRANCH   7  12
ENDBRANCH   1   3
BRANCH   1  17
HETATM   17  C11 UNL     1      32.946   6.542  46.195  1.00  0.00    -0.005 A 
HETATM   18  C12 UNL     1      33.046   5.259  45.589  1.00  0.00     0.017 A 
HETATM   19  C13 UNL     1      33.794   4.106  45.883  1.00  0.00     0.045 A 
HETATM   20  C14 UNL     1      34.611   4.273  47.020  1.00  0.00     0.138 A 
HETATM   21  F1  UNL     1      35.350   3.211  47.344  1.00  0.00    -0.204 F 
HETATM   22  C15 UNL     1      34.632   5.430  47.714  1.00  0.00     0.073 A 
HETATM   23 CL1  UNL     1      35.640   5.637  49.122  1.00  0.00    -0.081 Cl
HETATM   24  C16 UNL     1      33.830   6.402  47.249  1.00  0.00     0.041 A 
ENDBRANCH   1  17
BRANCH   2  25
HETATM   25  C9  UNL     1      33.967   7.948  44.518  1.00  0.00     0.134 C 
HETATM   26  C10 UNL     1      34.997   8.807  44.364  1.00  0.00     0.099 C 
BRANCH  26  27
HETATM   27  N4  UNL     1      36.366   9.267  44.374  1.00  0.00    -0.407 N 
HETATM   28  H11 UNL     1      36.299   9.588  43.349  1.00  0.00     0.155 HD
HETATM   29  H12 UNL     1      36.735   9.080  45.322  1.00  0.00     0.155 HD
ENDBRANCH  26  27
ENDBRANCH   2  25
TORSDOF 6
ENDMDL
MODEL 7
REMARK VINA RESULT:      -6.3     10.428     13.126
REMARK  6 active torsions:
REMARK  status: ('A' for Active; 'I' for Inactive)
REMARK       I    between atoms: C2_2  and  N1_4 
REMARK    1  A    between atoms: N1_4  and  C3_5 
REMARK    2  A    between atoms: C6_8  and  N2_9 
REMARK    3  A    between atoms: C7_10  and  C8_11 
REMARK    4  A    between atoms: C8_11  and  C11_16 
REMARK    5  A    between atoms: N3_12  and  C9_13 
REMARK    6  A    between atoms: C10_14  and  N4_15 
ROOT
HETATM    1  C8  UNL     1      32.274   6.347  48.834  1.00  0.00     0.079 C 
HETATM    2  N3  UNL     1      33.375   5.712  49.172  1.00  0.00    -0.258 NA
ENDROOT
BRANCH   1   3
HETATM    3  C7  UNL     1      31.057   7.114  48.677  1.00  0.00     0.017 A 
HETATM    4  C6  UNL     1      30.017   6.263  48.231  1.00  0.00     0.018 A 
HETATM    5  C5  UNL     1      28.673   6.653  48.180  1.00  0.00     0.026 A 
HETATM    6  C4  UNL     1      28.535   7.958  48.620  1.00  0.00     0.031 A 
HETATM    7  C3  UNL     1      29.530   8.788  49.055  1.00  0.00     0.035 A 
HETATM    8  C17 UNL     1      30.815   8.357  49.083  1.00  0.00     0.045 A 
BRANCH   4   9
HETATM    9  N2  UNL     1      30.172   4.929  47.846  1.00  0.00    -0.302 NA
HETATM   10  H7  UNL     1      30.239   3.921  47.773  1.00  0.00     0.124 HD
HETATM   11  H8  UNL     1      30.162   3.934  48.131  1.00  0.00     0.124 HD
ENDBRANCH   4   9
BRANCH   7  12
HETATM   12  N1  UNL     1      29.321  10.116  49.465  1.00  0.00    -0.327 N 
HETATM   13  C2  UNL     1      29.194  11.295  48.737  1.00  0.00     0.218 C 
HETATM   14  C1  UNL     1      28.965  12.690  49.081  1.00  0.00     0.117 C 
HETATM   15  O1  UNL     1      29.290  11.209  47.450  1.00  0.00    -0.274 OA
HETATM   16  H4  UNL     1      29.234  10.309  50.504  1.00  0.00     0.169 HD
ENDBRANCH   7  12
ENDBRANCH   1   3
BRANCH   1  17
HETATM   17  C11 UNL     1      33.056   7.223  47.823  1.00  0.00    -0.005 A 
HETATM   18  C12 UNL     1      34.137   8.073  48.189  1.00  0.00     0.017 A 
HETATM   19  C13 UNL     1      34.968   8.946  47.466  1.00  0.00     0.045 A 
HETATM   20  C14 UNL     1      34.650   8.974  46.093  1.00  0.00     0.138 A 
HETATM   21  F1  UNL     1      35.413   9.782  45.355  1.00  0.00    -0.204 F 
HETATM   22  C15 UNL     1      33.649   8.228  45.581  1.00  0.00     0.073 A 
HETATM   23 CL1  UNL     1      33.255   8.263  43.883  1.00  0.00    -0.081 Cl
HETATM   24  C16 UNL     1      32.984   7.464  46.462  1.00  0.00     0.041 A 
ENDBRANCH   1  17
BRANCH   2  25
HETATM   25  C9  UNL     1      33.898   4.966  48.004  1.00  0.00     0.134 C 
HETATM   26  C10 UNL     1      34.673   4.030  47.416  1.00  0.00     0.099 C 
BRANCH  26  27
HETATM   27  N4  UNL     1      35.242   3.249  46.342  1.00  0.00    -0.407 N 
HETATM   28  H11 UNL     1      35.503   2.453  47.019  1.00  0.00     0.155 HD
HETATM   29  H12 UNL     1      35.126   3.803  45.478  1.00  0.00     0.155 HD
ENDBRANCH  26  27
ENDBRANCH   2  25
TORSDOF 6
ENDMDL
MODEL 8
REMARK VINA RESULT:      -6.3     10.774     12.302
REMARK  6 active torsions:
REMARK  status: ('A' for Active; 'I' for Inactive)
REMARK       I    between atoms: C2_2  and  N1_4 
REMARK    1  A    between atoms: N1_4  and  C3_5 
REMARK    2  A    between atoms: C6_8  and  N2_9 
REMARK    3  A    between atoms: C7_10  and  C8_11 
REMARK    4  A    between atoms: C8_11  and  C11_16 
REMARK    5  A    between atoms: N3_12  and  C9_13 
REMARK    6  A    between atoms: C10_14  and  N4_15 
ROOT
HETATM    1  C8  UNL     1      31.788   8.125  49.114  1.00  0.00     0.079 C 
HETATM    2  N3  UNL     1      30.985   8.951  49.749  1.00  0.00    -0.258 NA
ENDROOT
BRANCH   1   3
HETATM    3  C7  UNL     1      32.620   7.069  48.579  1.00  0.00     0.017 A 
HETATM    4  C6  UNL     1      33.919   7.573  48.327  1.00  0.00     0.018 A 
HETATM    5  C5  UNL     1      35.010   6.758  48.001  1.00  0.00     0.026 A 
HETATM    6  C4  UNL     1      34.624   5.429  47.967  1.00  0.00     0.031 A 
HETATM    7  C3  UNL     1      33.374   4.930  48.212  1.00  0.00     0.035 A 
HETATM    8  C17 UNL     1      32.354   5.766  48.522  1.00  0.00     0.045 A 
BRANCH   4   9
HETATM    9  N2  UNL     1      34.299   8.913  48.423  1.00  0.00    -0.302 NA
HETATM   10  H7  UNL     1      34.760   9.804  48.566  1.00  0.00     0.124 HD
HETATM   11  H8  UNL     1      35.036   9.593  48.684  1.00  0.00     0.124 HD
ENDBRANCH   4   9
BRANCH   7  12
HETATM   12  N1  UNL     1      33.045   3.566  48.134  1.00  0.00    -0.327 N 
HETATM   13  C2  UNL     1      32.673   2.769  47.056  1.00  0.00     0.218 C 
HETATM   14  C1  UNL     1      32.334   1.364  46.893  1.00  0.00     0.117 C 
HETATM   15  O1  UNL     1      32.588   3.340  45.899  1.00  0.00    -0.274 OA
HETATM   16  H4  UNL     1      33.073   2.995  49.027  1.00  0.00     0.169 HD
ENDBRANCH   7  12
ENDBRANCH   1   3
BRANCH   1  17
HETATM   17  C11 UNL     1      30.874   8.154  47.863  1.00  0.00    -0.005 A 
HETATM   18  C12 UNL     1      29.518   7.723  47.869  1.00  0.00     0.017 A 
HETATM   19  C13 UNL     1      28.523   7.648  46.879  1.00  0.00     0.045 A 
HETATM   20  C14 UNL     1      28.981   8.097  45.624  1.00  0.00     0.138 A 
HETATM   21  F1  UNL     1      28.075   8.055  44.645  1.00  0.00    -0.204 F 
HETATM   22  C15 UNL     1      30.244   8.537  45.446  1.00  0.00     0.073 A 
HETATM   23 CL1  UNL     1      30.812   9.091  43.893  1.00  0.00    -0.081 Cl
HETATM   24  C16 UNL     1      31.026   8.519  46.537  1.00  0.00     0.041 A 
ENDBRANCH   1  17
BRANCH   2  25
HETATM   25  C9  UNL     1      30.960  10.257  49.049  1.00  0.00     0.134 C 
HETATM   26  C10 UNL     1      30.757  11.590  48.984  1.00  0.00     0.099 C 
BRANCH  26  27
HETATM   27  N4  UNL     1      30.700  12.905  48.390  1.00  0.00    -0.407 N 
HETATM   28  H11 UNL     1      30.664  13.374  49.358  1.00  0.00     0.155 HD
HETATM   29  H12 UNL     1      30.724  12.770  47.365  1.00  0.00     0.155 HD
ENDBRANCH  26  27
ENDBRANCH   2  25
TORSDOF 6
ENDMDL
MODEL 9
REMARK VINA RESULT:      -6.3     10.010     11.920
REMARK  6 active torsions:
REMARK  status: ('A' for Active; 'I' for Inactive)
REMARK       I    between atoms: C2_2  and  N1_4 
REMARK    1  A    between atoms: N1_4  and  C3_5 
REMARK    2  A    between atoms: C6_8  and  N2_9 
REMARK    3  A    between atoms: C7_10  and  C8_11 
REMARK    4  A    between atoms: C8_11  and  C11_16 
REMARK    5  A    between atoms: N3_12  and  C9_13 
REMARK    6  A    between atoms: C10_14  and  N4_15 
ROOT
HETATM    1  C8  UNL     1      29.681   7.116  47.280  1.00  0.00     0.079 C 
HETATM    2  N3  UNL     1      28.417   7.453  47.137  1.00  0.00    -0.258 NA
ENDROOT
BRANCH   1   3
HETATM    3  C7  UNL     1      31.064   6.694  47.218  1.00  0.00     0.017 A 
HETATM    4  C6  UNL     1      31.335   5.804  48.285  1.00  0.00     0.018 A 
HETATM    5  C5  UNL     1      32.518   5.062  48.386  1.00  0.00     0.026 A 
HETATM    6  C4  UNL     1      33.347   5.332  47.312  1.00  0.00     0.031 A 
HETATM    7  C3  UNL     1      33.096   6.187  46.274  1.00  0.00     0.035 A 
HETATM    8  C17 UNL     1      31.933   6.881  46.228  1.00  0.00     0.045 A 
BRANCH   4   9
HETATM    9  N2  UNL     1      30.457   5.502  49.330  1.00  0.00    -0.302 NA
HETATM   10  H7  UNL     1      29.882   5.081  50.048  1.00  0.00     0.124 HD
HETATM   11  H8  UNL     1      30.026   4.770  49.920  1.00  0.00     0.124 HD
ENDBRANCH   4   9
BRANCH   7  12
HETATM   12  N1  UNL     1      33.998   6.434  45.225  1.00  0.00    -0.327 N 
HETATM   13  C2  UNL     1      34.159   5.822  43.986  1.00  0.00     0.218 C 
HETATM   14  C1  UNL     1      35.048   6.026  42.853  1.00  0.00     0.117 C 
HETATM   15  O1  UNL     1      33.371   4.835  43.706  1.00  0.00    -0.274 OA
HETATM   16  H4  UNL     1      34.700   7.220  45.346  1.00  0.00     0.169 HD
ENDBRANCH   7  12
ENDBRANCH   1   3
BRANCH   1  17
HETATM   17  C11 UNL     1      30.053   8.569  47.668  1.00  0.00    -0.005 A 
HETATM   18  C12 UNL     1      30.485   8.951  48.969  1.00  0.00     0.017 A 
HETATM   19  C13 UNL     1      30.856  10.179  49.542  1.00  0.00     0.045 A 
HETATM   20  C14 UNL     1      30.780  11.245  48.622  1.00  0.00     0.138 A 
HETATM   21  F1  UNL     1      31.128  12.437  49.111  1.00  0.00    -0.204 F 
HETATM   22  C15 UNL     1      30.385  11.054  47.346  1.00  0.00     0.073 A 
HETATM   23 CL1  UNL     1      30.288  12.372  46.209  1.00  0.00    -0.081 Cl
HETATM   24  C16 UNL     1      30.075   9.790  47.017  1.00  0.00     0.041 A 
ENDBRANCH   1  17
BRANCH   2  25
HETATM   25  C9  UNL     1      27.868   7.890  48.442  1.00  0.00     0.134 C 
HETATM   26  C10 UNL     1      26.974   7.847  49.452  1.00  0.00     0.099 C 
BRANCH  26  27
HETATM   27  N4  UNL     1      26.363   8.205  50.711  1.00  0.00    -0.407 N 
HETATM   28  H11 UNL     1      26.441   7.194  51.072  1.00  0.00     0.155 HD
HETATM   29  H12 UNL     1      26.158   9.217  50.665  1.00  0.00     0.155 HD
ENDBRANCH  26  27
ENDBRANCH   2  25
TORSDOF 6
ENDMDL
