MODEL 1
REMARK VINA RESULT:      -7.9      0.000      0.000
REMARK  4 active torsions:
REMARK  status: ('A' for Active; 'I' for Inactive)
REMARK    1  A    between atoms: O1_2  and  C2_3 
REMARK    2  A    between atoms: C5_6  and  N1_7 
REMARK       I    between atoms: N1_7  and  C6_8 
REMARK       I    between atoms: C6_8  and  N3_10 
REMARK       I    between atoms: C7_11  and  N4_12 
REMARK       I    between atoms: C7_11  and  N5_15 
REMARK    3  A    between atoms: N5_15  and  C9_16 
REMARK    4  A    between atoms: C9_16  and  C10_17 
ROOT
HETATM    1  N1  UNL     1      24.607   2.903  51.040  1.00  0.00    -0.188 N 
HETATM    2  C6  UNL     1      24.782   2.950  52.447  1.00  0.00     0.735 C 
HETATM    3  N2  UNL     1      24.466   3.998  53.113  1.00  0.00    -0.115 NA
HETATM    4  N3  UNL     1      25.313   1.788  53.103  1.00  0.00     0.130 NA
HETATM    5  C7  UNL     1      24.633   0.733  53.353  1.00  0.00     0.739 C 
HETATM    6  N4  UNL     1      23.263   0.574  53.013  1.00  0.00    -0.063 NA
HETATM    7  C8  UNL     1      22.709  -0.557  52.832  1.00  0.00     0.220 C 
HETATM    8 CL1  UNL     1      21.089  -0.027  52.460  1.00  0.00    -0.075 Cl
HETATM    9  N5  UNL     1      25.317  -0.318  54.007  1.00  0.00    -0.216 N 
HETATM   10  H6  UNL     1      24.163   2.054  50.588  1.00  0.00     0.184 HD
HETATM   11  H7  UNL     1      24.078   4.822  52.624  1.00  0.00     0.206 HD
HETATM   12  H9  UNL     1      25.095  -1.327  53.742  1.00  0.00     0.178 HD
ENDROOT
BRANCH   1  13
HETATM   13  C5  UNL     1      25.034   3.979  50.217  1.00  0.00     0.049 A 
HETATM   14  C4  UNL     1      24.299   5.056  49.797  1.00  0.00     0.033 A 
HETATM   15  C3  UNL     1      24.811   6.038  48.987  1.00  0.00     0.039 A 
HETATM   16  C2  UNL     1      26.115   5.992  48.543  1.00  0.00     0.068 A 
HETATM   17  C15 UNL     1      26.912   4.937  48.927  1.00  0.00     0.039 A 
HETATM   18  C14 UNL     1      26.349   3.982  49.739  1.00  0.00     0.033 A 
BRANCH  16  19
HETATM   19  O1  UNL     1      26.607   6.997  47.724  1.00  0.00    -0.356 OA
HETATM   20  C1  UNL     1      27.996   7.274  47.730  1.00  0.00     0.210 C 
ENDBRANCH  16  19
ENDBRANCH   1  13
BRANCH   9  21
HETATM   21  C9  UNL     1      26.314  -0.124  55.030  1.00  0.00     0.203 C 
BRANCH  21  22
HETATM   22  C10 UNL     1      27.670  -0.206  54.467  1.00  0.00     0.070 A 
HETATM   23  C11 UNL     1      28.744   0.630  54.428  1.00  0.00     0.036 A 
HETATM   24  C12 UNL     1      29.784   0.028  53.753  1.00  0.00     0.027 A 
HETATM   25  C13 UNL     1      29.271  -1.211  53.391  1.00  0.00     0.142 A 
HETATM   26  O2  UNL     1      28.047  -1.299  53.827  1.00  0.00    -0.325 OA
ENDBRANCH  21  22
ENDBRANCH   9  21
TORSDOF 4
ENDMDL
MODEL 2
REMARK VINA RESULT:      -7.4      1.929      2.603
REMARK  4 active torsions:
REMARK  status: ('A' for Active; 'I' for Inactive)
REMARK    1  A    between atoms: O1_2  and  C2_3 
REMARK    2  A    between atoms: C5_6  and  N1_7 
REMARK       I    between atoms: N1_7  and  C6_8 
REMARK       I    between atoms: C6_8  and  N3_10 
REMARK       I    between atoms: C7_11  and  N4_12 
REMARK       I    between atoms: C7_11  and  N5_15 
REMARK    3  A    between atoms: N5_15  and  C9_16 
REMARK    4  A    between atoms: C9_16  and  C10_17 
ROOT
HETATM    1  N1  UNL     1      25.252   4.186  49.359  1.00  0.00    -0.188 N 
HETATM    2  C6  UNL     1      24.842   4.180  50.717  1.00  0.00     0.735 C 
HETATM    3  N2  UNL     1      24.537   5.272  51.315  1.00  0.00    -0.115 NA
HETATM    4  N3  UNL     1      24.768   2.918  51.398  1.00  0.00     0.130 NA
HETATM    5  C7  UNL     1      23.818   2.074  51.242  1.00  0.00     0.739 C 
HETATM    6  N4  UNL     1      22.712   2.277  50.375  1.00  0.00    -0.063 NA
HETATM    7  C8  UNL     1      22.032   1.328  49.868  1.00  0.00     0.220 C 
HETATM    8 CL1  UNL     1      20.880   2.262  48.947  1.00  0.00    -0.075 Cl
HETATM    9  N5  UNL     1      23.907   0.879  51.994  1.00  0.00    -0.216 N 
HETATM   10  H6  UNL     1      24.846   3.482  48.679  1.00  0.00     0.184 HD
HETATM   11  H7  UNL     1      24.588   6.170  50.806  1.00  0.00     0.206 HD
HETATM   12  H9  UNL     1      23.583  -0.036  51.554  1.00  0.00     0.178 HD
ENDROOT
BRANCH   1  13
HETATM   13  C5  UNL     1      26.218   5.118  48.894  1.00  0.00     0.049 A 
HETATM   14  C4  UNL     1      26.014   6.418  48.515  1.00  0.00     0.033 A 
HETATM   15  C3  UNL     1      27.023   7.231  48.066  1.00  0.00     0.039 A 
HETATM   16  C2  UNL     1      28.320   6.774  47.969  1.00  0.00     0.068 A 
HETATM   17  C15 UNL     1      28.598   5.477  48.334  1.00  0.00     0.039 A 
HETATM   18  C14 UNL     1      27.550   4.706  48.778  1.00  0.00     0.033 A 
BRANCH  16  19
HETATM   19  O1  UNL     1      29.322   7.617  47.511  1.00  0.00    -0.356 OA
HETATM   20  C1  UNL     1      30.606   7.549  48.105  1.00  0.00     0.210 C 
ENDBRANCH  16  19
ENDBRANCH   1  13
BRANCH   9  21
HETATM   21  C9  UNL     1      24.413   0.805  53.341  1.00  0.00     0.203 C 
BRANCH  21  22
HETATM   22  C10 UNL     1      25.787   0.279  53.361  1.00  0.00     0.070 A 
HETATM   23  C11 UNL     1      26.569  -0.392  52.473  1.00  0.00     0.036 A 
HETATM   24  C12 UNL     1      27.804  -0.643  53.030  1.00  0.00     0.027 A 
HETATM   25  C13 UNL     1      27.715  -0.087  54.299  1.00  0.00     0.142 A 
HETATM   26  O2  UNL     1      26.530   0.435  54.443  1.00  0.00    -0.325 OA
ENDBRANCH  21  22
ENDBRANCH   9  21
TORSDOF 4
ENDMDL
MODEL 3
REMARK VINA RESULT:      -7.4      2.450      2.986
REMARK  4 active torsions:
REMARK  status: ('A' for Active; 'I' for Inactive)
REMARK    1  A    between atoms: O1_2  and  C2_3 
REMARK    2  A    between atoms: C5_6  and  N1_7 
REMARK       I    between atoms: N1_7  and  C6_8 
REMARK       I    between atoms: C6_8  and  N3_10 
REMARK       I    between atoms: C7_11  and  N4_12 
REMARK       I    between atoms: C7_11  and  N5_15 
REMARK    3  A    between atoms: N5_15  and  C9_16 
REMARK    4  A    between atoms: C9_16  and  C10_17 
ROOT
HETATM    1  N1  UNL     1      23.021   1.634  50.936  1.00  0.00    -0.188 N 
HETATM    2  C6  UNL     1      23.584   2.185  52.116  1.00  0.00     0.735 C 
HETATM    3  N2  UNL     1      23.178   3.311  52.574  1.00  0.00    -0.115 NA
HETATM    4  N3  UNL     1      24.611   1.440  52.789  1.00  0.00     0.130 NA
HETATM    5  C7  UNL     1      24.389   0.418  53.527  1.00  0.00     0.739 C 
HETATM    6  N4  UNL     1      23.095  -0.114  53.777  1.00  0.00    -0.063 NA
HETATM    7  C8  UNL     1      22.882  -1.326  54.100  1.00  0.00     0.220 C 
HETATM    8 CL1  UNL     1      21.144  -1.282  54.246  1.00  0.00    -0.075 Cl
HETATM    9  N5  UNL     1      25.521  -0.196  54.112  1.00  0.00    -0.216 N 
HETATM   10  H6  UNL     1      22.742   0.613  50.908  1.00  0.00     0.184 HD
HETATM   11  H7  UNL     1      22.432   3.829  52.080  1.00  0.00     0.206 HD
HETATM   12  H9  UNL     1      25.546  -1.258  54.206  1.00  0.00     0.178 HD
ENDROOT
BRANCH   1  13
HETATM   13  C5  UNL     1      22.837   2.433  49.777  1.00  0.00     0.049 A 
HETATM   14  C4  UNL     1      23.468   3.606  49.457  1.00  0.00     0.033 A 
HETATM   15  C3  UNL     1      23.202   4.307  48.309  1.00  0.00     0.039 A 
HETATM   16  C2  UNL     1      22.269   3.861  47.398  1.00  0.00     0.068 A 
HETATM   17  C15 UNL     1      21.596   2.688  47.654  1.00  0.00     0.039 A 
HETATM   18  C14 UNL     1      21.901   2.026  48.819  1.00  0.00     0.033 A 
BRANCH  16  19
HETATM   19  O1  UNL     1      22.019   4.590  46.244  1.00  0.00    -0.356 OA
HETATM   20  C1  UNL     1      21.579   3.912  45.082  1.00  0.00     0.210 C 
ENDBRANCH  16  19
ENDBRANCH   1  13
BRANCH   9  21
HETATM   21  C9  UNL     1      26.669   0.523  54.604  1.00  0.00     0.203 C 
BRANCH  21  22
HETATM   22  C10 UNL     1      27.919  -0.091  54.132  1.00  0.00     0.070 A 
HETATM   23  C11 UNL     1      29.206   0.332  54.003  1.00  0.00     0.036 A 
HETATM   24  C12 UNL     1      29.986  -0.683  53.493  1.00  0.00     0.027 A 
HETATM   25  C13 UNL     1      29.094  -1.734  53.325  1.00  0.00     0.142 A 
HETATM   26  O2  UNL     1      27.912  -1.343  53.708  1.00  0.00    -0.325 OA
ENDBRANCH  21  22
ENDBRANCH   9  21
TORSDOF 4
ENDMDL
MODEL 4
REMARK VINA RESULT:      -7.3      3.509      7.642
REMARK  4 active torsions:
REMARK  status: ('A' for Active; 'I' for Inactive)
REMARK    1  A    between atoms: O1_2  and  C2_3 
REMARK    2  A    between atoms: C5_6  and  N1_7 
REMARK       I    between atoms: N1_7  and  C6_8 
REMARK       I    between atoms: C6_8  and  N3_10 
REMARK       I    between atoms: C7_11  and  N4_12 
REMARK       I    between atoms: C7_11  and  N5_15 
REMARK    3  A    between atoms: N5_15  and  C9_16 
REMARK    4  A    between atoms: C9_16  and  C10_17 
ROOT
HETATM    1  N1  UNL     1      24.065   3.440  51.633  1.00  0.00    -0.188 N 
HETATM    2  C6  UNL     1      24.444   3.418  50.267  1.00  0.00     0.735 C 
HETATM    3  N2  UNL     1      23.693   2.868  49.385  1.00  0.00    -0.115 NA
HETATM    4  N3  UNL     1      25.687   4.037  49.898  1.00  0.00     0.130 NA
HETATM    5  C7  UNL     1      25.854   5.301  49.789  1.00  0.00     0.739 C 
HETATM    6  N4  UNL     1      24.830   6.258  50.020  1.00  0.00    -0.063 NA
HETATM    7  C8  UNL     1      25.056   7.463  50.359  1.00  0.00     0.220 C 
HETATM    8 CL1  UNL     1      23.414   8.044  50.466  1.00  0.00    -0.075 Cl
HETATM    9  N5  UNL     1      27.146   5.737  49.417  1.00  0.00    -0.216 N 
HETATM   10  H6  UNL     1      24.152   4.335  52.194  1.00  0.00     0.184 HD
HETATM   11  H7  UNL     1      22.798   2.436  49.669  1.00  0.00     0.206 HD
HETATM   12  H9  UNL     1      27.537   6.631  49.847  1.00  0.00     0.178 HD
ENDROOT
BRANCH   1  13
HETATM   13  C5  UNL     1      23.579   2.269  52.273  1.00  0.00     0.049 A 
HETATM   14  C4  UNL     1      22.281   1.958  52.581  1.00  0.00     0.033 A 
HETATM   15  C3  UNL     1      21.923   0.797  53.216  1.00  0.00     0.039 A 
HETATM   16  C2  UNL     1      22.866  -0.137  53.586  1.00  0.00     0.068 A 
HETATM   17  C15 UNL     1      24.191   0.109  53.308  1.00  0.00     0.039 A 
HETATM   18  C14 UNL     1      24.495   1.288  52.669  1.00  0.00     0.033 A 
BRANCH  16  19
HETATM   19  O1  UNL     1      22.477  -1.303  54.228  1.00  0.00    -0.356 OA
HETATM   20  C1  UNL     1      21.097  -1.568  54.401  1.00  0.00     0.210 C 
ENDBRANCH  16  19
ENDBRANCH   1  13
BRANCH   9  21
HETATM   21  C9  UNL     1      27.994   5.048  48.476  1.00  0.00     0.203 C 
BRANCH  21  22
HETATM   22  C10 UNL     1      29.220   5.817  48.210  1.00  0.00     0.070 A 
HETATM   23  C11 UNL     1      29.490   7.024  47.644  1.00  0.00     0.036 A 
HETATM   24  C12 UNL     1      30.849   7.254  47.653  1.00  0.00     0.027 A 
HETATM   25  C13 UNL     1      31.374   6.118  48.254  1.00  0.00     0.142 A 
HETATM   26  O2  UNL     1      30.393   5.317  48.559  1.00  0.00    -0.325 OA
ENDBRANCH  21  22
ENDBRANCH   9  21
TORSDOF 4
ENDMDL
MODEL 5
REMARK VINA RESULT:      -7.2      3.664      7.303
REMARK  4 active torsions:
REMARK  status: ('A' for Active; 'I' for Inactive)
REMARK    1  A    between atoms: O1_2  and  C2_3 
REMARK    2  A    between atoms: C5_6  and  N1_7 
REMARK       I    between atoms: N1_7  and  C6_8 
REMARK       I    between atoms: C6_8  and  N3_10 
REMARK       I    between atoms: C7_11  and  N4_12 
REMARK       I    between atoms: C7_11  and  N5_15 
REMARK    3  A    between atoms: N5_15  and  C9_16 
REMARK    4  A    between atoms: C9_16  and  C10_17 
ROOT
HETATM    1  N1  UNL     1      24.986   2.268  51.495  1.00  0.00    -0.188 N 
HETATM    2  C6  UNL     1      24.054   2.995  52.278  1.00  0.00     0.735 C 
HETATM    3  N2  UNL     1      24.441   3.682  53.289  1.00  0.00    -0.115 NA
HETATM    4  N3  UNL     1      22.669   2.950  51.901  1.00  0.00     0.130 NA
HETATM    5  C7  UNL     1      22.170   3.612  50.926  1.00  0.00     0.739 C 
HETATM    6  N4  UNL     1      22.922   4.480  50.089  1.00  0.00    -0.063 NA
HETATM    7  C8  UNL     1      22.586   4.775  48.898  1.00  0.00     0.220 C 
HETATM    8 CL1  UNL     1      23.906   5.838  48.483  1.00  0.00    -0.075 Cl
HETATM    9  N5  UNL     1      20.784   3.447  50.695  1.00  0.00    -0.216 N 
HETATM   10  H6  UNL     1      24.944   2.317  50.437  1.00  0.00     0.184 HD
HETATM   11  H7  UNL     1      25.443   3.709  53.541  1.00  0.00     0.206 HD
HETATM   12  H9  UNL     1      20.423   3.433  49.692  1.00  0.00     0.178 HD
ENDROOT
BRANCH   1  13
HETATM   13  C5  UNL     1      25.974   1.453  52.109  1.00  0.00     0.049 A 
HETATM   14  C4  UNL     1      27.261   1.796  52.432  1.00  0.00     0.033 A 
HETATM   15  C3  UNL     1      28.141   0.921  53.015  1.00  0.00     0.039 A 
HETATM   16  C2  UNL     1      27.773  -0.373  53.311  1.00  0.00     0.068 A 
HETATM   17  C15 UNL     1      26.494  -0.787  53.015  1.00  0.00     0.039 A 
HETATM   18  C14 UNL     1      25.653   0.131  52.432  1.00  0.00     0.033 A 
BRANCH  16  19
HETATM   19  O1  UNL     1      28.684  -1.239  53.900  1.00  0.00    -0.356 OA
HETATM   20  C1  UNL     1      30.069  -0.970  53.779  1.00  0.00     0.210 C 
ENDBRANCH  16  19
ENDBRANCH   1  13
BRANCH   9  21
HETATM   21  C9  UNL     1      19.801   3.295  51.738  1.00  0.00     0.203 C 
BRANCH  21  22
HETATM   22  C10 UNL     1      19.317   1.908  51.809  1.00  0.00     0.070 A 
HETATM   23  C11 UNL     1      18.366   1.191  51.152  1.00  0.00     0.036 A 
HETATM   24  C12 UNL     1      18.334  -0.100  51.633  1.00  0.00     0.027 A 
HETATM   25  C13 UNL     1      19.318  -0.113  52.613  1.00  0.00     0.142 A 
HETATM   26  O2  UNL     1      19.858   1.071  52.677  1.00  0.00    -0.325 OA
ENDBRANCH  21  22
ENDBRANCH   9  21
TORSDOF 4
ENDMDL
MODEL 6
REMARK VINA RESULT:      -7.1      3.397      4.406
REMARK  4 active torsions:
REMARK  status: ('A' for Active; 'I' for Inactive)
REMARK    1  A    between atoms: O1_2  and  C2_3 
REMARK    2  A    between atoms: C5_6  and  N1_7 
REMARK       I    between atoms: N1_7  and  C6_8 
REMARK       I    between atoms: C6_8  and  N3_10 
REMARK       I    between atoms: C7_11  and  N4_12 
REMARK       I    between atoms: C7_11  and  N5_15 
REMARK    3  A    between atoms: N5_15  and  C9_16 
REMARK    4  A    between atoms: C9_16  and  C10_17 
ROOT
HETATM    1  N1  UNL     1      25.214   4.703  49.104  1.00  0.00    -0.188 N 
HETATM    2  C6  UNL     1      24.869   4.584  50.475  1.00  0.00     0.735 C 
HETATM    3  N2  UNL     1      24.836   5.615  51.236  1.00  0.00    -0.115 NA
HETATM    4  N3  UNL     1      24.548   3.279  50.983  1.00  0.00     0.130 NA
HETATM    5  C7  UNL     1      23.431   2.687  50.783  1.00  0.00     0.739 C 
HETATM    6  N4  UNL     1      22.361   3.245  50.033  1.00  0.00    -0.063 NA
HETATM    7  C8  UNL     1      21.470   2.547  49.452  1.00  0.00     0.220 C 
HETATM    8 CL1  UNL     1      20.515   3.828  48.752  1.00  0.00    -0.075 Cl
HETATM    9  N5  UNL     1      23.287   1.403  51.358  1.00  0.00    -0.216 N 
HETATM   10  H6  UNL     1      24.637   4.209  48.366  1.00  0.00     0.184 HD
HETATM   11  H7  UNL     1      25.061   6.547  50.851  1.00  0.00     0.206 HD
HETATM   12  H9  UNL     1      22.752   0.652  50.822  1.00  0.00     0.178 HD
ENDROOT
BRANCH   1  13
HETATM   13  C5  UNL     1      26.341   5.468  48.702  1.00  0.00     0.049 A 
HETATM   14  C4  UNL     1      26.365   6.776  48.294  1.00  0.00     0.033 A 
HETATM   15  C3  UNL     1      27.515   7.417  47.911  1.00  0.00     0.039 A 
HETATM   16  C2  UNL     1      28.731   6.769  47.916  1.00  0.00     0.068 A 
HETATM   17  C15 UNL     1      28.782   5.452  48.316  1.00  0.00     0.039 A 
HETATM   18  C14 UNL     1      27.601   4.859  48.689  1.00  0.00     0.033 A 
BRANCH  16  19
HETATM   19  O1  UNL     1      29.880   7.440  47.524  1.00  0.00    -0.356 OA
HETATM   20  C1  UNL     1      29.883   8.856  47.518  1.00  0.00     0.210 C 
ENDBRANCH  16  19
ENDBRANCH   1  13
BRANCH   9  21
HETATM   21  C9  UNL     1      23.819   1.025  52.643  1.00  0.00     0.203 C 
BRANCH  21  22
HETATM   22  C10 UNL     1      22.805   0.326  53.448  1.00  0.00     0.070 A 
HETATM   23  C11 UNL     1      22.785  -0.826  54.172  1.00  0.00     0.036 A 
HETATM   24  C12 UNL     1      21.540  -1.004  54.737  1.00  0.00     0.027 A 
HETATM   25  C13 UNL     1      20.821   0.104  54.310  1.00  0.00     0.142 A 
HETATM   26  O2  UNL     1      21.595   0.843  53.568  1.00  0.00    -0.325 OA
ENDBRANCH  21  22
ENDBRANCH   9  21
TORSDOF 4
ENDMDL
MODEL 7
REMARK VINA RESULT:      -7.1      3.907      7.053
REMARK  4 active torsions:
REMARK  status: ('A' for Active; 'I' for Inactive)
REMARK    1  A    between atoms: O1_2  and  C2_3 
REMARK    2  A    between atoms: C5_6  and  N1_7 
REMARK       I    between atoms: N1_7  and  C6_8 
REMARK       I    between atoms: C6_8  and  N3_10 
REMARK       I    between atoms: C7_11  and  N4_12 
REMARK       I    between atoms: C7_11  and  N5_15 
REMARK    3  A    between atoms: N5_15  and  C9_16 
REMARK    4  A    between atoms: C9_16  and  C10_17 
ROOT
HETATM    1  N1  UNL     1      21.305   2.140  51.783  1.00  0.00    -0.188 N 
HETATM    2  C6  UNL     1      22.321   1.911  50.820  1.00  0.00     0.735 C 
HETATM    3  N2  UNL     1      22.029   1.490  49.645  1.00  0.00    -0.115 NA
HETATM    4  N3  UNL     1      23.682   2.175  51.195  1.00  0.00     0.130 NA
HETATM    5  C7  UNL     1      24.192   3.347  51.265  1.00  0.00     0.739 C 
HETATM    6  N4  UNL     1      23.477   4.541  50.980  1.00  0.00    -0.063 NA
HETATM    7  C8  UNL     1      23.788   5.678  51.458  1.00  0.00     0.220 C 
HETATM    8 CL1  UNL     1      22.538   6.649  50.723  1.00  0.00    -0.075 Cl
HETATM    9  N5  UNL     1      25.550   3.421  51.652  1.00  0.00    -0.216 N 
HETATM   10  H6  UNL     1      21.308   3.030  52.358  1.00  0.00     0.184 HD
HETATM   11  H7  UNL     1      21.043   1.314  49.391  1.00  0.00     0.206 HD
HETATM   12  H9  UNL     1      25.869   4.226  52.275  1.00  0.00     0.178 HD
ENDROOT
BRANCH   1  13
HETATM   13  C5  UNL     1      20.281   1.180  52.003  1.00  0.00     0.049 A 
HETATM   14  C4  UNL     1      19.110   1.030  51.309  1.00  0.00     0.033 A 
HETATM   15  C3  UNL     1      18.179   0.071  51.617  1.00  0.00     0.039 A 
HETATM   16  C2  UNL     1      18.375  -0.808  52.659  1.00  0.00     0.068 A 
HETATM   17  C15 UNL     1      19.531  -0.716  53.400  1.00  0.00     0.039 A 
HETATM   18  C14 UNL     1      20.430   0.263  53.049  1.00  0.00     0.033 A 
BRANCH  16  19
HETATM   19  O1  UNL     1      17.417  -1.769  52.950  1.00  0.00    -0.356 OA
HETATM   20  C1  UNL     1      17.777  -2.885  53.743  1.00  0.00     0.210 C 
ENDBRANCH  16  19
ENDBRANCH   1  13
BRANCH   9  21
HETATM   21  C9  UNL     1      26.559   2.471  51.257  1.00  0.00     0.203 C 
BRANCH  21  22
HETATM   22  C10 UNL     1      27.226   1.890  52.432  1.00  0.00     0.070 A 
HETATM   23  C11 UNL     1      26.890   0.954  53.359  1.00  0.00     0.036 A 
HETATM   24  C12 UNL     1      27.919   0.794  54.262  1.00  0.00     0.027 A 
HETATM   25  C13 UNL     1      28.887   1.688  53.822  1.00  0.00     0.142 A 
HETATM   26  O2  UNL     1      28.440   2.297  52.761  1.00  0.00    -0.325 OA
ENDBRANCH  21  22
ENDBRANCH   9  21
TORSDOF 4
ENDMDL
MODEL 8
REMARK VINA RESULT:      -7.1      3.415      7.583
REMARK  4 active torsions:
REMARK  status: ('A' for Active; 'I' for Inactive)
REMARK    1  A    between atoms: O1_2  and  C2_3 
REMARK    2  A    between atoms: C5_6  and  N1_7 
REMARK       I    between atoms: N1_7  and  C6_8 
REMARK       I    between atoms: C6_8  and  N3_10 
REMARK       I    between atoms: C7_11  and  N4_12 
REMARK       I    between atoms: C7_11  and  N5_15 
REMARK    3  A    between atoms: N5_15  and  C9_16 
REMARK    4  A    between atoms: C9_16  and  C10_17 
ROOT
HETATM    1  N1  UNL     1      23.116   1.251  52.212  1.00  0.00    -0.188 N 
HETATM    2  C6  UNL     1      23.336   2.638  52.013  1.00  0.00     0.735 C 
HETATM    3  N2  UNL     1      22.745   3.508  52.746  1.00  0.00    -0.115 NA
HETATM    4  N3  UNL     1      24.247   3.039  50.978  1.00  0.00     0.130 NA
HETATM    5  C7  UNL     1      25.521   2.983  51.083  1.00  0.00     0.739 C 
HETATM    6  N4  UNL     1      26.202   2.518  52.240  1.00  0.00    -0.063 NA
HETATM    7  C8  UNL     1      27.379   2.036  52.218  1.00  0.00     0.220 C 
HETATM    8 CL1  UNL     1      27.576   1.684  53.915  1.00  0.00    -0.075 Cl
HETATM    9  N5  UNL     1      26.265   3.419  49.962  1.00  0.00    -0.216 N 
HETATM   10  H6  UNL     1      23.936   0.581  52.235  1.00  0.00     0.184 HD
HETATM   11  H7  UNL     1      22.099   3.200  53.492  1.00  0.00     0.206 HD
HETATM   12  H9  UNL     1      27.166   2.908  49.707  1.00  0.00     0.178 HD
ENDROOT
BRANCH   1  13
HETATM   13  C5  UNL     1      21.801   0.737  52.367  1.00  0.00     0.049 A 
HETATM   14  C4  UNL     1      21.249   0.167  53.484  1.00  0.00     0.033 A 
HETATM   15  C3  UNL     1      19.964  -0.311  53.520  1.00  0.00     0.039 A 
HETATM   16  C2  UNL     1      19.144  -0.242  52.415  1.00  0.00     0.068 A 
HETATM   17  C15 UNL     1      19.632   0.320  51.258  1.00  0.00     0.039 A 
HETATM   18  C14 UNL     1      20.926   0.783  51.276  1.00  0.00     0.033 A 
BRANCH  16  19
HETATM   19  O1  UNL     1      17.848  -0.733  52.479  1.00  0.00    -0.356 OA
HETATM   20  C1  UNL     1      17.601  -1.939  53.179  1.00  0.00     0.210 C 
ENDBRANCH  16  19
ENDBRANCH   1  13
BRANCH   9  21
HETATM   21  C9  UNL     1      25.891   4.528  49.121  1.00  0.00     0.203 C 
BRANCH  21  22
HETATM   22  C10 UNL     1      27.076   5.283  48.685  1.00  0.00     0.070 A 
HETATM   23  C11 UNL     1      27.302   6.563  48.284  1.00  0.00     0.036 A 
HETATM   24  C12 UNL     1      28.637   6.733  47.984  1.00  0.00     0.027 A 
HETATM   25  C13 UNL     1      29.193   5.485  48.228  1.00  0.00     0.142 A 
HETATM   26  O2  UNL     1      28.251   4.680  48.632  1.00  0.00    -0.325 OA
ENDBRANCH  21  22
ENDBRANCH   9  21
TORSDOF 4
ENDMDL
MODEL 9
REMARK VINA RESULT:      -6.9      6.808     10.325
REMARK  4 active torsions:
REMARK  status: ('A' for Active; 'I' for Inactive)
REMARK    1  A    between atoms: O1_2  and  C2_3 
REMARK    2  A    between atoms: C5_6  and  N1_7 
REMARK       I    between atoms: N1_7  and  C6_8 
REMARK       I    between atoms: C6_8  and  N3_10 
REMARK       I    between atoms: C7_11  and  N4_12 
REMARK       I    between atoms: C7_11  and  N5_15 
REMARK    3  A    between atoms: N5_15  and  C9_16 
REMARK    4  A    between atoms: C9_16  and  C10_17 
ROOT
HETATM    1  N1  UNL     1      30.125   5.541  47.858  1.00  0.00    -0.188 N 
HETATM    2  C6  UNL     1      31.167   6.074  48.660  1.00  0.00     0.735 C 
HETATM    3  N2  UNL     1      31.164   5.913  49.932  1.00  0.00    -0.115 NA
HETATM    4  N3  UNL     1      32.228   6.788  48.007  1.00  0.00     0.130 NA
HETATM    5  C7  UNL     1      33.184   6.226  47.369  1.00  0.00     0.739 C 
HETATM    6  N4  UNL     1      33.320   4.819  47.222  1.00  0.00    -0.063 NA
HETATM    7  C8  UNL     1      33.951   4.269  46.264  1.00  0.00     0.220 C 
HETATM    8 CL1  UNL     1      33.723   2.594  46.696  1.00  0.00    -0.075 Cl
HETATM    9  N5  UNL     1      34.144   7.085  46.786  1.00  0.00    -0.216 N 
HETATM   10  H6  UNL     1      30.357   5.019  46.965  1.00  0.00     0.184 HD
HETATM   11  H7  UNL     1      30.396   5.388  50.383  1.00  0.00     0.206 HD
HETATM   12  H9  UNL     1      34.563   6.829  45.839  1.00  0.00     0.178 HD
ENDROOT
BRANCH   1  13
HETATM   13  C5  UNL     1      28.764   5.710  48.225  1.00  0.00     0.049 A 
HETATM   14  C4  UNL     1      27.887   4.752  48.659  1.00  0.00     0.033 A 
HETATM   15  C3  UNL     1      26.581   5.025  48.977  1.00  0.00     0.039 A 
HETATM   16  C2  UNL     1      26.072   6.300  48.875  1.00  0.00     0.068 A 
HETATM   17  C15 UNL     1      26.897   7.315  48.446  1.00  0.00     0.039 A 
HETATM   18  C14 UNL     1      28.196   6.986  48.141  1.00  0.00     0.033 A 
BRANCH  16  19
HETATM   19  O1  UNL     1      24.746   6.549  49.202  1.00  0.00    -0.356 OA
HETATM   20  C1  UNL     1      24.349   6.496  50.560  1.00  0.00     0.210 C 
ENDBRANCH  16  19
ENDBRANCH   1  13
BRANCH   9  21
HETATM   21  C9  UNL     1      34.612   8.307  47.390  1.00  0.00     0.203 C 
BRANCH  21  22
HETATM   22  C10 UNL     1      34.047   9.482  46.709  1.00  0.00     0.070 A 
HETATM   23  C11 UNL     1      33.396  10.604  47.117  1.00  0.00     0.036 A 
HETATM   24  C12 UNL     1      33.085  11.390  46.027  1.00  0.00     0.027 A 
HETATM   25  C13 UNL     1      33.588  10.674  44.949  1.00  0.00     0.142 A 
HETATM   26  O2  UNL     1      34.135   9.579  45.394  1.00  0.00    -0.325 OA
ENDBRANCH  21  22
ENDBRANCH   9  21
TORSDOF 4
ENDMDL
