MODEL 1
REMARK VINA RESULT:      -7.0      0.000      0.000
REMARK  0 active torsions:
REMARK  status: ('A' for Active; 'I' for Inactive)
ROOT
HETATM    1  C1  UNL     1      29.968   5.853  47.684  1.00  0.00     0.146 C 
HETATM    2  N1  UNL     1      30.526   5.457  48.823  1.00  0.00    -0.191 NA
HETATM    3  N2  UNL     1      31.073   6.348  49.800  1.00  0.00    -0.308 N 
HETATM    4  C2  UNL     1      31.880   7.405  49.410  1.00  0.00     0.118 C 
HETATM    5  C3  UNL     1      32.662   7.113  48.043  1.00  0.00     0.062 C 
HETATM    6  C4  UNL     1      31.631   7.805  47.195  1.00  0.00    -0.064 C 
HETATM    7  C5  UNL     1      30.356   7.193  47.096  1.00  0.00    -0.030 C 
HETATM    8  C6  UNL     1      29.060   7.705  46.516  1.00  0.00     0.100 C 
HETATM    9  C7  UNL     1      28.171   8.052  47.728  1.00  0.00     0.048 A 
HETATM   10  C8  UNL     1      26.862   7.932  48.354  1.00  0.00     0.080 A 
HETATM   11  S1  UNL     1      27.243   8.937  49.926  1.00  0.00    -0.062 SA
HETATM   12  C9  UNL     1      28.805   9.316  49.605  1.00  0.00     0.167 A 
HETATM   13  N3  UNL     1      28.946   8.707  48.411  1.00  0.00    -0.228 NA
HETATM   14  N4  UNL     1      30.153   9.992  49.983  1.00  0.00    -0.358 N 
HETATM   15  C10 UNL     1      30.994   9.960  48.755  1.00  0.00     0.053 A 
HETATM   16  C11 UNL     1      30.733  10.936  47.865  1.00  0.00     0.028 A 
HETATM   17  C12 UNL     1      30.921  10.500  46.565  1.00  0.00     0.007 A 
HETATM   18  C13 UNL     1      31.348   9.101  46.425  1.00  0.00    -0.015 A 
HETATM   19  C14 UNL     1      31.262   9.239  47.837  1.00  0.00     0.077 A 
HETATM   20  C15 UNL     1      31.344   8.777  49.268  1.00  0.00     0.028 A 
HETATM   21  H2  UNL     1      30.920   6.269  50.843  1.00  0.00     0.182 HD
HETATM   22  H9  UNL     1      29.916  10.201  50.975  1.00  0.00     0.162 HD
ENDROOT
TORSDOF 0
ENDMDL
MODEL 2
REMARK VINA RESULT:      -6.9      7.519      9.531
REMARK  0 active torsions:
REMARK  status: ('A' for Active; 'I' for Inactive)
ROOT
HETATM    1  C1  UNL     1      21.317   2.850  52.297  1.00  0.00     0.146 C 
HETATM    2  N1  UNL     1      20.905   4.108  52.181  1.00  0.00    -0.191 NA
HETATM    3  N2  UNL     1      21.641   5.133  51.507  1.00  0.00    -0.308 N 
HETATM    4  C2  UNL     1      23.005   5.270  51.717  1.00  0.00     0.118 C 
HETATM    5  C3  UNL     1      23.461   4.754  53.163  1.00  0.00     0.062 C 
HETATM    6  C4  UNL     1      23.845   3.391  52.660  1.00  0.00    -0.064 C 
HETATM    7  C5  UNL     1      22.796   2.545  52.216  1.00  0.00    -0.030 C 
HETATM    8  C6  UNL     1      22.839   1.228  51.478  1.00  0.00     0.100 C 
HETATM    9  C7  UNL     1      22.426   1.553  50.027  1.00  0.00     0.048 A 
HETATM   10  C8  UNL     1      21.591   1.199  48.889  1.00  0.00     0.080 A 
HETATM   11  S1  UNL     1      22.192   2.560  47.702  1.00  0.00    -0.062 SA
HETATM   12  C9  UNL     1      23.276   3.289  48.692  1.00  0.00     0.167 A 
HETATM   13  N3  UNL     1      23.138   2.520  49.789  1.00  0.00    -0.228 NA
HETATM   14  N4  UNL     1      24.334   4.390  48.985  1.00  0.00    -0.358 N 
HETATM   15  C10 UNL     1      25.003   3.997  50.257  1.00  0.00     0.053 A 
HETATM   16  C11 UNL     1      25.973   3.074  50.124  1.00  0.00     0.028 A 
HETATM   17  C12 UNL     1      26.032   2.239  51.227  1.00  0.00     0.007 A 
HETATM   18  C13 UNL     1      25.048   2.518  52.282  1.00  0.00    -0.015 A 
HETATM   19  C14 UNL     1      24.746   3.528  51.329  1.00  0.00     0.077 A 
HETATM   20  C15 UNL     1      23.994   4.708  50.771  1.00  0.00     0.028 A 
HETATM   21  H2  UNL     1      21.225   5.836  50.836  1.00  0.00     0.182 HD
HETATM   22  H9  UNL     1      24.143   4.977  48.147  1.00  0.00     0.162 HD
ENDROOT
TORSDOF 0
ENDMDL
MODEL 3
REMARK VINA RESULT:      -6.7      6.861      9.345
REMARK  0 active torsions:
REMARK  status: ('A' for Active; 'I' for Inactive)
ROOT
HETATM    1  C1  UNL     1      22.840   3.422  48.360  1.00  0.00     0.146 C 
HETATM    2  N1  UNL     1      21.570   3.795  48.484  1.00  0.00    -0.191 NA
HETATM    3  N2  UNL     1      20.952   4.129  49.730  1.00  0.00    -0.308 N 
HETATM    4  C2  UNL     1      21.154   3.336  50.849  1.00  0.00     0.118 C 
HETATM    5  C3  UNL     1      21.462   1.809  50.474  1.00  0.00     0.062 C 
HETATM    6  C4  UNL     1      22.952   1.994  50.541  1.00  0.00    -0.064 C 
HETATM    7  C5  UNL     1      23.550   2.807  49.545  1.00  0.00    -0.030 C 
HETATM    8  C6  UNL     1      24.952   3.358  49.434  1.00  0.00     0.100 C 
HETATM    9  C7  UNL     1      24.836   4.857  49.782  1.00  0.00     0.048 A 
HETATM   10  C8  UNL     1      25.176   6.224  49.414  1.00  0.00     0.080 A 
HETATM   11  S1  UNL     1      24.312   7.097  50.869  1.00  0.00    -0.062 SA
HETATM   12  C9  UNL     1      23.719   5.775  51.634  1.00  0.00     0.167 A 
HETATM   13  N3  UNL     1      24.174   4.811  50.811  1.00  0.00    -0.228 NA
HETATM   14  N4  UNL     1      22.916   5.108  52.787  1.00  0.00    -0.358 N 
HETATM   15  C10 UNL     1      23.203   3.649  52.705  1.00  0.00     0.053 A 
HETATM   16  C11 UNL     1      24.365   3.269  53.269  1.00  0.00     0.028 A 
HETATM   17  C12 UNL     1      24.934   2.206  52.589  1.00  0.00     0.007 A 
HETATM   18  C13 UNL     1      24.181   1.730  51.420  1.00  0.00    -0.015 A 
HETATM   19  C14 UNL     1      23.349   2.780  51.893  1.00  0.00     0.077 A 
HETATM   20  C15 UNL     1      22.152   3.694  51.881  1.00  0.00     0.028 A 
HETATM   21  H2  UNL     1      20.318   4.960  49.887  1.00  0.00     0.182 HD
HETATM   22  H9  UNL     1      22.488   5.979  53.163  1.00  0.00     0.162 HD
ENDROOT
TORSDOF 0
ENDMDL
MODEL 4
REMARK VINA RESULT:      -6.7      6.624      9.269
REMARK  0 active torsions:
REMARK  status: ('A' for Active; 'I' for Inactive)
ROOT
HETATM    1  C1  UNL     1      25.260   5.590  50.079  1.00  0.00     0.146 C 
HETATM    2  N1  UNL     1      24.824   6.416  51.025  1.00  0.00    -0.191 NA
HETATM    3  N2  UNL     1      23.782   6.094  51.951  1.00  0.00    -0.308 N 
HETATM    4  C2  UNL     1      22.618   5.483  51.512  1.00  0.00     0.118 C 
HETATM    5  C3  UNL     1      22.276   5.832  49.986  1.00  0.00     0.062 C 
HETATM    6  C4  UNL     1      22.932   4.588  49.456  1.00  0.00    -0.064 C 
HETATM    7  C5  UNL     1      24.343   4.501  49.567  1.00  0.00    -0.030 C 
HETATM    8  C6  UNL     1      25.280   3.341  49.333  1.00  0.00     0.100 C 
HETATM    9  C7  UNL     1      25.708   2.864  50.737  1.00  0.00     0.048 A 
HETATM   10  C8  UNL     1      26.806   2.479  51.611  1.00  0.00     0.080 A 
HETATM   11  S1  UNL     1      25.770   2.097  53.162  1.00  0.00    -0.062 SA
HETATM   12  C9  UNL     1      24.286   2.437  52.557  1.00  0.00     0.167 A 
HETATM   13  N3  UNL     1      24.626   2.795  51.304  1.00  0.00    -0.228 NA
HETATM   14  N4  UNL     1      22.743   2.558  52.709  1.00  0.00    -0.358 N 
HETATM   15  C10 UNL     1      22.202   2.737  51.333  1.00  0.00     0.053 A 
HETATM   16  C11 UNL     1      22.063   1.600  50.627  1.00  0.00     0.028 A 
HETATM   17  C12 UNL     1      22.292   1.809  49.278  1.00  0.00     0.007 A 
HETATM   18  C13 UNL     1      22.638   3.187  48.904  1.00  0.00    -0.015 A 
HETATM   19  C14 UNL     1      22.452   3.305  50.308  1.00  0.00     0.077 A 
HETATM   20  C15 UNL     1      22.418   4.021  51.633  1.00  0.00     0.028 A 
HETATM   21  H2  UNL     1      23.811   6.294  52.989  1.00  0.00     0.182 HD
HETATM   22  H9  UNL     1      22.709   2.461  53.745  1.00  0.00     0.162 HD
ENDROOT
TORSDOF 0
ENDMDL
MODEL 5
REMARK VINA RESULT:      -6.5      8.325     10.290
REMARK  0 active torsions:
REMARK  status: ('A' for Active; 'I' for Inactive)
ROOT
HETATM    1  C1  UNL     1      22.504   4.820  52.601  1.00  0.00     0.146 C 
HETATM    2  N1  UNL     1      23.737   5.194  52.274  1.00  0.00    -0.191 NA
HETATM    3  N2  UNL     1      24.458   4.680  51.149  1.00  0.00    -0.308 N 
HETATM    4  C2  UNL     1      24.464   3.320  50.882  1.00  0.00     0.118 C 
HETATM    5  C3  UNL     1      24.267   2.432  52.201  1.00  0.00     0.062 C 
HETATM    6  C4  UNL     1      22.784   2.295  52.001  1.00  0.00    -0.064 C 
HETATM    7  C5  UNL     1      21.998   3.466  52.155  1.00  0.00    -0.030 C 
HETATM    8  C6  UNL     1      20.546   3.727  51.834  1.00  0.00     0.100 C 
HETATM    9  C7  UNL     1      20.553   4.584  50.551  1.00  0.00     0.048 A 
HETATM   10  C8  UNL     1      20.040   5.765  49.871  1.00  0.00     0.080 A 
HETATM   11  S1  UNL     1      20.975   5.534  48.228  1.00  0.00    -0.062 SA
HETATM   12  C9  UNL     1      21.778   4.153  48.593  1.00  0.00     0.167 A 
HETATM   13  N3  UNL     1      21.329   3.952  49.847  1.00  0.00    -0.228 NA
HETATM   14  N4  UNL     1      22.770   3.012  48.229  1.00  0.00    -0.358 N 
HETATM   15  C10 UNL     1      22.620   1.976  49.289  1.00  0.00     0.053 A 
HETATM   16  C11 UNL     1      21.574   1.146  49.125  1.00  0.00     0.028 A 
HETATM   17  C12 UNL     1      21.038   0.758  50.341  1.00  0.00     0.007 A 
HETATM   18  C13 UNL     1      21.696   1.323  51.527  1.00  0.00    -0.015 A 
HETATM   19  C14 UNL     1      22.469   1.882  50.473  1.00  0.00     0.077 A 
HETATM   20  C15 UNL     1      23.561   2.726  49.872  1.00  0.00     0.028 A 
HETATM   21  H2  UNL     1      25.021   5.266  50.473  1.00  0.00     0.182 HD
HETATM   22  H9  UNL     1      23.151   3.446  47.363  1.00  0.00     0.162 HD
ENDROOT
TORSDOF 0
ENDMDL
MODEL 6
REMARK VINA RESULT:      -6.4      6.964      8.825
REMARK  0 active torsions:
REMARK  status: ('A' for Active; 'I' for Inactive)
ROOT
HETATM    1  C1  UNL     1      22.041   1.580  50.082  1.00  0.00     0.146 C 
HETATM    2  N1  UNL     1      21.669   1.466  51.353  1.00  0.00    -0.191 NA
HETATM    3  N2  UNL     1      21.975   2.429  52.366  1.00  0.00    -0.308 N 
HETATM    4  C2  UNL     1      23.249   2.966  52.461  1.00  0.00     0.118 C 
HETATM    5  C3  UNL     1      24.380   1.973  51.911  1.00  0.00     0.062 C 
HETATM    6  C4  UNL     1      24.399   2.600  50.545  1.00  0.00    -0.064 C 
HETATM    7  C5  UNL     1      23.247   2.425  49.736  1.00  0.00    -0.030 C 
HETATM    8  C6  UNL     1      22.854   3.073  48.430  1.00  0.00     0.100 C 
HETATM    9  C7  UNL     1      21.752   4.092  48.787  1.00  0.00     0.048 A 
HETATM   10  C8  UNL     1      20.433   4.621  48.474  1.00  0.00     0.080 A 
HETATM   11  S1  UNL     1      20.365   5.950  49.835  1.00  0.00    -0.062 SA
HETATM   12  C9  UNL     1      21.830   5.679  50.519  1.00  0.00     0.167 A 
HETATM   13  N3  UNL     1      22.263   4.671  49.737  1.00  0.00    -0.228 NA
HETATM   14  N4  UNL     1      22.919   5.987  51.584  1.00  0.00    -0.358 N 
HETATM   15  C10 UNL     1      24.142   5.255  51.154  1.00  0.00     0.053 A 
HETATM   16  C11 UNL     1      24.868   5.875  50.205  1.00  0.00     0.028 A 
HETATM   17  C12 UNL     1      25.471   4.965  49.353  1.00  0.00     0.007 A 
HETATM   18  C13 UNL     1      25.196   3.552  49.645  1.00  0.00    -0.015 A 
HETATM   19  C14 UNL     1      24.472   4.207  50.677  1.00  0.00     0.077 A 
HETATM   20  C15 UNL     1      23.577   4.289  51.885  1.00  0.00     0.028 A 
HETATM   21  H2  UNL     1      21.291   2.783  53.090  1.00  0.00     0.182 HD
HETATM   22  H9  UNL     1      22.335   6.601  52.189  1.00  0.00     0.162 HD
ENDROOT
TORSDOF 0
ENDMDL
MODEL 7
REMARK VINA RESULT:      -6.3      3.245      4.653
REMARK  0 active torsions:
REMARK  status: ('A' for Active; 'I' for Inactive)
ROOT
HETATM    1  C1  UNL     1      32.181   4.091  47.415  1.00  0.00     0.146 C 
HETATM    2  N1  UNL     1      30.914   4.422  47.639  1.00  0.00    -0.191 NA
HETATM    3  N2  UNL     1      30.446   5.769  47.754  1.00  0.00    -0.308 N 
HETATM    4  C2  UNL     1      31.147   6.693  48.513  1.00  0.00     0.118 C 
HETATM    5  C3  UNL     1      31.974   6.011  49.703  1.00  0.00     0.062 C 
HETATM    6  C4  UNL     1      33.248   5.946  48.909  1.00  0.00    -0.064 C 
HETATM    7  C5  UNL     1      33.279   5.056  47.805  1.00  0.00    -0.030 C 
HETATM    8  C6  UNL     1      34.293   4.894  46.698  1.00  0.00     0.100 C 
HETATM    9  C7  UNL     1      33.646   5.522  45.447  1.00  0.00     0.048 A 
HETATM   10  C8  UNL     1      33.333   5.377  44.033  1.00  0.00     0.080 A 
HETATM   11  S1  UNL     1      32.463   7.054  43.795  1.00  0.00    -0.062 SA
HETATM   12  C9  UNL     1      32.603   7.624  45.325  1.00  0.00     0.167 A 
HETATM   13  N3  UNL     1      33.254   6.592  45.895  1.00  0.00    -0.228 NA
HETATM   14  N4  UNL     1      32.357   8.716  46.404  1.00  0.00    -0.358 N 
HETATM   15  C10 UNL     1      33.190   8.336  47.579  1.00  0.00     0.053 A 
HETATM   16  C11 UNL     1      34.486   8.687  47.491  1.00  0.00     0.028 A 
HETATM   17  C12 UNL     1      35.306   7.765  48.118  1.00  0.00     0.007 A 
HETATM   18  C13 UNL     1      34.614   6.619  48.726  1.00  0.00    -0.015 A 
HETATM   19  C14 UNL     1      33.527   7.367  48.197  1.00  0.00     0.077 A 
HETATM   20  C15 UNL     1      32.082   7.657  47.890  1.00  0.00     0.028 A 
HETATM   21  H2  UNL     1      29.569   6.146  47.299  1.00  0.00     0.182 HD
HETATM   22  H9  UNL     1      31.688   9.292  45.852  1.00  0.00     0.162 HD
ENDROOT
TORSDOF 0
ENDMDL
MODEL 8
REMARK VINA RESULT:      -6.3      8.717     11.104
REMARK  0 active torsions:
REMARK  status: ('A' for Active; 'I' for Inactive)
ROOT
HETATM    1  C1  UNL     1      22.234   5.198  50.825  1.00  0.00     0.146 C 
HETATM    2  N1  UNL     1      22.670   5.383  49.584  1.00  0.00    -0.191 NA
HETATM    3  N2  UNL     1      22.710   4.356  48.588  1.00  0.00    -0.308 N 
HETATM    4  C2  UNL     1      23.187   3.093  48.901  1.00  0.00     0.118 C 
HETATM    5  C3  UNL     1      24.258   3.117  50.092  1.00  0.00     0.062 C 
HETATM    6  C4  UNL     1      23.233   2.809  51.147  1.00  0.00    -0.064 C 
HETATM    7  C5  UNL     1      22.267   3.809  51.423  1.00  0.00    -0.030 C 
HETATM    8  C6  UNL     1      21.005   3.757  52.251  1.00  0.00     0.100 C 
HETATM    9  C7  UNL     1      19.844   3.718  51.234  1.00  0.00     0.048 A 
HETATM   10  C8  UNL     1      18.554   4.261  50.836  1.00  0.00     0.080 A 
HETATM   11  S1  UNL     1      18.292   3.178  49.292  1.00  0.00    -0.062 SA
HETATM   12  C9  UNL     1      19.678   2.306  49.363  1.00  0.00     0.167 A 
HETATM   13  N3  UNL     1      20.226   2.840  50.472  1.00  0.00    -0.228 NA
HETATM   14  N4  UNL     1      20.640   1.220  48.804  1.00  0.00    -0.358 N 
HETATM   15  C10 UNL     1      21.656   0.978  49.865  1.00  0.00     0.053 A 
HETATM   16  C11 UNL     1      21.261   0.148  50.848  1.00  0.00     0.028 A 
HETATM   17  C12 UNL     1      21.817   0.503  52.065  1.00  0.00     0.007 A 
HETATM   18  C13 UNL     1      22.692   1.683  52.037  1.00  0.00    -0.015 A 
HETATM   19  C14 UNL     1      22.308   1.574  50.673  1.00  0.00     0.077 A 
HETATM   20  C15 UNL     1      22.271   1.976  49.222  1.00  0.00     0.028 A 
HETATM   21  H2  UNL     1      22.401   4.475  47.584  1.00  0.00     0.182 HD
HETATM   22  H9  UNL     1      20.170   1.097  47.883  1.00  0.00     0.162 HD
ENDROOT
TORSDOF 0
ENDMDL
MODEL 9
REMARK VINA RESULT:      -6.2      9.254     10.638
REMARK  0 active torsions:
REMARK  status: ('A' for Active; 'I' for Inactive)
ROOT
HETATM    1  C1  UNL     1      20.079   2.867  49.679  1.00  0.00     0.146 C 
HETATM    2  N1  UNL     1      20.621   2.204  48.663  1.00  0.00    -0.191 NA
HETATM    3  N2  UNL     1      21.984   1.773  48.624  1.00  0.00    -0.308 N 
HETATM    4  C2  UNL     1      23.002   2.628  49.016  1.00  0.00     0.118 C 
HETATM    5  C3  UNL     1      22.628   4.171  48.801  1.00  0.00     0.062 C 
HETATM    6  C4  UNL     1      22.157   4.352  50.217  1.00  0.00    -0.064 C 
HETATM    7  C5  UNL     1      20.970   3.675  50.596  1.00  0.00    -0.030 C 
HETATM    8  C6  UNL     1      20.343   3.473  51.955  1.00  0.00     0.100 C 
HETATM    9  C7  UNL     1      20.626   2.003  52.328  1.00  0.00     0.048 A 
HETATM   10  C8  UNL     1      20.087   0.747  52.829  1.00  0.00     0.080 A 
HETATM   11  S1  UNL     1      21.702  -0.260  52.769  1.00  0.00    -0.062 SA
HETATM   12  C9  UNL     1      22.699   0.905  52.192  1.00  0.00     0.167 A 
HETATM   13  N3  UNL     1      21.823   1.922  52.084  1.00  0.00    -0.228 NA
HETATM   14  N4  UNL     1      24.095   1.397  51.717  1.00  0.00    -0.358 N 
HETATM   15  C10 UNL     1      23.999   2.878  51.602  1.00  0.00     0.053 A 
HETATM   16  C11 UNL     1      24.138   3.546  52.763  1.00  0.00     0.028 A 
HETATM   17  C12 UNL     1      23.361   4.691  52.786  1.00  0.00     0.007 A 
HETATM   18  C13 UNL     1      22.561   4.933  51.577  1.00  0.00    -0.015 A 
HETATM   19  C14 UNL     1      23.237   3.729  51.241  1.00  0.00     0.077 A 
HETATM   20  C15 UNL     1      23.597   2.555  50.369  1.00  0.00     0.028 A 
HETATM   21  H2  UNL     1      22.308   0.819  48.303  1.00  0.00     0.182 HD
HETATM   22  H9  UNL     1      24.550   0.461  51.669  1.00  0.00     0.162 HD
ENDROOT
TORSDOF 0
ENDMDL
