MODEL 1
REMARK VINA RESULT:      -8.1      0.000      0.000
REMARK  7 active torsions:
REMARK  status: ('A' for Active; 'I' for Inactive)
REMARK    1  A    between atoms: C2_2  and  N1_3 
REMARK       I    between atoms: N1_3  and  C4_5 
REMARK    2  A    between atoms: C4_5  and  O2_7 
REMARK    3  A    between atoms: O2_7  and  C5_8 
REMARK    4  A    between atoms: C7_11  and  C8_12 
REMARK    5  A    between atoms: C8_12  and  C9_13 
REMARK    6  A    between atoms: C13_19  and  N5_20 
REMARK    7  A    between atoms: N5_20  and  C14_21 
ROOT
HETATM    1  C9  UNL     1      26.948   6.429  48.694  1.00  0.00    -0.012 A 
HETATM    2  C10 UNL     1      25.818   6.586  49.437  1.00  0.00     0.047 A 
HETATM    3  C11 UNL     1      25.273   5.569  50.158  1.00  0.00     0.080 A 
HETATM    4  N3  UNL     1      24.181   5.538  50.936  1.00  0.00    -0.241 NA
HETATM    5  C12 UNL     1      23.804   4.417  51.574  1.00  0.00     0.236 A 
HETATM    6  N4  UNL     1      24.457   3.225  51.512  1.00  0.00    -0.223 NA
HETATM    7  C13 UNL     1      25.563   3.145  50.761  1.00  0.00     0.148 A 
HETATM    8  C20 UNL     1      25.921   4.325  50.117  1.00  0.00     0.080 A 
HETATM    9  S1  UNL     1      27.385   4.683  48.969  1.00  0.00    -0.088 SA
ENDROOT
BRANCH   1  10
HETATM   10  C8  UNL     1      27.820   7.135  47.852  1.00  0.00     0.081 C 
BRANCH  10  11
HETATM   11  C7  UNL     1      29.257   6.908  48.166  1.00  0.00     0.227 C 
HETATM   12  N2  UNL     1      29.781   7.667  49.258  1.00  0.00     0.090 N 
HETATM   13  C6  UNL     1      30.594   8.696  48.683  1.00  0.00     0.302 C 
HETATM   14  H10 UNL     1      29.061   8.097  49.885  1.00  0.00     0.316 HD
HETATM   15  C5  UNL     1      31.308   7.939  47.552  1.00  0.00     0.163 C 
HETATM   16  C21 UNL     1      30.071   7.277  46.919  1.00  0.00     0.070 C 
BRANCH  15  17
HETATM   17  O2  UNL     1      32.085   6.899  48.053  1.00  0.00    -0.296 OA
BRANCH  17  18
HETATM   18  C4  UNL     1      32.367   5.697  47.453  1.00  0.00     0.366 C 
HETATM   19  N1  UNL     1      32.661   4.477  46.800  1.00  0.00    -0.309 N 
HETATM   20  C3  UNL     1      32.910   4.504  45.388  1.00  0.00     0.161 C 
HETATM   21  O1  UNL     1      32.295   4.946  48.458  1.00  0.00    -0.238 OA
BRANCH  19  22
HETATM   22  C2  UNL     1      32.696   3.293  47.564  1.00  0.00     0.085 C 
HETATM   23  C1  UNL     1      32.714   2.157  46.895  1.00  0.00     0.030 C 
ENDBRANCH  19  22
ENDBRANCH  17  18
ENDBRANCH  15  17
ENDBRANCH  10  11
ENDBRANCH   1  10
BRANCH   7  24
HETATM   24  N5  UNL     1      26.356   2.002  50.584  1.00  0.00    -0.343 N 
HETATM   25  H16 UNL     1      26.588   1.652  49.631  1.00  0.00     0.167 HD
BRANCH  24  26
HETATM   26  C14 UNL     1      26.754   1.455  51.840  1.00  0.00     0.013 C 
HETATM   27  C15 UNL     1      27.678   2.081  52.567  1.00  0.00     0.027 C 
HETATM   28  C16 UNL     1      28.301   1.811  53.858  1.00  0.00     0.026 C 
HETATM   29  C17 UNL     1      28.251   0.642  54.506  1.00  0.00     0.134 C 
HETATM   30  O3  UNL     1      27.615  -0.542  54.109  1.00  0.00    -0.363 OA
HETATM   31  C18 UNL     1      27.172  -0.801  52.789  1.00  0.00     0.180 C 
HETATM   32  C19 UNL     1      26.138   0.198  52.320  1.00  0.00     0.083 C 
ENDBRANCH  24  26
ENDBRANCH   7  24
TORSDOF 7
ENDMDL
MODEL 2
REMARK VINA RESULT:      -7.9      5.365      8.504
REMARK  7 active torsions:
REMARK  status: ('A' for Active; 'I' for Inactive)
REMARK    1  A    between atoms: C2_2  and  N1_3 
REMARK       I    between atoms: N1_3  and  C4_5 
REMARK    2  A    between atoms: C4_5  and  O2_7 
REMARK    3  A    between atoms: O2_7  and  C5_8 
REMARK    4  A    between atoms: C7_11  and  C8_12 
REMARK    5  A    between atoms: C8_12  and  C9_13 
REMARK    6  A    between atoms: C13_19  and  N5_20 
REMARK    7  A    between atoms: N5_20  and  C14_21 
ROOT
HETATM    1  C9  UNL     1      25.657   3.199  50.800  1.00  0.00    -0.012 A 
HETATM    2  C10 UNL     1      25.138   3.840  49.717  1.00  0.00     0.047 A 
HETATM    3  C11 UNL     1      23.842   4.253  49.668  1.00  0.00     0.080 A 
HETATM    4  N3  UNL     1      23.166   4.890  48.700  1.00  0.00    -0.241 NA
HETATM    5  C12 UNL     1      21.871   5.216  48.847  1.00  0.00     0.236 A 
HETATM    6  N4  UNL     1      21.117   4.953  49.949  1.00  0.00    -0.223 NA
HETATM    7  C13 UNL     1      21.696   4.318  50.976  1.00  0.00     0.148 A 
HETATM    8  C20 UNL     1      23.037   3.997  50.788  1.00  0.00     0.080 A 
HETATM    9  S1  UNL     1      24.246   3.114  51.948  1.00  0.00    -0.088 SA
ENDROOT
BRANCH   1  10
HETATM   10  C8  UNL     1      26.848   2.631  51.277  1.00  0.00     0.081 C 
BRANCH  10  11
HETATM   11  C7  UNL     1      26.693   1.957  52.595  1.00  0.00     0.227 C 
HETATM   12  N2  UNL     1      27.527   2.452  53.647  1.00  0.00     0.090 N 
HETATM   13  C6  UNL     1      28.556   1.475  53.840  1.00  0.00     0.302 C 
HETATM   14  H10 UNL     1      27.960   3.388  53.466  1.00  0.00     0.316 HD
HETATM   15  C5  UNL     1      27.771   0.160  53.716  1.00  0.00     0.163 C 
HETATM   16  C21 UNL     1      27.030   0.473  52.404  1.00  0.00     0.070 C 
BRANCH  15  17
HETATM   17  O2  UNL     1      26.789   0.064  54.697  1.00  0.00    -0.296 OA
BRANCH  17  18
HETATM   18  C4  UNL     1      25.485  -0.339  54.545  1.00  0.00     0.366 C 
HETATM   19  N1  UNL     1      24.143  -0.738  54.350  1.00  0.00    -0.309 N 
HETATM   20  C3  UNL     1      23.509  -0.414  53.105  1.00  0.00     0.161 C 
HETATM   21  O1  UNL     1      25.313  -0.895  55.657  1.00  0.00    -0.238 OA
BRANCH  19  22
HETATM   22  C2  UNL     1      23.488  -1.436  55.385  1.00  0.00     0.085 C 
HETATM   23  C1  UNL     1      22.208  -1.697  55.207  1.00  0.00     0.030 C 
ENDBRANCH  19  22
ENDBRANCH  17  18
ENDBRANCH  15  17
ENDBRANCH  10  11
ENDBRANCH   1  10
BRANCH   7  24
HETATM   24  N5  UNL     1      21.073   3.968  52.183  1.00  0.00    -0.343 N 
HETATM   25  H16 UNL     1      21.282   4.483  53.064  1.00  0.00     0.167 HD
BRANCH  24  26
HETATM   26  C14 UNL     1      20.179   2.872  52.000  1.00  0.00     0.013 C 
HETATM   27  C15 UNL     1      20.626   1.626  52.150  1.00  0.00     0.027 C 
HETATM   28  C16 UNL     1      20.006   0.311  52.040  1.00  0.00     0.026 C 
HETATM   29  C17 UNL     1      18.824   0.064  51.465  1.00  0.00     0.134 C 
HETATM   30  O3  UNL     1      17.947   0.975  50.861  1.00  0.00    -0.363 OA
HETATM   31  C18 UNL     1      18.310   2.288  50.472  1.00  0.00     0.180 C 
HETATM   32  C19 UNL     1      18.766   3.131  51.642  1.00  0.00     0.083 C 
ENDBRANCH  24  26
ENDBRANCH   7  24
TORSDOF 7
ENDMDL
MODEL 3
REMARK VINA RESULT:      -7.9      1.513      2.144
REMARK  7 active torsions:
REMARK  status: ('A' for Active; 'I' for Inactive)
REMARK    1  A    between atoms: C2_2  and  N1_3 
REMARK       I    between atoms: N1_3  and  C4_5 
REMARK    2  A    between atoms: C4_5  and  O2_7 
REMARK    3  A    between atoms: O2_7  and  C5_8 
REMARK    4  A    between atoms: C7_11  and  C8_12 
REMARK    5  A    between atoms: C8_12  and  C9_13 
REMARK    6  A    between atoms: C13_19  and  N5_20 
REMARK    7  A    between atoms: N5_20  and  C14_21 
ROOT
HETATM    1  C9  UNL     1      24.850   5.526  49.837  1.00  0.00    -0.012 A 
HETATM    2  C10 UNL     1      23.799   5.192  50.635  1.00  0.00     0.047 A 
HETATM    3  C11 UNL     1      23.725   3.995  51.279  1.00  0.00     0.080 A 
HETATM    4  N3  UNL     1      22.783   3.499  52.094  1.00  0.00    -0.241 NA
HETATM    5  C12 UNL     1      22.897   2.276  52.639  1.00  0.00     0.236 A 
HETATM    6  N4  UNL     1      23.941   1.426  52.440  1.00  0.00    -0.223 NA
HETATM    7  C13 UNL     1      24.939   1.823  51.641  1.00  0.00     0.148 A 
HETATM    8  C20 UNL     1      24.785   3.094  51.096  1.00  0.00     0.080 A 
HETATM    9  S1  UNL     1      25.924   4.058  49.929  1.00  0.00    -0.088 SA
ENDROOT
BRANCH   1  10
HETATM   10  C8  UNL     1      25.333   6.567  49.030  1.00  0.00     0.081 C 
BRANCH  10  11
HETATM   11  C7  UNL     1      26.802   6.773  49.149  1.00  0.00     0.227 C 
HETATM   12  N2  UNL     1      27.210   7.887  49.947  1.00  0.00     0.090 N 
HETATM   13  C6  UNL     1      27.655   8.897  49.035  1.00  0.00     0.302 C 
HETATM   14  H10 UNL     1      26.467   8.280  50.572  1.00  0.00     0.316 HD
HETATM   15  C5  UNL     1      28.430   8.067  47.999  1.00  0.00     0.163 C 
HETATM   16  C21 UNL     1      27.359   6.994  47.737  1.00  0.00     0.070 C 
BRANCH  15  17
HETATM   17  O2  UNL     1      29.503   7.403  48.584  1.00  0.00    -0.296 OA
BRANCH  17  18
HETATM   18  C4  UNL     1      30.467   6.651  47.959  1.00  0.00     0.366 C 
HETATM   19  N1  UNL     1      31.467   5.908  47.290  1.00  0.00    -0.309 N 
HETATM   20  C3  UNL     1      32.130   6.510  46.171  1.00  0.00     0.161 C 
HETATM   21  O1  UNL     1      30.406   5.615  48.666  1.00  0.00    -0.238 OA
BRANCH  19  22
HETATM   22  C2  UNL     1      31.767   4.610  47.752  1.00  0.00     0.085 C 
HETATM   23  C1  UNL     1      32.019   3.698  46.835  1.00  0.00     0.030 C 
ENDBRANCH  19  22
ENDBRANCH  17  18
ENDBRANCH  15  17
ENDBRANCH  10  11
ENDBRANCH   1  10
BRANCH   7  24
HETATM   24  N5  UNL     1      26.086   1.079  51.326  1.00  0.00    -0.343 N 
HETATM   25  H16 UNL     1      26.206   0.650  50.385  1.00  0.00     0.167 HD
BRANCH  24  26
HETATM   26  C14 UNL     1      26.981   1.024  52.435  1.00  0.00     0.013 C 
HETATM   27  C15 UNL     1      27.719   2.092  52.739  1.00  0.00     0.027 C 
HETATM   28  C16 UNL     1      28.706   2.375  53.774  1.00  0.00     0.026 C 
HETATM   29  C17 UNL     1      29.310   1.455  54.533  1.00  0.00     0.134 C 
HETATM   30  O3  UNL     1      29.138   0.064  54.510  1.00  0.00    -0.363 OA
HETATM   31  C18 UNL     1      28.519  -0.641  53.449  1.00  0.00     0.180 C 
HETATM   32  C19 UNL     1      27.083  -0.217  53.234  1.00  0.00     0.083 C 
ENDBRANCH  24  26
ENDBRANCH   7  24
TORSDOF 7
ENDMDL
MODEL 4
REMARK VINA RESULT:      -7.9      7.497     12.912
REMARK  7 active torsions:
REMARK  status: ('A' for Active; 'I' for Inactive)
REMARK    1  A    between atoms: C2_2  and  N1_3 
REMARK       I    between atoms: N1_3  and  C4_5 
REMARK    2  A    between atoms: C4_5  and  O2_7 
REMARK    3  A    between atoms: O2_7  and  C5_8 
REMARK    4  A    between atoms: C7_11  and  C8_12 
REMARK    5  A    between atoms: C8_12  and  C9_13 
REMARK    6  A    between atoms: C13_19  and  N5_20 
REMARK    7  A    between atoms: N5_20  and  C14_21 
ROOT
HETATM    1  C9  UNL     1      20.250  -0.219  52.476  1.00  0.00    -0.012 A 
HETATM    2  C10 UNL     1      20.535  -0.797  53.675  1.00  0.00     0.047 A 
HETATM    3  C11 UNL     1      21.803  -0.878  54.161  1.00  0.00     0.080 A 
HETATM    4  N3  UNL     1      22.268  -1.404  55.305  1.00  0.00    -0.241 NA
HETATM    5  C12 UNL     1      23.577  -1.383  55.606  1.00  0.00     0.236 A 
HETATM    6  N4  UNL     1      24.553  -0.849  54.822  1.00  0.00    -0.223 NA
HETATM    7  C13 UNL     1      24.197  -0.297  53.655  1.00  0.00     0.148 A 
HETATM    8  C20 UNL     1      22.834  -0.337  53.378  1.00  0.00     0.080 A 
HETATM    9  S1  UNL     1      21.884   0.311  51.872  1.00  0.00    -0.088 SA
ENDROOT
BRANCH   1  10
HETATM   10  C8  UNL     1      19.176   0.080  51.625  1.00  0.00     0.081 C 
BRANCH  10  11
HETATM   11  C7  UNL     1      17.885   0.258  52.344  1.00  0.00     0.227 C 
HETATM   12  N2  UNL     1      17.286  -0.938  52.850  1.00  0.00     0.090 N 
HETATM   13  C6  UNL     1      16.181  -1.233  51.988  1.00  0.00     0.302 C 
HETATM   14  H10 UNL     1      17.924  -1.766  52.900  1.00  0.00     0.316 HD
HETATM   15  C5  UNL     1      15.586   0.163  51.747  1.00  0.00     0.163 C 
HETATM   16  C21 UNL     1      16.888   0.890  51.363  1.00  0.00     0.070 C 
BRANCH  15  17
HETATM   17  O2  UNL     1      15.160   0.743  52.938  1.00  0.00    -0.296 OA
BRANCH  17  18
HETATM   18  C4  UNL     1      14.044   1.516  53.143  1.00  0.00     0.366 C 
HETATM   19  N1  UNL     1      12.871   2.278  53.356  1.00  0.00    -0.309 N 
HETATM   20  C3  UNL     1      11.620   1.587  53.463  1.00  0.00     0.161 C 
HETATM   21  O1  UNL     1      14.582   2.650  53.162  1.00  0.00    -0.238 OA
BRANCH  19  22
HETATM   22  C2  UNL     1      12.985   3.680  53.452  1.00  0.00     0.085 C 
HETATM   23  C1  UNL     1      12.160   4.286  54.283  1.00  0.00     0.030 C 
ENDBRANCH  19  22
ENDBRANCH  17  18
ENDBRANCH  15  17
ENDBRANCH  10  11
ENDBRANCH   1  10
BRANCH   7  24
HETATM   24  N5  UNL     1      25.065   0.297  52.728  1.00  0.00    -0.343 N 
HETATM   25  H16 UNL     1      24.708   0.954  52.003  1.00  0.00     0.167 HD
BRANCH  24  26
HETATM   26  C14 UNL     1      26.410  -0.127  52.940  1.00  0.00     0.013 C 
HETATM   27  C15 UNL     1      26.768  -1.369  52.615  1.00  0.00     0.027 C 
HETATM   28  C16 UNL     1      28.019  -2.113  52.695  1.00  0.00     0.026 C 
HETATM   29  C17 UNL     1      29.087  -1.746  53.411  1.00  0.00     0.134 C 
HETATM   30  O3  UNL     1      29.242  -0.609  54.217  1.00  0.00    -0.363 OA
HETATM   31  C18 UNL     1      28.168   0.198  54.665  1.00  0.00     0.180 C 
HETATM   32  C19 UNL     1      27.393   0.815  53.522  1.00  0.00     0.083 C 
ENDBRANCH  24  26
ENDBRANCH   7  24
TORSDOF 7
ENDMDL
MODEL 5
REMARK VINA RESULT:      -7.9      6.643     11.724
REMARK  7 active torsions:
REMARK  status: ('A' for Active; 'I' for Inactive)
REMARK    1  A    between atoms: C2_2  and  N1_3 
REMARK       I    between atoms: N1_3  and  C4_5 
REMARK    2  A    between atoms: C4_5  and  O2_7 
REMARK    3  A    between atoms: O2_7  and  C5_8 
REMARK    4  A    between atoms: C7_11  and  C8_12 
REMARK    5  A    between atoms: C8_12  and  C9_13 
REMARK    6  A    between atoms: C13_19  and  N5_20 
REMARK    7  A    between atoms: N5_20  and  C14_21 
ROOT
HETATM    1  C9  UNL     1      20.823   0.847  52.064  1.00  0.00    -0.012 A 
HETATM    2  C10 UNL     1      20.737   0.314  53.313  1.00  0.00     0.047 A 
HETATM    3  C11 UNL     1      21.806  -0.247  53.941  1.00  0.00     0.080 A 
HETATM    4  N3  UNL     1      21.909  -0.813  55.153  1.00  0.00    -0.241 NA
HETATM    5  C12 UNL     1      23.073  -1.316  55.597  1.00  0.00     0.236 A 
HETATM    6  N4  UNL     1      24.242  -1.313  54.902  1.00  0.00    -0.223 NA
HETATM    7  C13 UNL     1      24.252  -0.771  53.678  1.00  0.00     0.148 A 
HETATM    8  C20 UNL     1      23.029  -0.261  53.252  1.00  0.00     0.080 A 
HETATM    9  S1  UNL     1      22.570   0.586  51.621  1.00  0.00    -0.088 SA
ENDROOT
BRANCH   1  10
HETATM   10  C8  UNL     1      20.051   1.490  51.085  1.00  0.00     0.081 C 
BRANCH  10  11
HETATM   11  C7  UNL     1      18.828   2.140  51.631  1.00  0.00     0.227 C 
HETATM   12  N2  UNL     1      17.589   1.703  51.067  1.00  0.00     0.090 N 
HETATM   13  C6  UNL     1      17.145   2.753  50.201  1.00  0.00     0.302 C 
HETATM   14  H10 UNL     1      17.638   0.804  50.533  1.00  0.00     0.316 HD
HETATM   15  C5  UNL     1      17.487   4.006  51.023  1.00  0.00     0.163 C 
HETATM   16  C21 UNL     1      18.944   3.647  51.368  1.00  0.00     0.070 C 
BRANCH  15  17
HETATM   17  O2  UNL     1      16.799   4.020  52.232  1.00  0.00    -0.296 OA
BRANCH  17  18
HETATM   18  C4  UNL     1      15.442   4.090  52.426  1.00  0.00     0.366 C 
HETATM   19  N1  UNL     1      14.038   4.154  52.586  1.00  0.00    -0.309 N 
HETATM   20  C3  UNL     1      13.211   3.942  51.434  1.00  0.00     0.161 C 
HETATM   21  O1  UNL     1      15.424   4.338  53.657  1.00  0.00    -0.238 OA
BRANCH  19  22
HETATM   22  C2  UNL     1      13.515   4.422  53.868  1.00  0.00     0.085 C 
HETATM   23  C1  UNL     1      12.202   4.463  53.976  1.00  0.00     0.030 C 
ENDBRANCH  19  22
ENDBRANCH  17  18
ENDBRANCH  15  17
ENDBRANCH  10  11
ENDBRANCH   1  10
BRANCH   7  24
HETATM   24  N5  UNL     1      25.362  -0.683  52.825  1.00  0.00    -0.343 N 
HETATM   25  H16 UNL     1      25.416  -1.251  51.954  1.00  0.00     0.167 HD
BRANCH  24  26
HETATM   26  C14 UNL     1      26.320   0.247  53.326  1.00  0.00     0.013 C 
HETATM   27  C15 UNL     1      26.764   1.225  52.537  1.00  0.00     0.027 C 
HETATM   28  C16 UNL     1      27.714   2.316  52.718  1.00  0.00     0.026 C 
HETATM   29  C17 UNL     1      28.598   2.408  53.717  1.00  0.00     0.134 C 
HETATM   30  O3  UNL     1      28.805   1.512  54.776  1.00  0.00    -0.363 OA
HETATM   31  C18 UNL     1      28.320   0.182  54.797  1.00  0.00     0.180 C 
HETATM   32  C19 UNL     1      26.811   0.116  54.716  1.00  0.00     0.083 C 
ENDBRANCH  24  26
ENDBRANCH   7  24
TORSDOF 7
ENDMDL
MODEL 6
REMARK VINA RESULT:      -7.6      1.259      1.731
REMARK  7 active torsions:
REMARK  status: ('A' for Active; 'I' for Inactive)
REMARK    1  A    between atoms: C2_2  and  N1_3 
REMARK       I    between atoms: N1_3  and  C4_5 
REMARK    2  A    between atoms: C4_5  and  O2_7 
REMARK    3  A    between atoms: O2_7  and  C5_8 
REMARK    4  A    between atoms: C7_11  and  C8_12 
REMARK    5  A    between atoms: C8_12  and  C9_13 
REMARK    6  A    between atoms: C13_19  and  N5_20 
REMARK    7  A    between atoms: N5_20  and  C14_21 
ROOT
HETATM    1  C9  UNL     1      27.143   7.055  48.772  1.00  0.00    -0.012 A 
HETATM    2  C10 UNL     1      26.188   7.477  49.645  1.00  0.00     0.047 A 
HETATM    3  C11 UNL     1      25.373   6.610  50.307  1.00  0.00     0.080 A 
HETATM    4  N3  UNL     1      24.391   6.840  51.192  1.00  0.00    -0.241 NA
HETATM    5  C12 UNL     1      23.693   5.832  51.743  1.00  0.00     0.236 A 
HETATM    6  N4  UNL     1      23.889   4.511  51.484  1.00  0.00    -0.223 NA
HETATM    7  C13 UNL     1      24.848   4.170  50.613  1.00  0.00     0.148 A 
HETATM    8  C20 UNL     1      25.548   5.240  50.064  1.00  0.00     0.080 A 
HETATM    9  S1  UNL     1      26.967   5.242  48.809  1.00  0.00    -0.088 SA
ENDROOT
BRANCH   1  10
HETATM   10  C8  UNL     1      28.148   7.538  47.921  1.00  0.00     0.081 C 
BRANCH  10  11
HETATM   11  C7  UNL     1      29.518   7.128  48.333  1.00  0.00     0.227 C 
HETATM   12  N2  UNL     1      30.112   7.908  49.375  1.00  0.00     0.090 N 
HETATM   13  C6  UNL     1      31.098   8.736  48.748  1.00  0.00     0.302 C 
HETATM   14  H10 UNL     1      29.445   8.505  49.917  1.00  0.00     0.316 HD
HETATM   15  C5  UNL     1      31.728   7.766  47.736  1.00  0.00     0.163 C 
HETATM   16  C21 UNL     1      30.428   7.238  47.103  1.00  0.00     0.070 C 
BRANCH  15  17
HETATM   17  O2  UNL     1      32.312   6.677  48.376  1.00  0.00    -0.296 OA
BRANCH  17  18
HETATM   18  C4  UNL     1      32.787   5.522  47.805  1.00  0.00     0.366 C 
HETATM   19  N1  UNL     1      33.238   4.324  47.203  1.00  0.00    -0.309 N 
HETATM   20  C3  UNL     1      32.278   3.492  46.538  1.00  0.00     0.161 C 
HETATM   21  O1  UNL     1      34.001   5.631  48.104  1.00  0.00    -0.238 OA
BRANCH  19  22
HETATM   22  C2  UNL     1      34.608   4.002  47.284  1.00  0.00     0.085 C 
HETATM   23  C1  UNL     1      35.102   3.267  46.307  1.00  0.00     0.030 C 
ENDBRANCH  19  22
ENDBRANCH  17  18
ENDBRANCH  15  17
ENDBRANCH  10  11
ENDBRANCH   1  10
BRANCH   7  24
HETATM   24  N5  UNL     1      25.185   2.864  50.230  1.00  0.00    -0.343 N 
HETATM   25  H16 UNL     1      25.175   2.579  49.228  1.00  0.00     0.167 HD
BRANCH  24  26
HETATM   26  C14 UNL     1      25.516   2.066  51.365  1.00  0.00     0.013 C 
HETATM   27  C15 UNL     1      24.605   1.237  51.874  1.00  0.00     0.027 C 
HETATM   28  C16 UNL     1      24.604   0.304  52.994  1.00  0.00     0.026 C 
HETATM   29  C17 UNL     1      25.511   0.281  53.977  1.00  0.00     0.134 C 
HETATM   30  O3  UNL     1      26.625   1.115  54.147  1.00  0.00    -0.363 OA
HETATM   31  C18 UNL     1      26.808   2.344  53.467  1.00  0.00     0.180 C 
HETATM   32  C19 UNL     1      26.864   2.169  51.966  1.00  0.00     0.083 C 
ENDBRANCH  24  26
ENDBRANCH   7  24
TORSDOF 7
ENDMDL
MODEL 7
REMARK VINA RESULT:      -7.5      2.054      2.802
REMARK  7 active torsions:
REMARK  status: ('A' for Active; 'I' for Inactive)
REMARK    1  A    between atoms: C2_2  and  N1_3 
REMARK       I    between atoms: N1_3  and  C4_5 
REMARK    2  A    between atoms: C4_5  and  O2_7 
REMARK    3  A    between atoms: O2_7  and  C5_8 
REMARK    4  A    between atoms: C7_11  and  C8_12 
REMARK    5  A    between atoms: C8_12  and  C9_13 
REMARK    6  A    between atoms: C13_19  and  N5_20 
REMARK    7  A    between atoms: N5_20  and  C14_21 
ROOT
HETATM    1  C9  UNL     1      24.348   5.692  48.955  1.00  0.00    -0.012 A 
HETATM    2  C10 UNL     1      23.513   4.796  48.362  1.00  0.00     0.047 A 
HETATM    3  C11 UNL     1      23.115   3.651  48.981  1.00  0.00     0.080 A 
HETATM    4  N3  UNL     1      22.308   2.666  48.559  1.00  0.00    -0.241 NA
HETATM    5  C12 UNL     1      22.033   1.603  49.334  1.00  0.00     0.236 A 
HETATM    6  N4  UNL     1      22.518   1.403  50.590  1.00  0.00    -0.223 NA
HETATM    7  C13 UNL     1      23.335   2.329  51.109  1.00  0.00     0.148 A 
HETATM    8  C20 UNL     1      23.596   3.414  50.278  1.00  0.00     0.080 A 
HETATM    9  S1  UNL     1      24.675   4.941  50.582  1.00  0.00    -0.088 SA
ENDROOT
BRANCH   1  10
HETATM   10  C8  UNL     1      24.984   6.922  48.729  1.00  0.00     0.081 C 
BRANCH  10  11
HETATM   11  C7  UNL     1      26.453   6.878  48.962  1.00  0.00     0.227 C 
HETATM   12  N2  UNL     1      26.945   7.744  49.990  1.00  0.00     0.090 N 
HETATM   13  C6  UNL     1      27.595   8.832  49.325  1.00  0.00     0.302 C 
HETATM   14  H10 UNL     1      26.215   8.116  50.642  1.00  0.00     0.316 HD
HETATM   15  C5  UNL     1      28.329   8.111  48.183  1.00  0.00     0.163 C 
HETATM   16  C21 UNL     1      27.146   7.282  47.654  1.00  0.00     0.070 C 
BRANCH  15  17
HETATM   17  O2  UNL     1      29.252   7.194  48.676  1.00  0.00    -0.296 OA
BRANCH  17  18
HETATM   18  C4  UNL     1      30.233   6.533  47.979  1.00  0.00     0.366 C 
HETATM   19  N1  UNL     1      31.254   5.887  47.243  1.00  0.00    -0.309 N 
HETATM   20  C3  UNL     1      32.015   6.663  46.308  1.00  0.00     0.161 C 
HETATM   21  O1  UNL     1      30.088   5.383  48.464  1.00  0.00    -0.238 OA
BRANCH  19  22
HETATM   22  C2  UNL     1      31.477   4.512  47.461  1.00  0.00     0.085 C 
HETATM   23  C1  UNL     1      32.391   3.934  46.707  1.00  0.00     0.030 C 
ENDBRANCH  19  22
ENDBRANCH  17  18
ENDBRANCH  15  17
ENDBRANCH  10  11
ENDBRANCH   1  10
BRANCH   7  24
HETATM   24  N5  UNL     1      23.923   2.286  52.382  1.00  0.00    -0.343 N 
HETATM   25  H16 UNL     1      23.564   2.880  53.159  1.00  0.00     0.167 HD
BRANCH  24  26
HETATM   26  C14 UNL     1      25.009   1.362  52.413  1.00  0.00     0.013 C 
HETATM   27  C15 UNL     1      24.847   0.177  52.999  1.00  0.00     0.027 C 
HETATM   28  C16 UNL     1      25.718  -0.974  53.207  1.00  0.00     0.026 C 
HETATM   29  C17 UNL     1      27.048  -0.968  53.065  1.00  0.00     0.134 C 
HETATM   30  O3  UNL     1      27.875   0.104  52.698  1.00  0.00    -0.363 OA
HETATM   31  C18 UNL     1      27.472   1.461  52.719  1.00  0.00     0.180 C 
HETATM   32  C19 UNL     1      26.304   1.731  51.797  1.00  0.00     0.083 C 
ENDBRANCH  24  26
ENDBRANCH   7  24
TORSDOF 7
ENDMDL
MODEL 8
REMARK VINA RESULT:      -7.5      5.735      9.078
REMARK  7 active torsions:
REMARK  status: ('A' for Active; 'I' for Inactive)
REMARK    1  A    between atoms: C2_2  and  N1_3 
REMARK       I    between atoms: N1_3  and  C4_5 
REMARK    2  A    between atoms: C4_5  and  O2_7 
REMARK    3  A    between atoms: O2_7  and  C5_8 
REMARK    4  A    between atoms: C7_11  and  C8_12 
REMARK    5  A    between atoms: C8_12  and  C9_13 
REMARK    6  A    between atoms: C13_19  and  N5_20 
REMARK    7  A    between atoms: N5_20  and  C14_21 
ROOT
HETATM    1  C9  UNL     1      20.573  -0.131  52.782  1.00  0.00    -0.012 A 
HETATM    2  C10 UNL     1      20.881  -0.719  53.970  1.00  0.00     0.047 A 
HETATM    3  C11 UNL     1      22.165  -0.857  54.403  1.00  0.00     0.080 A 
HETATM    4  N3  UNL     1      22.652  -1.401  55.528  1.00  0.00    -0.241 NA
HETATM    5  C12 UNL     1      23.973  -1.439  55.775  1.00  0.00     0.236 A 
HETATM    6  N4  UNL     1      24.938  -0.951  54.948  1.00  0.00    -0.223 NA
HETATM    7  C13 UNL     1      24.559  -0.386  53.795  1.00  0.00     0.148 A 
HETATM    8  C20 UNL     1      23.185  -0.364  53.575  1.00  0.00     0.080 A 
HETATM    9  S1  UNL     1      22.203   0.323  52.109  1.00  0.00    -0.088 SA
ENDROOT
BRANCH   1  10
HETATM   10  C8  UNL     1      19.478   0.214  51.976  1.00  0.00     0.081 C 
BRANCH  10  11
HETATM   11  C7  UNL     1      19.506   1.630  51.519  1.00  0.00     0.227 C 
HETATM   12  N2  UNL     1      18.339   2.401  51.816  1.00  0.00     0.090 N 
HETATM   13  C6  UNL     1      17.626   2.549  50.583  1.00  0.00     0.302 C 
HETATM   14  H10 UNL     1      17.706   1.987  52.540  1.00  0.00     0.316 HD
HETATM   15  C5  UNL     1      18.769   2.801  49.586  1.00  0.00     0.163 C 
HETATM   16  C21 UNL     1      19.675   1.625  49.994  1.00  0.00     0.070 C 
BRANCH  15  17
HETATM   17  O2  UNL     1      19.473   3.957  49.907  1.00  0.00    -0.296 OA
BRANCH  17  18
HETATM   18  C4  UNL     1      20.825   4.174  49.800  1.00  0.00     0.366 C 
HETATM   19  N1  UNL     1      22.222   4.380  49.727  1.00  0.00    -0.309 N 
HETATM   20  C3  UNL     1      23.032   3.955  50.830  1.00  0.00     0.161 C 
HETATM   21  O1  UNL     1      20.855   4.718  48.668  1.00  0.00    -0.238 OA
BRANCH  19  22
HETATM   22  C2  UNL     1      22.755   4.994  48.575  1.00  0.00     0.085 C 
HETATM   23  C1  UNL     1      24.023   5.351  48.626  1.00  0.00     0.030 C 
ENDBRANCH  19  22
ENDBRANCH  17  18
ENDBRANCH  15  17
ENDBRANCH  10  11
ENDBRANCH   1  10
BRANCH   7  24
HETATM   24  N5  UNL     1      25.413   0.166  52.829  1.00  0.00    -0.343 N 
HETATM   25  H16 UNL     1      25.058   0.846  52.125  1.00  0.00     0.167 HD
BRANCH  24  26
HETATM   26  C14 UNL     1      26.742  -0.331  52.976  1.00  0.00     0.013 C 
HETATM   27  C15 UNL     1      27.000  -1.609  52.703  1.00  0.00     0.027 C 
HETATM   28  C16 UNL     1      28.207  -2.426  52.744  1.00  0.00     0.026 C 
HETATM   29  C17 UNL     1      29.343  -2.090  53.363  1.00  0.00     0.134 C 
HETATM   30  O3  UNL     1      29.622  -0.922  54.087  1.00  0.00    -0.363 OA
HETATM   31  C18 UNL     1      28.633  -0.023  54.556  1.00  0.00     0.180 C 
HETATM   32  C19 UNL     1      27.818   0.577  53.432  1.00  0.00     0.083 C 
ENDBRANCH  24  26
ENDBRANCH   7  24
TORSDOF 7
ENDMDL
MODEL 9
REMARK VINA RESULT:      -7.4      2.695      8.833
REMARK  7 active torsions:
REMARK  status: ('A' for Active; 'I' for Inactive)
REMARK    1  A    between atoms: C2_2  and  N1_3 
REMARK       I    between atoms: N1_3  and  C4_5 
REMARK    2  A    between atoms: C4_5  and  O2_7 
REMARK    3  A    between atoms: O2_7  and  C5_8 
REMARK    4  A    between atoms: C7_11  and  C8_12 
REMARK    5  A    between atoms: C8_12  and  C9_13 
REMARK    6  A    between atoms: C13_19  and  N5_20 
REMARK    7  A    between atoms: N5_20  and  C14_21 
ROOT
HETATM    1  C9  UNL     1      25.918   4.919  49.164  1.00  0.00    -0.012 A 
HETATM    2  C10 UNL     1      27.192   4.470  49.000  1.00  0.00     0.047 A 
HETATM    3  C11 UNL     1      28.174   5.243  48.461  1.00  0.00     0.080 A 
HETATM    4  N3  UNL     1      29.467   4.974  48.227  1.00  0.00    -0.241 NA
HETATM    5  C12 UNL     1      30.286   5.887  47.679  1.00  0.00     0.236 A 
HETATM    6  N4  UNL     1      29.921   7.145  47.311  1.00  0.00    -0.223 NA
HETATM    7  C13 UNL     1      28.649   7.518  47.502  1.00  0.00     0.148 A 
HETATM    8  C20 UNL     1      27.832   6.547  48.071  1.00  0.00     0.080 A 
HETATM    9  S1  UNL     1      25.993   6.621  48.519  1.00  0.00    -0.088 SA
ENDROOT
BRANCH   1  10
HETATM   10  C8  UNL     1      24.661   4.519  49.641  1.00  0.00     0.081 C 
BRANCH  10  11
HETATM   11  C7  UNL     1      24.654   3.141  50.202  1.00  0.00     0.227 C 
HETATM   12  N2  UNL     1      23.535   2.328  49.839  1.00  0.00     0.090 N 
HETATM   13  C6  UNL     1      22.695   2.256  50.996  1.00  0.00     0.302 C 
HETATM   14  H10 UNL     1      22.980   2.677  49.023  1.00  0.00     0.316 HD
HETATM   15  C5  UNL     1      23.725   2.099  52.125  1.00  0.00     0.163 C 
HETATM   16  C21 UNL     1      24.657   3.259  51.731  1.00  0.00     0.070 C 
BRANCH  15  17
HETATM   17  O2  UNL     1      24.473   0.936  51.968  1.00  0.00    -0.296 OA
BRANCH  17  18
HETATM   18  C4  UNL     1      25.530   0.508  52.732  1.00  0.00     0.366 C 
HETATM   19  N1  UNL     1      26.599   0.078  53.553  1.00  0.00    -0.309 N 
HETATM   20  C3  UNL     1      26.494   0.277  54.968  1.00  0.00     0.161 C 
HETATM   21  O1  UNL     1      26.270   0.058  51.822  1.00  0.00    -0.238 OA
BRANCH  19  22
HETATM   22  C2  UNL     1      27.719  -0.524  52.943  1.00  0.00     0.085 C 
HETATM   23  C1  UNL     1      28.791  -0.677  53.694  1.00  0.00     0.030 C 
ENDBRANCH  19  22
ENDBRANCH  17  18
ENDBRANCH  15  17
ENDBRANCH  10  11
ENDBRANCH   1  10
BRANCH   7  24
HETATM   24  N5  UNL     1      28.102   8.770  47.183  1.00  0.00    -0.343 N 
HETATM   25  H16 UNL     1      27.265   8.849  46.569  1.00  0.00     0.167 HD
BRANCH  24  26
HETATM   26  C14 UNL     1      28.839   9.823  47.802  1.00  0.00     0.013 C 
HETATM   27  C15 UNL     1      29.238  10.864  47.072  1.00  0.00     0.027 C 
HETATM   28  C16 UNL     1      29.986  12.079  47.371  1.00  0.00     0.026 C 
HETATM   29  C17 UNL     1      30.705  12.286  48.479  1.00  0.00     0.134 C 
HETATM   30  O3  UNL     1      30.896  11.418  49.563  1.00  0.00    -0.363 OA
HETATM   31  C18 UNL     1      30.611  10.031  49.529  1.00  0.00     0.180 C 
HETATM   32  C19 UNL     1      29.153   9.748  49.247  1.00  0.00     0.083 C 
ENDBRANCH  24  26
ENDBRANCH   7  24
TORSDOF 7
ENDMDL
