MODEL 1
REMARK VINA RESULT:      -7.5      0.000      0.000
REMARK  7 active torsions:
REMARK  status: ('A' for Active; 'I' for Inactive)
REMARK    1  A    between atoms: C5_6  and  N1_7 
REMARK    2  A    between atoms: N1_7  and  C6_8 
REMARK    3  A    between atoms: C8_10  and  C9_11 
REMARK    4  A    between atoms: C10_12  and  C12_14 
REMARK    5  A    between atoms: C12_14  and  O1_15 
REMARK    6  A    between atoms: C12_14  and  C13_16 
REMARK    7  A    between atoms: C13_16  and  O2_17 
ROOT
HETATM    1  C6  UNL     1      23.151   0.990  51.735  1.00  0.00     0.132 A 
HETATM    2  C7  UNL     1      24.407   1.064  52.312  1.00  0.00     0.082 A 
HETATM    3  C8  UNL     1      24.774   0.353  53.419  1.00  0.00     0.062 A 
HETATM    4  N2  UNL     1      23.862  -0.454  53.967  1.00  0.00    -0.242 NA
HETATM    5  C14 UNL     1      22.633  -0.552  53.435  1.00  0.00     0.235 A 
HETATM    6  N3  UNL     1      22.300   0.155  52.351  1.00  0.00    -0.224 NA
ENDROOT
BRANCH   1   7
HETATM    7  N1  UNL     1      22.801   1.737  50.550  1.00  0.00    -0.324 N 
HETATM    8  H4  UNL     1      22.661   1.171  49.692  1.00  0.00     0.169 HD
BRANCH   7   9
HETATM    9  C5  UNL     1      22.711   3.155  50.781  1.00  0.00     0.146 A 
HETATM   10  C4  UNL     1      23.672   4.107  50.423  1.00  0.00     0.061 A 
HETATM   11  S1  UNL     1      25.003   3.534  49.671  1.00  0.00    -0.097 SA
HETATM   12  C17 UNL     1      23.439   5.434  50.717  1.00  0.00    -0.013 A 
HETATM   13  C3  UNL     1      26.077   4.733  49.285  1.00  0.00     0.057 A 
HETATM   14  C2  UNL     1      25.593   6.039  49.703  1.00  0.00    -0.051 A 
HETATM   15  C1  UNL     1      26.297   7.129  49.494  1.00  0.00     0.043 C 
HETATM   16  C18 UNL     1      24.334   6.347  50.382  1.00  0.00     0.020 A 
HETATM   17  C16 UNL     1      22.242   5.765  51.366  1.00  0.00     0.032 A 
HETATM   18  C15 UNL     1      21.317   4.772  51.702  1.00  0.00     0.120 A 
HETATM   19  N4  UNL     1      21.561   3.482  51.406  1.00  0.00    -0.242 NA
ENDBRANCH   7   9
ENDBRANCH   1   7
BRANCH   3  20
HETATM   20  C9  UNL     1      26.048   0.388  54.106  1.00  0.00     0.036 C 
HETATM   21  C10 UNL     1      27.149  -0.291  53.840  1.00  0.00    -0.051 C 
HETATM   22  C11 UNL     1      27.330  -1.261  52.753  1.00  0.00     0.046 C 
BRANCH  21  23
HETATM   23  C12 UNL     1      28.379  -0.115  54.650  1.00  0.00     0.170 C 
BRANCH  23  24
HETATM   24  O1  UNL     1      28.519   1.171  55.113  1.00  0.00    -0.389 OA
HETATM   25  H11 UNL     1      28.845   1.264  56.029  1.00  0.00     0.210 HD
ENDBRANCH  23  24
BRANCH  23  26
HETATM   26  C13 UNL     1      29.557  -0.598  53.821  1.00  0.00     0.200 C 
BRANCH  26  27
HETATM   27  O2  UNL     1      30.324   0.470  53.402  1.00  0.00    -0.398 OA
HETATM   28  H14 UNL     1      31.129   0.621  53.933  1.00  0.00     0.209 HD
ENDBRANCH  26  27
ENDBRANCH  23  26
ENDBRANCH  21  23
ENDBRANCH   3  20
TORSDOF 7
ENDMDL
MODEL 2
REMARK VINA RESULT:      -7.5      1.469      2.092
REMARK  7 active torsions:
REMARK  status: ('A' for Active; 'I' for Inactive)
REMARK    1  A    between atoms: C5_6  and  N1_7 
REMARK    2  A    between atoms: N1_7  and  C6_8 
REMARK    3  A    between atoms: C8_10  and  C9_11 
REMARK    4  A    between atoms: C10_12  and  C12_14 
REMARK    5  A    between atoms: C12_14  and  O1_15 
REMARK    6  A    between atoms: C12_14  and  C13_16 
REMARK    7  A    between atoms: C13_16  and  O2_17 
ROOT
HETATM    1  C6  UNL     1      22.650   1.164  53.034  1.00  0.00     0.132 A 
HETATM    2  C7  UNL     1      24.033   1.149  53.054  1.00  0.00     0.082 A 
HETATM    3  C8  UNL     1      24.772   0.141  53.605  1.00  0.00     0.062 A 
HETATM    4  N2  UNL     1      24.112  -0.883  54.152  1.00  0.00    -0.242 NA
HETATM    5  C14 UNL     1      22.769  -0.903  54.152  1.00  0.00     0.235 A 
HETATM    6  N3  UNL     1      22.071   0.097  53.606  1.00  0.00    -0.224 NA
ENDROOT
BRANCH   1   7
HETATM    7  N1  UNL     1      21.898   2.235  52.423  1.00  0.00    -0.324 N 
HETATM    8  H4  UNL     1      21.247   2.739  53.054  1.00  0.00     0.169 HD
BRANCH   7   9
HETATM    9  C5  UNL     1      22.195   2.407  51.024  1.00  0.00     0.146 A 
HETATM   10  C4  UNL     1      22.901   3.475  50.461  1.00  0.00     0.061 A 
HETATM   11  S1  UNL     1      23.430   4.614  51.505  1.00  0.00    -0.097 SA
HETATM   12  C17 UNL     1      23.103   3.497  49.098  1.00  0.00    -0.013 A 
HETATM   13  C3  UNL     1      24.255   5.833  50.747  1.00  0.00     0.057 A 
HETATM   14  C2  UNL     1      24.326   5.617  49.311  1.00  0.00    -0.051 A 
HETATM   15  C1  UNL     1      24.936   6.471  48.520  1.00  0.00     0.043 C 
HETATM   16  C18 UNL     1      23.770   4.498  48.550  1.00  0.00     0.020 A 
HETATM   17  C16 UNL     1      22.585   2.441  48.338  1.00  0.00     0.032 A 
HETATM   18  C15 UNL     1      21.886   1.397  48.953  1.00  0.00     0.120 A 
HETATM   19  N4  UNL     1      21.700   1.393  50.286  1.00  0.00    -0.242 NA
ENDBRANCH   7   9
ENDBRANCH   1   7
BRANCH   3  20
HETATM   20  C9  UNL     1      26.214   0.053  53.697  1.00  0.00     0.036 C 
HETATM   21  C10 UNL     1      27.028  -0.815  53.125  1.00  0.00    -0.051 C 
HETATM   22  C11 UNL     1      26.637  -1.919  52.239  1.00  0.00     0.046 C 
BRANCH  21  23
HETATM   23  C12 UNL     1      28.496  -0.743  53.321  1.00  0.00     0.170 C 
BRANCH  23  24
HETATM   24  O1  UNL     1      29.048  -1.975  53.578  1.00  0.00    -0.389 OA
HETATM   25  H11 UNL     1      28.480  -2.607  54.061  1.00  0.00     0.210 HD
ENDBRANCH  23  24
BRANCH  23  26
HETATM   26  C13 UNL     1      28.774   0.289  54.401  1.00  0.00     0.200 C 
BRANCH  26  27
HETATM   27  O2  UNL     1      29.698   1.214  53.959  1.00  0.00    -0.398 OA
HETATM   28  H14 UNL     1      29.795   1.255  52.989  1.00  0.00     0.209 HD
ENDBRANCH  26  27
ENDBRANCH  23  26
ENDBRANCH  21  23
ENDBRANCH   3  20
TORSDOF 7
ENDMDL
MODEL 3
REMARK VINA RESULT:      -7.4      2.847      6.663
REMARK  7 active torsions:
REMARK  status: ('A' for Active; 'I' for Inactive)
REMARK    1  A    between atoms: C5_6  and  N1_7 
REMARK    2  A    between atoms: N1_7  and  C6_8 
REMARK    3  A    between atoms: C8_10  and  C9_11 
REMARK    4  A    between atoms: C10_12  and  C12_14 
REMARK    5  A    between atoms: C12_14  and  O1_15 
REMARK    6  A    between atoms: C12_14  and  C13_16 
REMARK    7  A    between atoms: C13_16  and  O2_17 
ROOT
HETATM    1  C6  UNL     1      23.592   3.621  50.684  1.00  0.00     0.132 A 
HETATM    2  C7  UNL     1      24.549   4.566  50.355  1.00  0.00     0.082 A 
HETATM    3  C8  UNL     1      24.423   5.898  50.630  1.00  0.00     0.062 A 
HETATM    4  N2  UNL     1      23.312   6.300  51.252  1.00  0.00    -0.242 NA
HETATM    5  C14 UNL     1      22.362   5.413  51.586  1.00  0.00     0.235 A 
HETATM    6  N3  UNL     1      22.509   4.115  51.305  1.00  0.00    -0.224 NA
ENDROOT
BRANCH   1   7
HETATM    7  N1  UNL     1      23.764   2.216  50.400  1.00  0.00    -0.324 N 
HETATM    8  H4  UNL     1      23.833   1.970  49.394  1.00  0.00     0.169 HD
BRANCH   7   9
HETATM    9  C5  UNL     1      23.808   1.401  51.586  1.00  0.00     0.146 A 
HETATM   10  C4  UNL     1      24.948   1.124  52.349  1.00  0.00     0.061 A 
HETATM   11  S1  UNL     1      26.340   1.803  51.830  1.00  0.00    -0.097 SA
HETATM   12  C17 UNL     1      24.827   0.321  53.462  1.00  0.00    -0.013 A 
HETATM   13  C3  UNL     1      27.628   1.421  52.797  1.00  0.00     0.057 A 
HETATM   14  C2  UNL     1      27.232   0.562  53.900  1.00  0.00    -0.051 A 
HETATM   15  C1  UNL     1      28.106   0.138  54.786  1.00  0.00     0.043 C 
HETATM   16  C18 UNL     1      25.893   0.052  54.196  1.00  0.00     0.020 A 
HETATM   17  C16 UNL     1      23.559  -0.184  53.776  1.00  0.00     0.032 A 
HETATM   18  C15 UNL     1      22.452   0.124  52.978  1.00  0.00     0.120 A 
HETATM   19  N4  UNL     1      22.590   0.912  51.895  1.00  0.00    -0.242 NA
ENDBRANCH   7   9
ENDBRANCH   1   7
BRANCH   3  20
HETATM   20  C9  UNL     1      25.354   6.957  50.301  1.00  0.00     0.036 C 
HETATM   21  C10 UNL     1      26.371   6.932  49.460  1.00  0.00    -0.051 C 
HETATM   22  C11 UNL     1      26.797   5.786  48.646  1.00  0.00     0.046 C 
BRANCH  21  23
HETATM   23  C12 UNL     1      27.217   8.128  49.234  1.00  0.00     0.170 C 
BRANCH  23  24
HETATM   24  O1  UNL     1      28.556   7.854  49.376  1.00  0.00    -0.389 OA
HETATM   25  H11 UNL     1      29.009   7.503  48.585  1.00  0.00     0.210 HD
ENDBRANCH  23  24
BRANCH  23  26
HETATM   26  C13 UNL     1      26.718   9.233  50.150  1.00  0.00     0.200 C 
BRANCH  26  27
HETATM   27  O2  UNL     1      27.614   9.453  51.175  1.00  0.00    -0.398 OA
HETATM   28  H14 UNL     1      27.720   8.699  51.787  1.00  0.00     0.209 HD
ENDBRANCH  26  27
ENDBRANCH  23  26
ENDBRANCH  21  23
ENDBRANCH   3  20
TORSDOF 7
ENDMDL
MODEL 4
REMARK VINA RESULT:      -7.2      3.375      7.056
REMARK  7 active torsions:
REMARK  status: ('A' for Active; 'I' for Inactive)
REMARK    1  A    between atoms: C5_6  and  N1_7 
REMARK    2  A    between atoms: N1_7  and  C6_8 
REMARK    3  A    between atoms: C8_10  and  C9_11 
REMARK    4  A    between atoms: C10_12  and  C12_14 
REMARK    5  A    between atoms: C12_14  and  O1_15 
REMARK    6  A    between atoms: C12_14  and  C13_16 
REMARK    7  A    between atoms: C13_16  and  O2_17 
ROOT
HETATM    1  C6  UNL     1      22.914   2.928  50.884  1.00  0.00     0.132 A 
HETATM    2  C7  UNL     1      23.908   3.612  50.206  1.00  0.00     0.082 A 
HETATM    3  C8  UNL     1      24.272   4.897  50.491  1.00  0.00     0.062 A 
HETATM    4  N2  UNL     1      23.628   5.518  51.481  1.00  0.00    -0.242 NA
HETATM    5  C14 UNL     1      22.657   4.887  52.162  1.00  0.00     0.235 A 
HETATM    6  N3  UNL     1      22.320   3.630  51.862  1.00  0.00    -0.224 NA
ENDROOT
BRANCH   1   7
HETATM    7  N1  UNL     1      22.568   1.561  50.573  1.00  0.00    -0.324 N 
HETATM    8  H4  UNL     1      22.570   1.319  49.565  1.00  0.00     0.169 HD
BRANCH   7   9
HETATM    9  C5  UNL     1      22.277   0.772  51.742  1.00  0.00     0.146 A 
HETATM   10  C4  UNL     1      21.024   0.258  52.094  1.00  0.00     0.061 A 
HETATM   11  S1  UNL     1      19.799   0.591  51.066  1.00  0.00    -0.097 SA
HETATM   12  C17 UNL     1      20.907  -0.480  53.252  1.00  0.00    -0.013 A 
HETATM   13  C3  UNL     1      18.361  -0.060  51.565  1.00  0.00     0.057 A 
HETATM   14  C2  UNL     1      18.510  -0.790  52.813  1.00  0.00    -0.051 A 
HETATM   15  C1  UNL     1      17.486  -1.384  53.385  1.00  0.00     0.043 C 
HETATM   16  C18 UNL     1      19.731  -0.976  53.597  1.00  0.00     0.020 A 
HETATM   17  C16 UNL     1      22.057  -0.679  54.026  1.00  0.00     0.032 A 
HETATM   18  C15 UNL     1      23.285  -0.142  53.628  1.00  0.00     0.120 A 
HETATM   19  N4  UNL     1      23.380   0.576  52.493  1.00  0.00    -0.242 NA
ENDBRANCH   7   9
ENDBRANCH   1   7
BRANCH   3  20
HETATM   20  C9  UNL     1      25.275   5.698  49.820  1.00  0.00     0.036 C 
HETATM   21  C10 UNL     1      26.413   5.312  49.275  1.00  0.00    -0.051 C 
HETATM   22  C11 UNL     1      26.931   3.938  49.226  1.00  0.00     0.046 C 
BRANCH  21  23
HETATM   23  C12 UNL     1      27.319   6.279  48.610  1.00  0.00     0.170 C 
BRANCH  23  24
HETATM   24  O1  UNL     1      28.642   6.022  48.878  1.00  0.00    -0.389 OA
HETATM   25  H11 UNL     1      29.054   5.305  48.358  1.00  0.00     0.210 HD
ENDBRANCH  23  24
BRANCH  23  26
HETATM   26  C13 UNL     1      26.877   7.679  49.001  1.00  0.00     0.200 C 
BRANCH  26  27
HETATM   27  O2  UNL     1      27.811   8.268  49.827  1.00  0.00    -0.398 OA
HETATM   28  H14 UNL     1      28.401   8.905  49.381  1.00  0.00     0.209 HD
ENDBRANCH  26  27
ENDBRANCH  23  26
ENDBRANCH  21  23
ENDBRANCH   3  20
TORSDOF 7
ENDMDL
MODEL 5
REMARK VINA RESULT:      -7.2      3.363      7.233
REMARK  7 active torsions:
REMARK  status: ('A' for Active; 'I' for Inactive)
REMARK    1  A    between atoms: C5_6  and  N1_7 
REMARK    2  A    between atoms: N1_7  and  C6_8 
REMARK    3  A    between atoms: C8_10  and  C9_11 
REMARK    4  A    between atoms: C10_12  and  C12_14 
REMARK    5  A    between atoms: C12_14  and  O1_15 
REMARK    6  A    between atoms: C12_14  and  C13_16 
REMARK    7  A    between atoms: C13_16  and  O2_17 
ROOT
HETATM    1  C6  UNL     1      24.416   4.247  50.272  1.00  0.00     0.132 A 
HETATM    2  C7  UNL     1      25.373   4.896  49.512  1.00  0.00     0.082 A 
HETATM    3  C8  UNL     1      25.706   6.211  49.676  1.00  0.00     0.062 A 
HETATM    4  N2  UNL     1      25.066   6.898  50.625  1.00  0.00    -0.242 NA
HETATM    5  C14 UNL     1      24.130   6.302  51.382  1.00  0.00     0.235 A 
HETATM    6  N3  UNL     1      23.824   5.015  51.201  1.00  0.00    -0.224 NA
ENDROOT
BRANCH   1   7
HETATM    7  N1  UNL     1      24.104   2.849  50.089  1.00  0.00    -0.324 N 
HETATM    8  H4  UNL     1      23.589   2.618  49.219  1.00  0.00     0.169 HD
BRANCH   7   9
HETATM    9  C5  UNL     1      24.571   2.020  51.170  1.00  0.00     0.146 A 
HETATM   10  C4  UNL     1      23.776   1.203  51.980  1.00  0.00     0.061 A 
HETATM   11  S1  UNL     1      22.177   1.204  51.648  1.00  0.00    -0.097 SA
HETATM   12  C17 UNL     1      24.376   0.467  52.980  1.00  0.00    -0.013 A 
HETATM   13  C3  UNL     1      21.321   0.208  52.656  1.00  0.00     0.057 A 
HETATM   14  C2  UNL     1      22.189  -0.451  53.618  1.00  0.00    -0.051 A 
HETATM   15  C1  UNL     1      21.709  -1.284  54.515  1.00  0.00     0.043 C 
HETATM   16  C18 UNL     1      23.639  -0.312  53.752  1.00  0.00     0.020 A 
HETATM   17  C16 UNL     1      25.763   0.575  53.135  1.00  0.00     0.032 A 
HETATM   18  C15 UNL     1      26.511   1.408  52.297  1.00  0.00     0.120 A 
HETATM   19  N4  UNL     1      25.907   2.119  51.325  1.00  0.00    -0.242 NA
ENDBRANCH   7   9
ENDBRANCH   1   7
BRANCH   3  20
HETATM   20  C9  UNL     1      26.669   6.978  48.914  1.00  0.00     0.036 C 
HETATM   21  C10 UNL     1      27.808   6.578  48.379  1.00  0.00    -0.051 C 
HETATM   22  C11 UNL     1      28.368   5.222  48.442  1.00  0.00     0.046 C 
BRANCH  21  23
HETATM   23  C12 UNL     1      28.669   7.508  47.610  1.00  0.00     0.170 C 
BRANCH  23  24
HETATM   24  O1  UNL     1      29.773   6.881  47.084  1.00  0.00    -0.389 OA
HETATM   25  H11 UNL     1      29.811   6.826  46.109  1.00  0.00     0.210 HD
ENDBRANCH  23  24
BRANCH  23  26
HETATM   26  C13 UNL     1      29.006   8.686  48.509  1.00  0.00     0.200 C 
BRANCH  26  27
HETATM   27  O2  UNL     1      29.897   8.306  49.491  1.00  0.00    -0.398 OA
HETATM   28  H14 UNL     1      30.413   9.040  49.874  1.00  0.00     0.209 HD
ENDBRANCH  26  27
ENDBRANCH  23  26
ENDBRANCH  21  23
ENDBRANCH   3  20
TORSDOF 7
ENDMDL
MODEL 6
REMARK VINA RESULT:      -7.2      2.570      4.872
REMARK  7 active torsions:
REMARK  status: ('A' for Active; 'I' for Inactive)
REMARK    1  A    between atoms: C5_6  and  N1_7 
REMARK    2  A    between atoms: N1_7  and  C6_8 
REMARK    3  A    between atoms: C8_10  and  C9_11 
REMARK    4  A    between atoms: C10_12  and  C12_14 
REMARK    5  A    between atoms: C12_14  and  O1_15 
REMARK    6  A    between atoms: C12_14  and  C13_16 
REMARK    7  A    between atoms: C13_16  and  O2_17 
ROOT
HETATM    1  C6  UNL     1      24.263   3.517  50.847  1.00  0.00     0.132 A 
HETATM    2  C7  UNL     1      24.969   2.854  51.835  1.00  0.00     0.082 A 
HETATM    3  C8  UNL     1      26.282   2.497  51.717  1.00  0.00     0.062 A 
HETATM    4  N2  UNL     1      26.909   2.811  50.581  1.00  0.00    -0.242 NA
HETATM    5  C14 UNL     1      26.257   3.454  49.599  1.00  0.00     0.235 A 
HETATM    6  N3  UNL     1      24.972   3.791  49.740  1.00  0.00    -0.224 NA
ENDROOT
BRANCH   1   7
HETATM    7  N1  UNL     1      22.881   3.902  51.012  1.00  0.00    -0.324 N 
HETATM    8  H4  UNL     1      22.724   4.803  51.500  1.00  0.00     0.169 HD
BRANCH   7   9
HETATM    9  C5  UNL     1      21.958   2.944  50.459  1.00  0.00     0.146 A 
HETATM   10  C4  UNL     1      21.206   2.015  51.186  1.00  0.00     0.061 A 
HETATM   11  S1  UNL     1      21.408   2.042  52.807  1.00  0.00    -0.097 SA
HETATM   12  C17 UNL     1      20.364   1.160  50.508  1.00  0.00    -0.013 A 
HETATM   13  C3  UNL     1      20.477   0.911  53.578  1.00  0.00     0.057 A 
HETATM   14  C2  UNL     1      19.681   0.141  52.636  1.00  0.00    -0.051 A 
HETATM   15  C1  UNL     1      18.873  -0.813  53.042  1.00  0.00     0.043 C 
HETATM   16  C18 UNL     1      19.645   0.278  51.180  1.00  0.00     0.020 A 
HETATM   17  C16 UNL     1      20.303   1.265  49.113  1.00  0.00     0.032 A 
HETATM   18  C15 UNL     1      21.077   2.212  48.435  1.00  0.00     0.120 A 
HETATM   19  N4  UNL     1      21.894   3.040  49.115  1.00  0.00    -0.242 NA
ENDBRANCH   7   9
ENDBRANCH   1   7
BRANCH   3  20
HETATM   20  C9  UNL     1      27.091   1.780  52.681  1.00  0.00     0.036 C 
HETATM   21  C10 UNL     1      27.211   0.476  52.852  1.00  0.00    -0.051 C 
HETATM   22  C11 UNL     1      26.529  -0.568  52.077  1.00  0.00     0.046 C 
BRANCH  21  23
HETATM   23  C12 UNL     1      28.107  -0.087  53.890  1.00  0.00     0.170 C 
BRANCH  23  24
HETATM   24  O1  UNL     1      27.438  -0.375  55.055  1.00  0.00    -0.389 OA
HETATM   25  H11 UNL     1      27.995  -0.584  55.830  1.00  0.00     0.210 HD
ENDBRANCH  23  24
BRANCH  23  26
HETATM   26  C13 UNL     1      29.271   0.872  54.075  1.00  0.00     0.200 C 
BRANCH  26  27
HETATM   27  O2  UNL     1      30.382   0.421  53.393  1.00  0.00    -0.398 OA
HETATM   28  H14 UNL     1      31.190   0.359  53.936  1.00  0.00     0.209 HD
ENDBRANCH  26  27
ENDBRANCH  23  26
ENDBRANCH  21  23
ENDBRANCH   3  20
TORSDOF 7
ENDMDL
MODEL 7
REMARK VINA RESULT:      -6.8      3.421      7.157
REMARK  7 active torsions:
REMARK  status: ('A' for Active; 'I' for Inactive)
REMARK    1  A    between atoms: C5_6  and  N1_7 
REMARK    2  A    between atoms: N1_7  and  C6_8 
REMARK    3  A    between atoms: C8_10  and  C9_11 
REMARK    4  A    between atoms: C10_12  and  C12_14 
REMARK    5  A    between atoms: C12_14  and  O1_15 
REMARK    6  A    between atoms: C12_14  and  C13_16 
REMARK    7  A    between atoms: C13_16  and  O2_17 
ROOT
HETATM    1  C6  UNL     1      23.216   4.279  50.826  1.00  0.00     0.132 A 
HETATM    2  C7  UNL     1      24.225   5.161  50.484  1.00  0.00     0.082 A 
HETATM    3  C8  UNL     1      24.504   5.532  49.200  1.00  0.00     0.062 A 
HETATM    4  N2  UNL     1      23.755   5.008  48.227  1.00  0.00    -0.242 NA
HETATM    5  C14 UNL     1      22.766   4.147  48.520  1.00  0.00     0.235 A 
HETATM    6  N3  UNL     1      22.515   3.801  49.785  1.00  0.00    -0.224 NA
ENDROOT
BRANCH   1   7
HETATM    7  N1  UNL     1      22.931   3.924  52.196  1.00  0.00    -0.324 N 
HETATM    8  H4  UNL     1      22.389   4.626  52.734  1.00  0.00     0.169 HD
BRANCH   7   9
HETATM    9  C5  UNL     1      23.464   2.640  52.570  1.00  0.00     0.146 A 
HETATM   10  C4  UNL     1      22.716   1.525  52.964  1.00  0.00     0.061 A 
HETATM   11  S1  UNL     1      21.095   1.722  52.988  1.00  0.00    -0.097 SA
HETATM   12  C17 UNL     1      23.376   0.361  53.295  1.00  0.00    -0.013 A 
HETATM   13  C3  UNL     1      20.298   0.351  53.463  1.00  0.00     0.057 A 
HETATM   14  C2  UNL     1      21.224  -0.732  53.753  1.00  0.00    -0.051 A 
HETATM   15  C1  UNL     1      20.798  -1.910  54.150  1.00  0.00     0.043 C 
HETATM   16  C18 UNL     1      22.684  -0.703  53.666  1.00  0.00     0.020 A 
HETATM   17  C16 UNL     1      24.774   0.353  53.220  1.00  0.00     0.032 A 
HETATM   18  C15 UNL     1      25.473   1.497  52.821  1.00  0.00     0.120 A 
HETATM   19  N4  UNL     1      24.810   2.624  52.501  1.00  0.00    -0.242 NA
ENDBRANCH   7   9
ENDBRANCH   1   7
BRANCH   3  20
HETATM   20  C9  UNL     1      25.553   6.422  48.747  1.00  0.00     0.036 C 
HETATM   21  C10 UNL     1      26.827   6.154  48.527  1.00  0.00    -0.051 C 
HETATM   22  C11 UNL     1      27.483   4.852  48.698  1.00  0.00     0.046 C 
BRANCH  21  23
HETATM   23  C12 UNL     1      27.764   7.197  48.045  1.00  0.00     0.170 C 
BRANCH  23  24
HETATM   24  O1  UNL     1      29.033   6.708  47.851  1.00  0.00    -0.389 OA
HETATM   25  H11 UNL     1      29.615   7.240  47.274  1.00  0.00     0.210 HD
ENDBRANCH  23  24
BRANCH  23  26
HETATM   26  C13 UNL     1      27.701   8.366  49.014  1.00  0.00     0.200 C 
BRANCH  26  27
HETATM   27  O2  UNL     1      28.919   8.541  49.640  1.00  0.00    -0.398 OA
HETATM   28  H14 UNL     1      29.664   8.708  49.033  1.00  0.00     0.209 HD
ENDBRANCH  26  27
ENDBRANCH  23  26
ENDBRANCH  21  23
ENDBRANCH   3  20
TORSDOF 7
ENDMDL
MODEL 8
REMARK VINA RESULT:      -6.8      3.721      7.275
REMARK  7 active torsions:
REMARK  status: ('A' for Active; 'I' for Inactive)
REMARK    1  A    between atoms: C5_6  and  N1_7 
REMARK    2  A    between atoms: N1_7  and  C6_8 
REMARK    3  A    between atoms: C8_10  and  C9_11 
REMARK    4  A    between atoms: C10_12  and  C12_14 
REMARK    5  A    between atoms: C12_14  and  O1_15 
REMARK    6  A    between atoms: C12_14  and  C13_16 
REMARK    7  A    between atoms: C13_16  and  O2_17 
ROOT
HETATM    1  C6  UNL     1      23.851   4.410  50.075  1.00  0.00     0.132 A 
HETATM    2  C7  UNL     1      24.873   5.342  50.089  1.00  0.00     0.082 A 
HETATM    3  C8  UNL     1      24.709   6.640  50.481  1.00  0.00     0.062 A 
HETATM    4  N2  UNL     1      23.489   7.019  50.871  1.00  0.00    -0.242 NA
HETATM    5  C14 UNL     1      22.472   6.142  50.871  1.00  0.00     0.235 A 
HETATM    6  N3  UNL     1      22.661   4.878  50.482  1.00  0.00    -0.224 NA
ENDROOT
BRANCH   1   7
HETATM    7  N1  UNL     1      24.063   3.038  49.677  1.00  0.00    -0.324 N 
HETATM    8  H4  UNL     1      24.959   2.849  49.189  1.00  0.00     0.169 HD
BRANCH   7   9
HETATM    9  C5  UNL     1      22.971   2.171  50.035  1.00  0.00     0.146 A 
HETATM   10  C4  UNL     1      22.906   1.362  51.175  1.00  0.00     0.061 A 
HETATM   11  S1  UNL     1      24.195   1.430  52.176  1.00  0.00    -0.097 SA
HETATM   12  C17 UNL     1      21.788   0.582  51.377  1.00  0.00    -0.013 A 
HETATM   13  C3  UNL     1      24.024   0.443  53.494  1.00  0.00     0.057 A 
HETATM   14  C2  UNL     1      22.756  -0.268  53.469  1.00  0.00    -0.051 A 
HETATM   15  C1  UNL     1      22.423  -1.108  54.423  1.00  0.00     0.043 C 
HETATM   16  C18 UNL     1      21.709  -0.185  52.451  1.00  0.00     0.020 A 
HETATM   17  C16 UNL     1      20.764   0.638  50.423  1.00  0.00     0.032 A 
HETATM   18  C15 UNL     1      20.881   1.464  49.301  1.00  0.00     0.120 A 
HETATM   19  N4  UNL     1      21.981   2.219  49.121  1.00  0.00    -0.242 NA
ENDBRANCH   7   9
ENDBRANCH   1   7
BRANCH   3  20
HETATM   20  C9  UNL     1      25.707   7.689  50.501  1.00  0.00     0.036 C 
HETATM   21  C10 UNL     1      26.701   7.900  49.658  1.00  0.00    -0.051 C 
HETATM   22  C11 UNL     1      27.024   7.092  48.475  1.00  0.00     0.046 C 
BRANCH  21  23
HETATM   23  C12 UNL     1      27.628   9.045  49.828  1.00  0.00     0.170 C 
BRANCH  23  24
HETATM   24  O1  UNL     1      27.533   9.611  51.076  1.00  0.00    -0.389 OA
HETATM   25  H11 UNL     1      28.255   9.400  51.699  1.00  0.00     0.210 HD
ENDBRANCH  23  24
BRANCH  23  26
HETATM   26  C13 UNL     1      27.376  10.023  48.692  1.00  0.00     0.200 C 
BRANCH  26  27
HETATM   27  O2  UNL     1      26.756  11.161  49.163  1.00  0.00    -0.398 OA
HETATM   28  H14 UNL     1      26.024  11.483  48.603  1.00  0.00     0.209 HD
ENDBRANCH  26  27
ENDBRANCH  23  26
ENDBRANCH  21  23
ENDBRANCH   3  20
TORSDOF 7
ENDMDL
MODEL 9
REMARK VINA RESULT:      -6.8      3.297      4.955
REMARK  7 active torsions:
REMARK  status: ('A' for Active; 'I' for Inactive)
REMARK    1  A    between atoms: C5_6  and  N1_7 
REMARK    2  A    between atoms: N1_7  and  C6_8 
REMARK    3  A    between atoms: C8_10  and  C9_11 
REMARK    4  A    between atoms: C10_12  and  C12_14 
REMARK    5  A    between atoms: C12_14  and  O1_15 
REMARK    6  A    between atoms: C12_14  and  C13_16 
REMARK    7  A    between atoms: C13_16  and  O2_17 
ROOT
HETATM    1  C6  UNL     1      22.950   3.905  51.209  1.00  0.00     0.132 A 
HETATM    2  C7  UNL     1      22.704   3.047  52.266  1.00  0.00     0.082 A 
HETATM    3  C8  UNL     1      21.884   1.957  52.181  1.00  0.00     0.062 A 
HETATM    4  N2  UNL     1      21.295   1.716  51.008  1.00  0.00    -0.242 NA
HETATM    5  C14 UNL     1      21.510   2.526  49.960  1.00  0.00     0.235 A 
HETATM    6  N3  UNL     1      22.316   3.586  50.070  1.00  0.00    -0.224 NA
ENDROOT
BRANCH   1   7
HETATM    7  N1  UNL     1      23.840   5.036  51.324  1.00  0.00    -0.324 N 
HETATM    8  H4  UNL     1      23.546   5.768  51.998  1.00  0.00     0.169 HD
BRANCH   7   9
HETATM    9  C5  UNL     1      24.992   4.939  50.466  1.00  0.00     0.146 A 
HETATM   10  C4  UNL     1      25.469   5.944  49.617  1.00  0.00     0.061 A 
HETATM   11  S1  UNL     1      24.630   7.345  49.622  1.00  0.00    -0.097 SA
HETATM   12  C17 UNL     1      26.589   5.695  48.852  1.00  0.00    -0.013 A 
HETATM   13  C3  UNL     1      25.271   8.470  48.591  1.00  0.00     0.057 A 
HETATM   14  C2  UNL     1      26.447   7.958  47.906  1.00  0.00    -0.051 A 
HETATM   15  C1  UNL     1      27.108   8.692  47.038  1.00  0.00     0.043 C 
HETATM   16  C18 UNL     1      27.055   6.635  48.047  1.00  0.00     0.020 A 
HETATM   17  C16 UNL     1      27.197   4.439  48.964  1.00  0.00     0.032 A 
HETATM   18  C15 UNL     1      26.678   3.470  49.828  1.00  0.00     0.120 A 
HETATM   19  N4  UNL     1      25.584   3.732  50.568  1.00  0.00    -0.242 NA
ENDBRANCH   7   9
ENDBRANCH   1   7
BRANCH   3  20
HETATM   20  C9  UNL     1      21.546   1.025  53.236  1.00  0.00     0.036 C 
HETATM   21  C10 UNL     1      22.261   0.024  53.716  1.00  0.00    -0.051 C 
HETATM   22  C11 UNL     1      23.603  -0.376  53.272  1.00  0.00     0.046 C 
BRANCH  21  23
HETATM   23  C12 UNL     1      21.757  -0.827  54.821  1.00  0.00     0.170 C 
BRANCH  23  24
HETATM   24  O1  UNL     1      22.771  -1.314  55.608  1.00  0.00    -0.389 OA
HETATM   25  H11 UNL     1      22.935  -2.276  55.551  1.00  0.00     0.210 HD
ENDBRANCH  23  24
BRANCH  23  26
HETATM   26  C13 UNL     1      20.880  -1.909  54.214  1.00  0.00     0.200 C 
BRANCH  26  27
HETATM   27  O2  UNL     1      19.566  -1.492  54.158  1.00  0.00    -0.398 OA
HETATM   28  H14 UNL     1      19.188  -1.233  55.020  1.00  0.00     0.209 HD
ENDBRANCH  26  27
ENDBRANCH  23  26
ENDBRANCH  21  23
ENDBRANCH   3  20
TORSDOF 7
ENDMDL
