MODEL 1
REMARK VINA RESULT:     -10.0      0.000      0.000
REMARK  3 active torsions:
REMARK  status: ('A' for Active; 'I' for Inactive)
REMARK    1  A    between atoms: C11_15  and  N3_16 
REMARK    2  A    between atoms: N3_16  and  C12_17 
REMARK    3  A    between atoms: C16_21  and  C17_22 
ROOT
HETATM    1  C1  UNL     1      27.173   0.371  54.799  1.00  0.00     0.180 C 
HETATM    2  N1  UNL     1      26.800   1.064  53.572  1.00  0.00    -0.270 NA
HETATM    3  C2  UNL     1      25.578   0.910  53.178  1.00  0.00     0.193 C 
HETATM    4  O1  UNL     1      24.685   0.123  53.899  1.00  0.00    -0.290 OA
HETATM    5  C3  UNL     1      23.314  -0.030  53.719  1.00  0.00     0.086 A 
HETATM    6  C4  UNL     1      22.916  -1.127  54.482  1.00  0.00     0.041 A 
HETATM    7  C5  UNL     1      21.563  -1.466  54.450  1.00  0.00     0.045 A 
HETATM    8  C6  UNL     1      20.676  -0.713  53.676  1.00  0.00     0.117 A 
HETATM    9  F1  UNL     1      19.368  -1.077  53.674  1.00  0.00    -0.206 F 
HETATM   10  C7  UNL     1      21.127   0.362  52.944  1.00  0.00     0.054 A 
HETATM   11  C8  UNL     1      22.469   0.738  52.944  1.00  0.00    -0.004 A 
HETATM   12  C9  UNL     1      22.681   1.907  52.088  1.00  0.00     0.161 C 
HETATM   13  N2  UNL     1      23.971   2.004  51.478  1.00  0.00    -0.381 N 
HETATM   14  C10 UNL     1      25.260   1.632  51.937  1.00  0.00     0.097 C 
HETATM   15  C11 UNL     1      26.299   1.952  51.196  1.00  0.00     0.122 C 
HETATM   16  H9  UNL     1      23.984   2.428  50.508  1.00  0.00     0.160 HD
ENDROOT
BRANCH  15  17
HETATM   17  N3  UNL     1      26.464   2.628  49.957  1.00  0.00    -0.364 N 
HETATM   18  H11 UNL     1      26.640   1.864  49.283  1.00  0.00     0.165 HD
BRANCH  17  19
HETATM   19  C12 UNL     1      26.427   3.984  49.587  1.00  0.00     0.032 A 
HETATM   20  C13 UNL     1      25.291   4.722  49.914  1.00  0.00     0.029 A 
HETATM   21  C14 UNL     1      25.297   6.038  49.534  1.00  0.00     0.003 A 
HETATM   22  C15 UNL     1      26.330   6.661  48.867  1.00  0.00     0.012 A 
HETATM   23  C16 UNL     1      27.458   5.901  48.551  1.00  0.00    -0.024 A 
HETATM   24  C23 UNL     1      27.490   4.555  48.922  1.00  0.00     0.041 A 
BRANCH  23  25
HETATM   25  C17 UNL     1      28.627   6.415  47.851  1.00  0.00    -0.026 A 
HETATM   26  C18 UNL     1      28.693   7.550  47.042  1.00  0.00     0.012 A 
HETATM   27  C19 UNL     1      29.902   7.881  46.458  1.00  0.00     0.001 A 
HETATM   28  C20 UNL     1      31.033   7.118  46.659  1.00  0.00     0.000 A 
HETATM   29  C21 UNL     1      30.979   5.981  47.466  1.00  0.00     0.001 A 
HETATM   30  C22 UNL     1      29.767   5.632  48.064  1.00  0.00     0.012 A 
ENDBRANCH  23  25
ENDBRANCH  17  19
ENDBRANCH  15  17
TORSDOF 3
ENDMDL
MODEL 2
REMARK VINA RESULT:      -9.9      1.329      2.051
REMARK  3 active torsions:
REMARK  status: ('A' for Active; 'I' for Inactive)
REMARK    1  A    between atoms: C11_15  and  N3_16 
REMARK    2  A    between atoms: N3_16  and  C12_17 
REMARK    3  A    between atoms: C16_21  and  C17_22 
ROOT
HETATM    1  C1  UNL     1      28.271   1.253  53.275  1.00  0.00     0.180 C 
HETATM    2  N1  UNL     1      27.562   2.108  52.330  1.00  0.00    -0.270 NA
HETATM    3  C2  UNL     1      26.285   1.925  52.242  1.00  0.00     0.193 C 
HETATM    4  O1  UNL     1      25.642   0.962  53.013  1.00  0.00    -0.290 OA
HETATM    5  C3  UNL     1      24.278   0.733  53.166  1.00  0.00     0.086 A 
HETATM    6  C4  UNL     1      24.134  -0.503  53.794  1.00  0.00     0.041 A 
HETATM    7  C5  UNL     1      22.833  -0.938  54.050  1.00  0.00     0.045 A 
HETATM    8  C6  UNL     1      21.748  -0.139  53.678  1.00  0.00     0.117 A 
HETATM    9  F1  UNL     1      20.499  -0.600  53.945  1.00  0.00    -0.206 F 
HETATM   10  C7  UNL     1      21.953   1.075  53.061  1.00  0.00     0.054 A 
HETATM   11  C8  UNL     1      23.233   1.550  52.785  1.00  0.00    -0.004 A 
HETATM   12  C9  UNL     1      23.172   2.858  52.130  1.00  0.00     0.161 C 
HETATM   13  N2  UNL     1      24.249   3.156  51.237  1.00  0.00    -0.381 N 
HETATM   14  C10 UNL     1      25.624   2.816  51.275  1.00  0.00     0.097 C 
HETATM   15  C11 UNL     1      26.418   3.335  50.364  1.00  0.00     0.122 C 
HETATM   16  H9  UNL     1      23.990   3.735  50.389  1.00  0.00     0.160 HD
ENDROOT
BRANCH  15  17
HETATM   17  N3  UNL     1      26.226   4.218  49.267  1.00  0.00    -0.364 N 
HETATM   18  H11 UNL     1      25.299   3.949  48.895  1.00  0.00     0.165 HD
BRANCH  17  19
HETATM   19  C12 UNL     1      27.006   5.246  48.709  1.00  0.00     0.032 A 
HETATM   20  C13 UNL     1      26.365   6.425  48.332  1.00  0.00     0.029 A 
HETATM   21  C14 UNL     1      27.163   7.399  47.793  1.00  0.00     0.003 A 
HETATM   22  C15 UNL     1      28.525   7.289  47.605  1.00  0.00     0.012 A 
HETATM   23  C16 UNL     1      29.144   6.098  47.991  1.00  0.00    -0.024 A 
HETATM   24  C23 UNL     1      28.364   5.081  48.545  1.00  0.00     0.041 A 
BRANCH  23  25
HETATM   25  C17 UNL     1      30.569   5.831  47.857  1.00  0.00    -0.026 A 
HETATM   26  C18 UNL     1      31.168   4.647  47.421  1.00  0.00     0.012 A 
HETATM   27  C19 UNL     1      32.547   4.584  47.360  1.00  0.00     0.001 A 
HETATM   28  C20 UNL     1      33.336   5.658  47.717  1.00  0.00     0.000 A 
HETATM   29  C21 UNL     1      32.749   6.847  48.154  1.00  0.00     0.001 A 
HETATM   30  C22 UNL     1      31.357   6.929  48.221  1.00  0.00     0.012 A 
ENDBRANCH  23  25
ENDBRANCH  17  19
ENDBRANCH  15  17
TORSDOF 3
ENDMDL
MODEL 3
REMARK VINA RESULT:      -9.8      2.546      3.964
REMARK  3 active torsions:
REMARK  status: ('A' for Active; 'I' for Inactive)
REMARK    1  A    between atoms: C11_15  and  N3_16 
REMARK    2  A    between atoms: N3_16  and  C12_17 
REMARK    3  A    between atoms: C16_21  and  C17_22 
ROOT
HETATM    1  C1  UNL     1      20.910   1.721  52.527  1.00  0.00     0.180 C 
HETATM    2  N1  UNL     1      21.829   2.818  52.251  1.00  0.00    -0.270 NA
HETATM    3  C2  UNL     1      23.090   2.540  52.326  1.00  0.00     0.193 C 
HETATM    4  O1  UNL     1      23.525   1.259  52.652  1.00  0.00    -0.290 OA
HETATM    5  C3  UNL     1      24.816   0.742  52.626  1.00  0.00     0.086 A 
HETATM    6  C4  UNL     1      24.789  -0.474  53.307  1.00  0.00     0.041 A 
HETATM    7  C5  UNL     1      25.991  -1.175  53.403  1.00  0.00     0.045 A 
HETATM    8  C6  UNL     1      27.151  -0.649  52.829  1.00  0.00     0.117 A 
HETATM    9  F1  UNL     1      28.299  -1.363  52.947  1.00  0.00    -0.206 F 
HETATM   10  C7  UNL     1      27.116   0.559  52.167  1.00  0.00     0.054 A 
HETATM   11  C8  UNL     1      25.939   1.294  52.046  1.00  0.00    -0.004 A 
HETATM   12  C9  UNL     1      26.175   2.532  51.300  1.00  0.00     0.161 C 
HETATM   13  N2  UNL     1      25.327   3.632  51.638  1.00  0.00    -0.381 N 
HETATM   14  C10 UNL     1      23.968   3.685  52.038  1.00  0.00     0.097 C 
HETATM   15  C11 UNL     1      23.405   4.866  52.174  1.00  0.00     0.122 C 
HETATM   16  H9  UNL     1      25.779   4.589  51.586  1.00  0.00     0.160 HD
ENDROOT
BRANCH  15  17
HETATM   17  N3  UNL     1      23.855   6.204  52.008  1.00  0.00    -0.364 N 
HETATM   18  H11 UNL     1      23.842   6.588  52.969  1.00  0.00     0.165 HD
BRANCH  17  19
HETATM   19  C12 UNL     1      24.251   6.956  50.888  1.00  0.00     0.032 A 
HETATM   20  C13 UNL     1      23.335   7.856  50.345  1.00  0.00     0.029 A 
HETATM   21  C14 UNL     1      23.762   8.566  49.254  1.00  0.00     0.003 A 
HETATM   22  C15 UNL     1      25.009   8.450  48.677  1.00  0.00     0.012 A 
HETATM   23  C16 UNL     1      25.909   7.542  49.239  1.00  0.00    -0.024 A 
HETATM   24  C23 UNL     1      25.510   6.799  50.352  1.00  0.00     0.041 A 
BRANCH  23  25
HETATM   25  C17 UNL     1      27.258   7.307  48.744  1.00  0.00    -0.026 A 
HETATM   26  C18 UNL     1      28.228   8.267  48.452  1.00  0.00     0.012 A 
HETATM   27  C19 UNL     1      29.460   7.847  47.988  1.00  0.00     0.001 A 
HETATM   28  C20 UNL     1      29.747   6.510  47.810  1.00  0.00     0.000 A 
HETATM   29  C21 UNL     1      28.785   5.541  48.098  1.00  0.00     0.001 A 
HETATM   30  C22 UNL     1      27.535   5.947  48.569  1.00  0.00     0.012 A 
ENDBRANCH  23  25
ENDBRANCH  17  19
ENDBRANCH  15  17
TORSDOF 3
ENDMDL
MODEL 4
REMARK VINA RESULT:      -9.7      4.736      9.621
REMARK  3 active torsions:
REMARK  status: ('A' for Active; 'I' for Inactive)
REMARK    1  A    between atoms: C11_15  and  N3_16 
REMARK    2  A    between atoms: N3_16  and  C12_17 
REMARK    3  A    between atoms: C16_21  and  C17_22 
ROOT
HETATM    1  C1  UNL     1      31.516   5.277  48.063  1.00  0.00     0.180 C 
HETATM    2  N1  UNL     1      30.062   5.230  48.158  1.00  0.00    -0.270 NA
HETATM    3  C2  UNL     1      29.466   6.358  48.368  1.00  0.00     0.193 C 
HETATM    4  O1  UNL     1      30.189   7.541  48.492  1.00  0.00    -0.290 OA
HETATM    5  C3  UNL     1      29.721   8.849  48.561  1.00  0.00     0.086 A 
HETATM    6  C4  UNL     1      30.786   9.649  48.972  1.00  0.00     0.041 A 
HETATM    7  C5  UNL     1      30.538  11.015  49.109  1.00  0.00     0.045 A 
HETATM    8  C6  UNL     1      29.263  11.521  48.837  1.00  0.00     0.117 A 
HETATM    9  F1  UNL     1      29.065  12.856  48.984  1.00  0.00    -0.206 F 
HETATM   10  C7  UNL     1      28.250  10.680  48.434  1.00  0.00     0.054 A 
HETATM   11  C8  UNL     1      28.450   9.310  48.284  1.00  0.00    -0.004 A 
HETATM   12  C9  UNL     1      27.218   8.649  47.847  1.00  0.00     0.161 C 
HETATM   13  N2  UNL     1      27.060   7.291  48.265  1.00  0.00    -0.381 N 
HETATM   14  C10 UNL     1      28.001   6.248  48.453  1.00  0.00     0.097 C 
HETATM   15  C11 UNL     1      27.549   5.046  48.736  1.00  0.00     0.122 C 
HETATM   16  H9  UNL     1      26.066   6.993  48.476  1.00  0.00     0.160 HD
ENDROOT
BRANCH  15  17
HETATM   17  N3  UNL     1      26.253   4.490  48.914  1.00  0.00    -0.364 N 
HETATM   18  H11 UNL     1      25.688   4.944  48.177  1.00  0.00     0.165 HD
BRANCH  17  19
HETATM   19  C12 UNL     1      25.723   3.552  49.818  1.00  0.00     0.032 A 
HETATM   20  C13 UNL     1      24.337   3.411  49.877  1.00  0.00     0.029 A 
HETATM   21  C14 UNL     1      23.864   2.487  50.772  1.00  0.00     0.003 A 
HETATM   22  C15 UNL     1      24.652   1.709  51.594  1.00  0.00     0.012 A 
HETATM   23  C16 UNL     1      26.037   1.870  51.515  1.00  0.00    -0.024 A 
HETATM   24  C23 UNL     1      26.558   2.802  50.615  1.00  0.00     0.041 A 
BRANCH  23  25
HETATM   25  C17 UNL     1      26.999   1.124  52.315  1.00  0.00    -0.026 A 
HETATM   26  C18 UNL     1      28.038   1.645  53.087  1.00  0.00     0.012 A 
HETATM   27  C19 UNL     1      28.852   0.772  53.783  1.00  0.00     0.001 A 
HETATM   28  C20 UNL     1      28.659  -0.593  53.730  1.00  0.00     0.000 A 
HETATM   29  C21 UNL     1      27.623  -1.126  52.961  1.00  0.00     0.001 A 
HETATM   30  C22 UNL     1      26.790  -0.259  52.252  1.00  0.00     0.012 A 
ENDBRANCH  23  25
ENDBRANCH  17  19
ENDBRANCH  15  17
TORSDOF 3
ENDMDL
MODEL 5
REMARK VINA RESULT:      -9.6      2.208      4.182
REMARK  3 active torsions:
REMARK  status: ('A' for Active; 'I' for Inactive)
REMARK    1  A    between atoms: C11_15  and  N3_16 
REMARK    2  A    between atoms: N3_16  and  C12_17 
REMARK    3  A    between atoms: C16_21  and  C17_22 
ROOT
HETATM    1  C1  UNL     1      22.405   3.291  48.326  1.00  0.00     0.180 C 
HETATM    2  N1  UNL     1      23.700   3.870  48.665  1.00  0.00    -0.270 NA
HETATM    3  C2  UNL     1      24.284   3.389  49.714  1.00  0.00     0.193 C 
HETATM    4  O1  UNL     1      23.694   2.375  50.463  1.00  0.00    -0.290 OA
HETATM    5  C3  UNL     1      24.234   1.636  51.511  1.00  0.00     0.086 A 
HETATM    6  C4  UNL     1      23.182   0.956  52.123  1.00  0.00     0.041 A 
HETATM    7  C5  UNL     1      23.499   0.143  53.212  1.00  0.00     0.045 A 
HETATM    8  C6  UNL     1      24.825   0.041  53.640  1.00  0.00     0.117 A 
HETATM    9  F1  UNL     1      25.090  -0.760  54.703  1.00  0.00    -0.206 F 
HETATM   10  C7  UNL     1      25.823   0.737  52.994  1.00  0.00     0.054 A 
HETATM   11  C8  UNL     1      25.555   1.561  51.903  1.00  0.00    -0.004 A 
HETATM   12  C9  UNL     1      26.784   2.179  51.404  1.00  0.00     0.161 C 
HETATM   13  N2  UNL     1      26.630   3.462  50.792  1.00  0.00    -0.381 N 
HETATM   14  C10 UNL     1      25.585   4.010  50.006  1.00  0.00     0.097 C 
HETATM   15  C11 UNL     1      25.768   5.196  49.468  1.00  0.00     0.122 C 
HETATM   16  H9  UNL     1      27.431   4.138  50.942  1.00  0.00     0.160 HD
ENDROOT
BRANCH  15  17
HETATM   17  N3  UNL     1      26.833   6.138  49.481  1.00  0.00    -0.364 N 
HETATM   18  H11 UNL     1      26.761   6.578  50.414  1.00  0.00     0.165 HD
BRANCH  17  19
HETATM   19  C12 UNL     1      27.816   6.494  48.540  1.00  0.00     0.032 A 
HETATM   20  C13 UNL     1      27.539   7.547  47.670  1.00  0.00     0.029 A 
HETATM   21  C14 UNL     1      28.523   7.859  46.769  1.00  0.00     0.003 A 
HETATM   22  C15 UNL     1      29.739   7.214  46.674  1.00  0.00     0.012 A 
HETATM   23  C16 UNL     1      29.992   6.162  47.558  1.00  0.00    -0.024 A 
HETATM   24  C23 UNL     1      29.013   5.814  48.490  1.00  0.00     0.041 A 
BRANCH  23  25
HETATM   25  C17 UNL     1      31.224   5.386  47.581  1.00  0.00    -0.026 A 
HETATM   26  C18 UNL     1      31.406   4.079  47.128  1.00  0.00     0.012 A 
HETATM   27  C19 UNL     1      32.659   3.507  47.234  1.00  0.00     0.001 A 
HETATM   28  C20 UNL     1      33.725   4.197  47.774  1.00  0.00     0.000 A 
HETATM   29  C21 UNL     1      33.556   5.505  48.231  1.00  0.00     0.001 A 
HETATM   30  C22 UNL     1      32.296   6.099  48.131  1.00  0.00     0.012 A 
ENDBRANCH  23  25
ENDBRANCH  17  19
ENDBRANCH  15  17
TORSDOF 3
ENDMDL
MODEL 6
REMARK VINA RESULT:      -9.4      2.493      4.072
REMARK  3 active torsions:
REMARK  status: ('A' for Active; 'I' for Inactive)
REMARK    1  A    between atoms: C11_15  and  N3_16 
REMARK    2  A    between atoms: N3_16  and  C12_17 
REMARK    3  A    between atoms: C16_21  and  C17_22 
ROOT
HETATM    1  C1  UNL     1      18.226   3.285  51.602  1.00  0.00     0.180 C 
HETATM    2  N1  UNL     1      19.551   3.894  51.600  1.00  0.00    -0.270 NA
HETATM    3  C2  UNL     1      20.487   3.228  52.193  1.00  0.00     0.193 C 
HETATM    4  O1  UNL     1      20.225   2.000  52.793  1.00  0.00    -0.290 OA
HETATM    5  C3  UNL     1      21.121   1.081  53.331  1.00  0.00     0.086 A 
HETATM    6  C4  UNL     1      20.377   0.159  54.066  1.00  0.00     0.041 A 
HETATM    7  C5  UNL     1      21.083  -0.865  54.699  1.00  0.00     0.045 A 
HETATM    8  C6  UNL     1      22.473  -0.929  54.578  1.00  0.00     0.117 A 
HETATM    9  F1  UNL     1      23.120  -1.941  55.211  1.00  0.00    -0.206 F 
HETATM   10  C7  UNL     1      23.154   0.011  53.837  1.00  0.00     0.054 A 
HETATM   11  C8  UNL     1      22.493   1.051  53.187  1.00  0.00    -0.004 A 
HETATM   12  C9  UNL     1      23.444   1.905  52.472  1.00  0.00     0.161 C 
HETATM   13  N2  UNL     1      23.065   3.277  52.335  1.00  0.00    -0.381 N 
HETATM   14  C10 UNL     1      21.799   3.891  52.159  1.00  0.00     0.097 C 
HETATM   15  C11 UNL     1      21.763   5.188  51.941  1.00  0.00     0.122 C 
HETATM   16  H9  UNL     1      23.861   3.975  52.368  1.00  0.00     0.160 HD
ENDROOT
BRANCH  15  17
HETATM   17  N3  UNL     1      22.750   6.204  51.831  1.00  0.00    -0.364 N 
HETATM   18  H11 UNL     1      23.009   6.402  52.812  1.00  0.00     0.165 HD
BRANCH  17  19
HETATM   19  C12 UNL     1      23.329   6.870  50.736  1.00  0.00     0.032 A 
HETATM   20  C13 UNL     1      22.597   7.886  50.126  1.00  0.00     0.029 A 
HETATM   21  C14 UNL     1      23.198   8.508  49.063  1.00  0.00     0.003 A 
HETATM   22  C15 UNL     1      24.450   8.198  48.573  1.00  0.00     0.012 A 
HETATM   23  C16 UNL     1      25.164   7.176  49.203  1.00  0.00    -0.024 A 
HETATM   24  C23 UNL     1      24.584   6.518  50.290  1.00  0.00     0.041 A 
BRANCH  23  25
HETATM   25  C17 UNL     1      26.493   6.735  48.803  1.00  0.00    -0.026 A 
HETATM   26  C18 UNL     1      27.541   7.531  48.339  1.00  0.00     0.012 A 
HETATM   27  C19 UNL     1      28.738   6.926  48.006  1.00  0.00     0.001 A 
HETATM   28  C20 UNL     1      28.916   5.563  48.124  1.00  0.00     0.000 A 
HETATM   29  C21 UNL     1      27.874   4.756  48.586  1.00  0.00     0.001 A 
HETATM   30  C22 UNL     1      26.658   5.351  48.928  1.00  0.00     0.012 A 
ENDBRANCH  23  25
ENDBRANCH  17  19
ENDBRANCH  15  17
TORSDOF 3
ENDMDL
MODEL 7
REMARK VINA RESULT:      -9.2      5.077     10.564
REMARK  3 active torsions:
REMARK  status: ('A' for Active; 'I' for Inactive)
REMARK    1  A    between atoms: C11_15  and  N3_16 
REMARK    2  A    between atoms: N3_16  and  C12_17 
REMARK    3  A    between atoms: C16_21  and  C17_22 
ROOT
HETATM    1  C1  UNL     1      28.908  10.383  48.043  1.00  0.00     0.180 C 
HETATM    2  N1  UNL     1      28.733   8.960  48.305  1.00  0.00    -0.270 NA
HETATM    3  C2  UNL     1      29.812   8.248  48.337  1.00  0.00     0.193 C 
HETATM    4  O1  UNL     1      31.061   8.827  48.130  1.00  0.00    -0.290 OA
HETATM    5  C3  UNL     1      32.322   8.260  48.279  1.00  0.00     0.086 A 
HETATM    6  C4  UNL     1      33.238   9.125  47.683  1.00  0.00     0.041 A 
HETATM    7  C5  UNL     1      34.582   8.749  47.717  1.00  0.00     0.045 A 
HETATM    8  C6  UNL     1      34.953   7.550  48.332  1.00  0.00     0.117 A 
HETATM    9  F1  UNL     1      36.270   7.223  48.343  1.00  0.00    -0.206 F 
HETATM   10  C7  UNL     1      34.002   6.736  48.906  1.00  0.00     0.054 A 
HETATM   11  C8  UNL     1      32.649   7.070  48.896  1.00  0.00    -0.004 A 
HETATM   12  C9  UNL     1      31.855   6.040  49.570  1.00  0.00     0.161 C 
HETATM   13  N2  UNL     1      30.514   5.883  49.100  1.00  0.00    -0.381 N 
HETATM   14  C10 UNL     1      29.574   6.822  48.606  1.00  0.00     0.097 C 
HETATM   15  C11 UNL     1      28.353   6.403  48.351  1.00  0.00     0.122 C 
HETATM   16  H9  UNL     1      30.139   4.893  49.118  1.00  0.00     0.160 HD
ENDROOT
BRANCH  15  17
HETATM   17  N3  UNL     1      27.692   5.149  48.455  1.00  0.00    -0.364 N 
HETATM   18  H11 UNL     1      28.279   4.515  47.888  1.00  0.00     0.165 HD
BRANCH  17  19
HETATM   19  C12 UNL     1      26.528   4.726  49.122  1.00  0.00     0.032 A 
HETATM   20  C13 UNL     1      25.367   5.477  48.953  1.00  0.00     0.029 A 
HETATM   21  C14 UNL     1      24.257   5.030  49.621  1.00  0.00     0.003 A 
HETATM   22  C15 UNL     1      24.220   3.912  50.428  1.00  0.00     0.012 A 
HETATM   23  C16 UNL     1      25.397   3.176  50.581  1.00  0.00    -0.024 A 
HETATM   24  C23 UNL     1      26.550   3.601  49.916  1.00  0.00     0.041 A 
BRANCH  23  25
HETATM   25  C17 UNL     1      25.517   1.976  51.398  1.00  0.00    -0.026 A 
HETATM   26  C18 UNL     1      26.673   1.232  51.638  1.00  0.00     0.012 A 
HETATM   27  C19 UNL     1      26.587   0.115  52.447  1.00  0.00     0.001 A 
HETATM   28  C20 UNL     1      25.393  -0.275  53.017  1.00  0.00     0.000 A 
HETATM   29  C21 UNL     1      24.230   0.462  52.783  1.00  0.00     0.001 A 
HETATM   30  C22 UNL     1      24.298   1.594  51.969  1.00  0.00     0.012 A 
ENDBRANCH  23  25
ENDBRANCH  17  19
ENDBRANCH  15  17
TORSDOF 3
ENDMDL
MODEL 8
REMARK VINA RESULT:      -9.2      1.864      3.200
REMARK  3 active torsions:
REMARK  status: ('A' for Active; 'I' for Inactive)
REMARK    1  A    between atoms: C11_15  and  N3_16 
REMARK    2  A    between atoms: N3_16  and  C12_17 
REMARK    3  A    between atoms: C16_21  and  C17_22 
ROOT
HETATM    1  C1  UNL     1      19.751   3.861  50.810  1.00  0.00     0.180 C 
HETATM    2  N1  UNL     1      21.203   3.967  50.721  1.00  0.00    -0.270 NA
HETATM    3  C2  UNL     1      21.882   3.138  51.444  1.00  0.00     0.193 C 
HETATM    4  O1  UNL     1      21.245   2.203  52.255  1.00  0.00    -0.290 OA
HETATM    5  C3  UNL     1      21.797   1.145  52.970  1.00  0.00     0.086 A 
HETATM    6  C4  UNL     1      20.819   0.683  53.849  1.00  0.00     0.041 A 
HETATM    7  C5  UNL     1      21.161  -0.389  54.673  1.00  0.00     0.045 A 
HETATM    8  C6  UNL     1      22.439  -0.948  54.592  1.00  0.00     0.117 A 
HETATM    9  F1  UNL     1      22.730  -1.989  55.413  1.00  0.00    -0.206 F 
HETATM   10  C7  UNL     1      23.364  -0.449  53.703  1.00  0.00     0.054 A 
HETATM   11  C8  UNL     1      23.068   0.621  52.860  1.00  0.00    -0.004 A 
HETATM   12  C9  UNL     1      24.220   0.952  52.018  1.00  0.00     0.161 C 
HETATM   13  N2  UNL     1      24.325   2.322  51.623  1.00  0.00    -0.381 N 
HETATM   14  C10 UNL     1      23.339   3.292  51.313  1.00  0.00     0.097 C 
HETATM   15  C11 UNL     1      23.736   4.460  50.859  1.00  0.00     0.122 C 
HETATM   16  H9  UNL     1      25.313   2.698  51.542  1.00  0.00     0.160 HD
ENDROOT
BRANCH  15  17
HETATM   17  N3  UNL     1      25.005   5.038  50.582  1.00  0.00    -0.364 N 
HETATM   18  H11 UNL     1      25.604   4.695  51.352  1.00  0.00     0.165 HD
BRANCH  17  19
HETATM   19  C12 UNL     1      25.478   5.881  49.560  1.00  0.00     0.032 A 
HETATM   20  C13 UNL     1      24.576   6.767  48.973  1.00  0.00     0.029 A 
HETATM   21  C14 UNL     1      25.078   7.569  47.981  1.00  0.00     0.003 A 
HETATM   22  C15 UNL     1      26.385   7.553  47.541  1.00  0.00     0.012 A 
HETATM   23  C16 UNL     1      27.269   6.656  48.146  1.00  0.00    -0.024 A 
HETATM   24  C23 UNL     1      26.794   5.822  49.160  1.00  0.00     0.041 A 
BRANCH  23  25
HETATM   25  C17 UNL     1      28.675   6.522  47.791  1.00  0.00    -0.026 A 
HETATM   26  C18 UNL     1      29.538   5.484  48.145  1.00  0.00     0.012 A 
HETATM   27  C19 UNL     1      30.849   5.533  47.710  1.00  0.00     0.001 A 
HETATM   28  C20 UNL     1      31.316   6.577  46.940  1.00  0.00     0.000 A 
HETATM   29  C21 UNL     1      30.462   7.621  46.579  1.00  0.00     0.001 A 
HETATM   30  C22 UNL     1      29.134   7.588  47.009  1.00  0.00     0.012 A 
ENDBRANCH  23  25
ENDBRANCH  17  19
ENDBRANCH  15  17
TORSDOF 3
ENDMDL
MODEL 9
REMARK VINA RESULT:      -9.1      3.843      9.736
REMARK  3 active torsions:
REMARK  status: ('A' for Active; 'I' for Inactive)
REMARK    1  A    between atoms: C11_15  and  N3_16 
REMARK    2  A    between atoms: N3_16  and  C12_17 
REMARK    3  A    between atoms: C16_21  and  C17_22 
ROOT
HETATM    1  C1  UNL     1      22.703   6.882  50.405  1.00  0.00     0.180 C 
HETATM    2  N1  UNL     1      23.822   5.949  50.467  1.00  0.00    -0.270 NA
HETATM    3  C2  UNL     1      24.763   6.127  49.598  1.00  0.00     0.193 C 
HETATM    4  O1  UNL     1      24.695   7.158  48.666  1.00  0.00    -0.290 OA
HETATM    5  C3  UNL     1      25.668   7.594  47.772  1.00  0.00     0.086 A 
HETATM    6  C4  UNL     1      25.042   8.443  46.860  1.00  0.00     0.041 A 
HETATM    7  C5  UNL     1      25.840   9.003  45.863  1.00  0.00     0.045 A 
HETATM    8  C6  UNL     1      27.204   8.702  45.813  1.00  0.00     0.117 A 
HETATM    9  F1  UNL     1      27.944   9.267  44.826  1.00  0.00    -0.206 F 
HETATM   10  C7  UNL     1      27.767   7.856  46.743  1.00  0.00     0.054 A 
HETATM   11  C8  UNL     1      27.009   7.274  47.757  1.00  0.00    -0.004 A 
HETATM   12  C9  UNL     1      27.846   6.423  48.607  1.00  0.00     0.161 C 
HETATM   13  N2  UNL     1      27.184   5.312  49.216  1.00  0.00    -0.381 N 
HETATM   14  C10 UNL     1      25.863   5.157  49.709  1.00  0.00     0.097 C 
HETATM   15  C11 UNL     1      25.560   4.041  50.334  1.00  0.00     0.122 C 
HETATM   16  H9  UNL     1      27.771   4.437  49.327  1.00  0.00     0.160 HD
ENDROOT
BRANCH  15  17
HETATM   17  N3  UNL     1      26.281   2.860  50.664  1.00  0.00    -0.364 N 
HETATM   18  H11 UNL     1      27.156   2.948  50.120  1.00  0.00     0.165 HD
BRANCH  17  19
HETATM   19  C12 UNL     1      26.004   1.764  51.499  1.00  0.00     0.032 A 
HETATM   20  C13 UNL     1      27.057   0.916  51.839  1.00  0.00     0.029 A 
HETATM   21  C14 UNL     1      26.742  -0.140  52.653  1.00  0.00     0.003 A 
HETATM   22  C15 UNL     1      25.481  -0.407  53.145  1.00  0.00     0.012 A 
HETATM   23  C16 UNL     1      24.443   0.457  52.791  1.00  0.00    -0.024 A 
HETATM   24  C23 UNL     1      24.725   1.545  51.961  1.00  0.00     0.041 A 
BRANCH  23  25
HETATM   25  C17 UNL     1      23.063   0.307  53.229  1.00  0.00    -0.026 A 
HETATM   26  C18 UNL     1      21.991   1.154  52.942  1.00  0.00     0.012 A 
HETATM   27  C19 UNL     1      20.744   0.843  53.452  1.00  0.00     0.001 A 
HETATM   28  C20 UNL     1      20.540  -0.277  54.229  1.00  0.00     0.000 A 
HETATM   29  C21 UNL     1      21.605  -1.132  54.523  1.00  0.00     0.001 A 
HETATM   30  C22 UNL     1      22.871  -0.834  54.016  1.00  0.00     0.012 A 
ENDBRANCH  23  25
ENDBRANCH  17  19
ENDBRANCH  15  17
TORSDOF 3
ENDMDL
