MODEL 1
REMARK VINA RESULT:      -7.8      0.000      0.000
REMARK  3 active torsions:
REMARK  status: ('A' for Active; 'I' for Inactive)
REMARK    1  A    between atoms: O1_2  and  C2_3 
REMARK    2  A    between atoms: C15_19  and  N4_20 
REMARK    3  A    between atoms: N4_20  and  C16_21 
ROOT
HETATM    1  C2  UNL     1      25.214   1.818  52.052  1.00  0.00     0.093 C 
HETATM    2  C3  UNL     1      26.200   1.289  52.800  1.00  0.00     0.047 C 
HETATM    3  C4  UNL     1      26.497   0.042  53.572  1.00  0.00     0.073 A 
HETATM    4  C5  UNL     1      27.676   0.379  54.414  1.00  0.00     0.008 A 
HETATM    5  C6  UNL     1      28.885  -0.156  54.418  1.00  0.00    -0.002 A 
HETATM    6  C7  UNL     1      29.189  -1.240  53.492  1.00  0.00    -0.004 A 
HETATM    7  C8  UNL     1      28.183  -1.592  52.709  1.00  0.00    -0.024 A 
HETATM    8  C9  UNL     1      26.806  -1.084  52.606  1.00  0.00     0.067 A 
HETATM    9  N1  UNL     1      25.444  -0.310  54.508  1.00  0.00    -0.358 N 
HETATM   10  C10 UNL     1      24.056  -0.610  54.357  1.00  0.00     0.137 A 
HETATM   11  N2  UNL     1      23.728  -1.388  55.429  1.00  0.00    -0.224 NA
HETATM   12  C11 UNL     1      22.472  -1.844  55.582  1.00  0.00     0.234 A 
HETATM   13  N3  UNL     1      21.509  -1.545  54.683  1.00  0.00    -0.253 NA
HETATM   14  C12 UNL     1      21.743  -0.785  53.597  1.00  0.00     0.133 A 
HETATM   15  C13 UNL     1      23.044  -0.329  53.462  1.00  0.00     0.029 A 
HETATM   16  C14 UNL     1      23.056   0.459  52.233  1.00  0.00     0.048 C 
HETATM   17  C15 UNL     1      23.906   1.309  51.665  1.00  0.00     0.063 C 
HETATM   18  H11 UNL     1      25.710  -0.371  55.538  1.00  0.00     0.162 HD
ENDROOT
BRANCH   1  19
HETATM   19  O1  UNL     1      25.454   3.101  51.525  1.00  0.00    -0.354 OA
HETATM   20  C1  UNL     1      26.479   3.300  50.589  1.00  0.00     0.210 C 
ENDBRANCH   1  19
BRANCH  17  21
HETATM   21  N4  UNL     1      23.470   1.860  50.404  1.00  0.00    -0.375 N 
HETATM   22  H15 UNL     1      24.344   1.950  49.818  1.00  0.00     0.160 HD
BRANCH  21  23
HETATM   23  C16 UNL     1      22.185   2.256  49.891  1.00  0.00     0.235 C 
HETATM   24 CL1  UNL     1      21.500   0.922  48.948  1.00  0.00    -0.109 Cl
ENDBRANCH  21  23
ENDBRANCH  17  21
TORSDOF 3
ENDMDL
MODEL 2
REMARK VINA RESULT:      -7.4      2.828      5.548
REMARK  3 active torsions:
REMARK  status: ('A' for Active; 'I' for Inactive)
REMARK    1  A    between atoms: O1_2  and  C2_3 
REMARK    2  A    between atoms: C15_19  and  N4_20 
REMARK    3  A    between atoms: N4_20  and  C16_21 
ROOT
HETATM    1  C2  UNL     1      25.987   2.903  51.047  1.00  0.00     0.093 C 
HETATM    2  C3  UNL     1      24.753   3.241  50.631  1.00  0.00     0.047 C 
HETATM    3  C4  UNL     1      23.333   3.150  51.093  1.00  0.00     0.073 A 
HETATM    4  C5  UNL     1      22.513   3.448  49.888  1.00  0.00     0.008 A 
HETATM    5  C6  UNL     1      21.657   4.432  49.678  1.00  0.00    -0.002 A 
HETATM    6  C7  UNL     1      21.424   5.413  50.731  1.00  0.00    -0.004 A 
HETATM    7  C8  UNL     1      22.123   5.210  51.835  1.00  0.00    -0.024 A 
HETATM    8  C9  UNL     1      23.096   4.166  52.192  1.00  0.00     0.067 A 
HETATM    9  N1  UNL     1      22.952   1.807  51.495  1.00  0.00    -0.358 N 
HETATM   10  C10 UNL     1      23.443   0.903  52.486  1.00  0.00     0.137 A 
HETATM   11  N2  UNL     1      22.395   0.080  52.784  1.00  0.00    -0.224 NA
HETATM   12  C11 UNL     1      22.534  -0.898  53.697  1.00  0.00     0.234 A 
HETATM   13  N3  UNL     1      23.707  -1.088  54.339  1.00  0.00    -0.253 NA
HETATM   14  C12 UNL     1      24.792  -0.325  54.107  1.00  0.00     0.133 A 
HETATM   15  C13 UNL     1      24.622   0.675  53.163  1.00  0.00     0.029 A 
HETATM   16  C14 UNL     1      25.910   1.359  53.084  1.00  0.00     0.048 C 
HETATM   17  C15 UNL     1      26.460   2.241  52.254  1.00  0.00     0.063 C 
HETATM   18  H11 UNL     1      22.142   1.355  50.972  1.00  0.00     0.162 HD
ENDROOT
BRANCH   1  19
HETATM   19  O1  UNL     1      27.047   3.235  50.183  1.00  0.00    -0.354 OA
HETATM   20  C1  UNL     1      26.890   4.255  49.233  1.00  0.00     0.210 C 
ENDBRANCH   1  19
BRANCH  17  21
HETATM   21  N4  UNL     1      27.804   2.642  52.592  1.00  0.00    -0.375 N 
HETATM   22  H15 UNL     1      28.133   3.239  51.785  1.00  0.00     0.160 HD
BRANCH  21  23
HETATM   23  C16 UNL     1      28.658   2.383  53.723  1.00  0.00     0.235 C 
HETATM   24 CL1  UNL     1      29.332   0.752  53.580  1.00  0.00    -0.109 Cl
ENDBRANCH  21  23
ENDBRANCH  17  21
TORSDOF 3
ENDMDL
MODEL 3
REMARK VINA RESULT:      -7.4      2.700      5.155
REMARK  3 active torsions:
REMARK  status: ('A' for Active; 'I' for Inactive)
REMARK    1  A    between atoms: O1_2  and  C2_3 
REMARK    2  A    between atoms: C15_19  and  N4_20 
REMARK    3  A    between atoms: N4_20  and  C16_21 
ROOT
HETATM    1  C2  UNL     1      23.420   1.612  52.004  1.00  0.00     0.093 C 
HETATM    2  C3  UNL     1      24.588   0.958  52.141  1.00  0.00     0.047 C 
HETATM    3  C4  UNL     1      26.058   1.238  52.106  1.00  0.00     0.073 A 
HETATM    4  C5  UNL     1      26.704  -0.099  52.003  1.00  0.00     0.008 A 
HETATM    5  C6  UNL     1      27.537  -0.694  52.838  1.00  0.00    -0.002 A 
HETATM    6  C7  UNL     1      27.931  -0.010  54.064  1.00  0.00    -0.004 A 
HETATM    7  C8  UNL     1      27.392   1.188  54.221  1.00  0.00    -0.024 A 
HETATM    8  C9  UNL     1      26.463   1.955  53.378  1.00  0.00     0.067 A 
HETATM    9  N1  UNL     1      26.470   1.957  50.913  1.00  0.00    -0.358 N 
HETATM   10  C10 UNL     1      26.111   3.222  50.357  1.00  0.00     0.137 A 
HETATM   11  N2  UNL     1      27.177   3.605  49.595  1.00  0.00    -0.224 NA
HETATM   12  C11 UNL     1      27.153   4.772  48.927  1.00  0.00     0.234 A 
HETATM   13  N3  UNL     1      26.079   5.589  48.992  1.00  0.00    -0.253 NA
HETATM   14  C12 UNL     1      24.985   5.291  49.717  1.00  0.00     0.133 A 
HETATM   15  C13 UNL     1      25.035   4.084  50.396  1.00  0.00     0.029 A 
HETATM   16  C14 UNL     1      23.760   3.979  51.101  1.00  0.00     0.048 C 
HETATM   17  C15 UNL     1      23.112   3.010  51.739  1.00  0.00     0.063 C 
HETATM   18  H11 UNL     1      27.191   1.485  50.287  1.00  0.00     0.162 HD
ENDROOT
BRANCH   1  19
HETATM   19  O1  UNL     1      22.254   0.835  52.136  1.00  0.00    -0.354 OA
HETATM   20  C1  UNL     1      22.198  -0.201  53.080  1.00  0.00     0.210 C 
ENDBRANCH   1  19
BRANCH  17  21
HETATM   21  N4  UNL     1      21.836   3.390  52.295  1.00  0.00    -0.375 N 
HETATM   22  H15 UNL     1      21.896   3.163  53.324  1.00  0.00     0.160 HD
BRANCH  21  23
HETATM   23  C16 UNL     1      20.642   3.962  51.727  1.00  0.00     0.235 C 
HETATM   24 CL1  UNL     1      19.309   2.807  51.896  1.00  0.00    -0.109 Cl
ENDBRANCH  21  23
ENDBRANCH  17  21
TORSDOF 3
ENDMDL
MODEL 4
REMARK VINA RESULT:      -7.4      2.538      5.154
REMARK  3 active torsions:
REMARK  status: ('A' for Active; 'I' for Inactive)
REMARK    1  A    between atoms: O1_2  and  C2_3 
REMARK    2  A    between atoms: C15_19  and  N4_20 
REMARK    3  A    between atoms: N4_20  and  C16_21 
ROOT
HETATM    1  C2  UNL     1      22.145   1.783  52.686  1.00  0.00     0.093 C 
HETATM    2  C3  UNL     1      22.800   2.853  52.203  1.00  0.00     0.047 C 
HETATM    3  C4  UNL     1      24.184   3.249  51.790  1.00  0.00     0.073 A 
HETATM    4  C5  UNL     1      24.150   4.733  51.695  1.00  0.00     0.008 A 
HETATM    5  C6  UNL     1      24.360   5.511  50.647  1.00  0.00    -0.002 A 
HETATM    6  C7  UNL     1      24.675   4.905  49.359  1.00  0.00    -0.004 A 
HETATM    7  C8  UNL     1      24.721   3.584  49.371  1.00  0.00    -0.024 A 
HETATM    8  C9  UNL     1      24.510   2.612  50.455  1.00  0.00     0.067 A 
HETATM    9  N1  UNL     1      25.184   2.951  52.801  1.00  0.00    -0.358 N 
HETATM   10  C10 UNL     1      25.606   1.745  53.439  1.00  0.00     0.137 A 
HETATM   11  N2  UNL     1      26.891   1.971  53.841  1.00  0.00    -0.224 NA
HETATM   12  C11 UNL     1      27.583   1.014  54.484  1.00  0.00     0.234 A 
HETATM   13  N3  UNL     1      27.027  -0.189  54.746  1.00  0.00    -0.253 NA
HETATM   14  C12 UNL     1      25.767  -0.498  54.386  1.00  0.00     0.133 A 
HETATM   15  C13 UNL     1      25.076   0.505  53.725  1.00  0.00     0.029 A 
HETATM   16  C14 UNL     1      23.756  -0.053  53.441  1.00  0.00     0.048 C 
HETATM   17  C15 UNL     1      22.592   0.440  53.030  1.00  0.00     0.063 C 
HETATM   18  H11 UNL     1      25.750   3.770  53.180  1.00  0.00     0.162 HD
ENDROOT
BRANCH   1  19
HETATM   19  O1  UNL     1      20.766   1.949  52.915  1.00  0.00    -0.354 OA
HETATM   20  C1  UNL     1      20.066   2.990  52.286  1.00  0.00     0.210 C 
ENDBRANCH   1  19
BRANCH  17  21
HETATM   21  N4  UNL     1      21.533  -0.529  52.887  1.00  0.00    -0.375 N 
HETATM   22  H15 UNL     1      21.415  -0.667  51.847  1.00  0.00     0.160 HD
BRANCH  21  23
HETATM   23  C16 UNL     1      20.715  -1.245  53.831  1.00  0.00     0.235 C 
HETATM   24 CL1  UNL     1      19.009  -1.011  53.418  1.00  0.00    -0.109 Cl
ENDBRANCH  21  23
ENDBRANCH  17  21
TORSDOF 3
ENDMDL
MODEL 5
REMARK VINA RESULT:      -7.2      2.880      6.577
REMARK  3 active torsions:
REMARK  status: ('A' for Active; 'I' for Inactive)
REMARK    1  A    between atoms: O1_2  and  C2_3 
REMARK    2  A    between atoms: C15_19  and  N4_20 
REMARK    3  A    between atoms: N4_20  and  C16_21 
ROOT
HETATM    1  C2  UNL     1      24.059   0.193  53.301  1.00  0.00     0.093 C 
HETATM    2  C3  UNL     1      22.846   0.722  53.058  1.00  0.00     0.047 C 
HETATM    3  C4  UNL     1      22.161   1.572  52.034  1.00  0.00     0.073 A 
HETATM    4  C5  UNL     1      20.890   2.003  52.675  1.00  0.00     0.008 A 
HETATM    5  C6  UNL     1      19.643   1.767  52.308  1.00  0.00    -0.002 A 
HETATM    6  C7  UNL     1      19.389   0.975  51.110  1.00  0.00    -0.004 A 
HETATM    7  C8  UNL     1      20.478   0.557  50.487  1.00  0.00    -0.024 A 
HETATM    8  C9  UNL     1      21.905   0.749  50.788  1.00  0.00     0.067 A 
HETATM    9  N1  UNL     1      22.881   2.801  51.743  1.00  0.00    -0.358 N 
HETATM   10  C10 UNL     1      24.191   3.076  51.248  1.00  0.00     0.137 A 
HETATM   11  N2  UNL     1      24.112   4.306  50.661  1.00  0.00    -0.224 NA
HETATM   12  C11 UNL     1      25.196   4.861  50.090  1.00  0.00     0.234 A 
HETATM   13  N3  UNL     1      26.384   4.218  50.082  1.00  0.00    -0.253 NA
HETATM   14  C12 UNL     1      26.553   3.003  50.638  1.00  0.00     0.133 A 
HETATM   15  C13 UNL     1      25.422   2.454  51.219  1.00  0.00     0.029 A 
HETATM   16  C14 UNL     1      25.843   1.158  51.745  1.00  0.00     0.048 C 
HETATM   17  C15 UNL     1      25.314   0.257  52.567  1.00  0.00     0.063 C 
HETATM   18  H11 UNL     1      22.368   3.717  51.920  1.00  0.00     0.162 HD
ENDROOT
BRANCH   1  19
HETATM   19  O1  UNL     1      24.179  -0.573  54.475  1.00  0.00    -0.354 OA
HETATM   20  C1  UNL     1      23.044  -1.167  55.050  1.00  0.00     0.210 C 
ENDBRANCH   1  19
BRANCH  17  21
HETATM   21  N4  UNL     1      26.130  -0.911  52.800  1.00  0.00    -0.375 N 
HETATM   22  H15 UNL     1      25.461  -1.729  52.791  1.00  0.00     0.160 HD
BRANCH  21  23
HETATM   23  C16 UNL     1      27.540  -1.104  53.016  1.00  0.00     0.235 C 
HETATM   24 CL1  UNL     1      28.061  -0.101  54.380  1.00  0.00    -0.109 Cl
ENDBRANCH  21  23
ENDBRANCH  17  21
TORSDOF 3
ENDMDL
MODEL 6
REMARK VINA RESULT:      -7.0      4.490      7.387
REMARK  3 active torsions:
REMARK  status: ('A' for Active; 'I' for Inactive)
REMARK    1  A    between atoms: O1_2  and  C2_3 
REMARK    2  A    between atoms: C15_19  and  N4_20 
REMARK    3  A    between atoms: N4_20  and  C16_21 
ROOT
HETATM    1  C2  UNL     1      25.776   3.632  50.139  1.00  0.00     0.093 C 
HETATM    2  C3  UNL     1      24.623   2.958  50.304  1.00  0.00     0.047 C 
HETATM    3  C4  UNL     1      23.162   3.118  50.017  1.00  0.00     0.073 A 
HETATM    4  C5  UNL     1      22.491   2.071  50.833  1.00  0.00     0.008 A 
HETATM    5  C6  UNL     1      21.751   1.048  50.441  1.00  0.00    -0.002 A 
HETATM    6  C7  UNL     1      21.510   0.844  49.018  1.00  0.00    -0.004 A 
HETATM    7  C8  UNL     1      22.080   1.741  48.231  1.00  0.00    -0.024 A 
HETATM    8  C9  UNL     1      22.917   2.912  48.536  1.00  0.00     0.067 A 
HETATM    9  N1  UNL     1      22.625   4.380  50.494  1.00  0.00    -0.358 N 
HETATM   10  C10 UNL     1      22.935   5.746  50.216  1.00  0.00     0.137 A 
HETATM   11  N2  UNL     1      21.794   6.445  50.485  1.00  0.00    -0.224 NA
HETATM   12  C11 UNL     1      21.757   7.779  50.321  1.00  0.00     0.234 A 
HETATM   13  N3  UNL     1      22.842   8.458  49.889  1.00  0.00    -0.253 NA
HETATM   14  C12 UNL     1      24.008   7.850  49.601  1.00  0.00     0.133 A 
HETATM   15  C13 UNL     1      24.020   6.476  49.777  1.00  0.00     0.029 A 
HETATM   16  C14 UNL     1      25.366   6.047  49.408  1.00  0.00     0.048 C 
HETATM   17  C15 UNL     1      26.071   4.928  49.545  1.00  0.00     0.063 C 
HETATM   18  H11 UNL     1      21.830   4.333  51.201  1.00  0.00     0.162 HD
ENDROOT
BRANCH   1  19
HETATM   19  O1  UNL     1      26.938   2.999  50.617  1.00  0.00    -0.354 OA
HETATM   20  C1  UNL     1      26.908   2.281  51.823  1.00  0.00     0.210 C 
ENDBRANCH   1  19
BRANCH  17  21
HETATM   21  N4  UNL     1      27.407   4.976  49.005  1.00  0.00    -0.375 N 
HETATM   22  H15 UNL     1      27.849   4.050  49.258  1.00  0.00     0.160 HD
BRANCH  21  23
HETATM   23  C16 UNL     1      28.139   5.972  48.265  1.00  0.00     0.235 C 
HETATM   24 CL1  UNL     1      29.814   5.432  48.064  1.00  0.00    -0.109 Cl
ENDBRANCH  21  23
ENDBRANCH  17  21
TORSDOF 3
ENDMDL
MODEL 7
REMARK VINA RESULT:      -6.9      2.644      5.916
REMARK  3 active torsions:
REMARK  status: ('A' for Active; 'I' for Inactive)
REMARK    1  A    between atoms: O1_2  and  C2_3 
REMARK    2  A    between atoms: C15_19  and  N4_20 
REMARK    3  A    between atoms: N4_20  and  C16_21 
ROOT
HETATM    1  C2  UNL     1      25.590   2.067  51.598  1.00  0.00     0.093 C 
HETATM    2  C3  UNL     1      25.828   3.116  50.791  1.00  0.00     0.047 C 
HETATM    3  C4  UNL     1      25.071   4.112  49.968  1.00  0.00     0.073 A 
HETATM    4  C5  UNL     1      26.090   4.738  49.084  1.00  0.00     0.008 A 
HETATM    5  C6  UNL     1      26.474   6.001  49.008  1.00  0.00    -0.002 A 
HETATM    6  C7  UNL     1      25.857   6.988  49.886  1.00  0.00    -0.004 A 
HETATM    7  C8  UNL     1      24.938   6.499  50.703  1.00  0.00    -0.024 A 
HETATM    8  C9  UNL     1      24.426   5.133  50.884  1.00  0.00     0.067 A 
HETATM    9  N1  UNL     1      24.111   3.494  49.070  1.00  0.00    -0.358 N 
HETATM   10  C10 UNL     1      22.980   2.647  49.276  1.00  0.00     0.137 A 
HETATM   11  N2  UNL     1      22.169   2.848  48.196  1.00  0.00    -0.224 NA
HETATM   12  C11 UNL     1      21.003   2.186  48.086  1.00  0.00     0.234 A 
HETATM   13  N3  UNL     1      20.606   1.312  49.037  1.00  0.00    -0.253 NA
HETATM   14  C12 UNL     1      21.342   1.053  50.134  1.00  0.00     0.133 A 
HETATM   15  C13 UNL     1      22.538   1.747  50.223  1.00  0.00     0.029 A 
HETATM   16  C14 UNL     1      23.151   1.310  51.475  1.00  0.00     0.048 C 
HETATM   17  C15 UNL     1      24.354   1.430  52.029  1.00  0.00     0.063 C 
HETATM   18  H11 UNL     1      24.232   3.679  48.028  1.00  0.00     0.162 HD
ENDROOT
BRANCH   1  19
HETATM   19  O1  UNL     1      26.722   1.440  52.152  1.00  0.00    -0.354 OA
HETATM   20  C1  UNL     1      27.705   2.203  52.800  1.00  0.00     0.210 C 
ENDBRANCH   1  19
BRANCH  17  21
HETATM   21  N4  UNL     1      24.495   0.810  53.324  1.00  0.00    -0.375 N 
HETATM   22  H15 UNL     1      24.781   1.587  53.980  1.00  0.00     0.160 HD
BRANCH  21  23
HETATM   23  C16 UNL     1      24.326  -0.540  53.797  1.00  0.00     0.235 C 
HETATM   24 CL1  UNL     1      22.676  -0.738  54.411  1.00  0.00    -0.109 Cl
ENDBRANCH  21  23
ENDBRANCH  17  21
TORSDOF 3
ENDMDL
MODEL 8
REMARK VINA RESULT:      -6.9      2.133      4.844
REMARK  3 active torsions:
REMARK  status: ('A' for Active; 'I' for Inactive)
REMARK    1  A    between atoms: O1_2  and  C2_3 
REMARK    2  A    between atoms: C15_19  and  N4_20 
REMARK    3  A    between atoms: N4_20  and  C16_21 
ROOT
HETATM    1  C2  UNL     1      23.730   1.821  51.344  1.00  0.00     0.093 C 
HETATM    2  C3  UNL     1      23.219   0.707  51.898  1.00  0.00     0.047 C 
HETATM    3  C4  UNL     1      23.350  -0.104  53.149  1.00  0.00     0.073 A 
HETATM    4  C5  UNL     1      22.684  -1.399  52.844  1.00  0.00     0.008 A 
HETATM    5  C6  UNL     1      21.631  -1.956  53.416  1.00  0.00    -0.002 A 
HETATM    6  C7  UNL     1      20.966  -1.266  54.514  1.00  0.00    -0.004 A 
HETATM    7  C8  UNL     1      21.506  -0.104  54.840  1.00  0.00    -0.024 A 
HETATM    8  C9  UNL     1      22.663   0.619  54.290  1.00  0.00     0.067 A 
HETATM    9  N1  UNL     1      24.727  -0.445  53.463  1.00  0.00    -0.358 N 
HETATM   10  C10 UNL     1      25.896   0.334  53.720  1.00  0.00     0.137 A 
HETATM   11  N2  UNL     1      26.706  -0.458  54.481  1.00  0.00    -0.224 NA
HETATM   12  C11 UNL     1      27.904  -0.009  54.897  1.00  0.00     0.234 A 
HETATM   13  N3  UNL     1      28.332   1.231  54.575  1.00  0.00    -0.253 NA
HETATM   14  C12 UNL     1      27.600   2.079  53.829  1.00  0.00     0.133 A 
HETATM   15  C13 UNL     1      26.370   1.592  53.413  1.00  0.00     0.029 A 
HETATM   16  C14 UNL     1      25.767   2.670  52.634  1.00  0.00     0.048 C 
HETATM   17  C15 UNL     1      24.726   2.773  51.814  1.00  0.00     0.063 C 
HETATM   18  H11 UNL     1      24.969  -1.480  53.526  1.00  0.00     0.162 HD
ENDROOT
BRANCH   1  19
HETATM   19  O1  UNL     1      23.236   2.165  50.072  1.00  0.00    -0.354 OA
HETATM   20  C1  UNL     1      22.045   1.593  49.598  1.00  0.00     0.210 C 
ENDBRANCH   1  19
BRANCH  17  21
HETATM   21  N4  UNL     1      24.513   4.087  51.257  1.00  0.00    -0.375 N 
HETATM   22  H15 UNL     1      23.665   4.472  51.756  1.00  0.00     0.160 HD
BRANCH  21  23
HETATM   23  C16 UNL     1      25.196   4.856  50.250  1.00  0.00     0.235 C 
HETATM   24 CL1  UNL     1      26.315   3.800  49.372  1.00  0.00    -0.109 Cl
ENDBRANCH  21  23
ENDBRANCH  17  21
TORSDOF 3
ENDMDL
MODEL 9
REMARK VINA RESULT:      -6.9      1.775      2.193
REMARK  3 active torsions:
REMARK  status: ('A' for Active; 'I' for Inactive)
REMARK    1  A    between atoms: O1_2  and  C2_3 
REMARK    2  A    between atoms: C15_19  and  N4_20 
REMARK    3  A    between atoms: N4_20  and  C16_21 
ROOT
HETATM    1  C2  UNL     1      24.133   2.972  50.864  1.00  0.00     0.093 C 
HETATM    2  C3  UNL     1      24.978   2.577  51.833  1.00  0.00     0.047 C 
HETATM    3  C4  UNL     1      25.182   1.421  52.761  1.00  0.00     0.073 A 
HETATM    4  C5  UNL     1      26.153   1.907  53.778  1.00  0.00     0.008 A 
HETATM    5  C6  UNL     1      27.363   1.459  54.064  1.00  0.00    -0.002 A 
HETATM    6  C7  UNL     1      27.899   0.326  53.320  1.00  0.00    -0.004 A 
HETATM    7  C8  UNL     1      27.087  -0.159  52.396  1.00  0.00    -0.024 A 
HETATM    8  C9  UNL     1      25.733   0.243  51.983  1.00  0.00     0.067 A 
HETATM    9  N1  UNL     1      23.985   1.075  53.508  1.00  0.00    -0.358 N 
HETATM   10  C10 UNL     1      22.671   0.670  53.123  1.00  0.00     0.137 A 
HETATM   11  N2  UNL     1      22.179  -0.038  54.181  1.00  0.00    -0.224 NA
HETATM   12  C11 UNL     1      20.942  -0.566  54.133  1.00  0.00     0.234 A 
HETATM   13  N3  UNL     1      20.161  -0.410  53.042  1.00  0.00    -0.253 NA
HETATM   14  C12 UNL     1      20.565   0.273  51.955  1.00  0.00     0.133 A 
HETATM   15  C13 UNL     1      21.842   0.805  52.029  1.00  0.00     0.029 A 
HETATM   16  C14 UNL     1      22.055   1.488  50.755  1.00  0.00     0.048 C 
HETATM   17  C15 UNL     1      22.955   2.345  50.283  1.00  0.00     0.063 C 
HETATM   18  H11 UNL     1      24.046   1.118  54.570  1.00  0.00     0.162 HD
ENDROOT
BRANCH   1  19
HETATM   19  O1  UNL     1      24.405   4.221  50.274  1.00  0.00    -0.354 OA
HETATM   20  C1  UNL     1      25.730   4.619  50.040  1.00  0.00     0.210 C 
ENDBRANCH   1  19
BRANCH  17  21
HETATM   21  N4  UNL     1      22.748   2.759  48.916  1.00  0.00    -0.375 N 
HETATM   22  H15 UNL     1      22.957   3.794  48.899  1.00  0.00     0.160 HD
BRANCH  21  23
HETATM   23  C16 UNL     1      22.348   2.060  47.723  1.00  0.00     0.235 C 
HETATM   24 CL1  UNL     1      22.019   3.238  46.442  1.00  0.00    -0.109 Cl
ENDBRANCH  21  23
ENDBRANCH  17  21
TORSDOF 3
ENDMDL
