MODEL 1
REMARK VINA RESULT:      -8.5      0.000      0.000
REMARK  2 active torsions:
REMARK  status: ('A' for Active; 'I' for Inactive)
REMARK    1  A    between atoms: C13_17  and  C14_18 
REMARK    2  A    between atoms: C14_18  and  C15_19 
ROOT
HETATM    1  C1  UNL     1      26.282   2.613  50.796  1.00  0.00     0.055 C 
HETATM    2  C2  UNL     1      25.508   2.047  51.889  1.00  0.00     0.193 C 
HETATM    3  N1  UNL     1      25.621   2.719  53.176  1.00  0.00     0.102 N 
HETATM    4  C3  UNL     1      25.723   1.637  54.255  1.00  0.00     0.306 C 
HETATM    5  C4  UNL     1      24.991   0.685  53.427  1.00  0.00    -0.028 C 
HETATM    6  C5  UNL     1      23.813   0.141  53.460  1.00  0.00     0.050 A 
HETATM    7  C6  UNL     1      22.788  -0.685  53.999  1.00  0.00     0.257 A 
HETATM    8  O1  UNL     1      23.296  -1.140  55.039  1.00  0.00    -0.267 OA
HETATM    9  N2  UNL     1      21.704  -0.555  53.058  1.00  0.00    -0.322 N 
HETATM   10  C7  UNL     1      21.963   0.304  51.950  1.00  0.00     0.047 A 
HETATM   11  C8  UNL     1      21.299   0.784  50.853  1.00  0.00     0.033 A 
HETATM   12  C9  UNL     1      22.071   1.689  50.109  1.00  0.00     0.045 A 
HETATM   13  C10 UNL     1      23.357   2.102  50.381  1.00  0.00     0.126 A 
HETATM   14  F1  UNL     1      23.983   2.977  49.589  1.00  0.00    -0.205 F 
HETATM   15  C11 UNL     1      24.105   1.656  51.483  1.00  0.00     0.033 A 
HETATM   16  C12 UNL     1      23.239   0.745  52.170  1.00  0.00     0.019 A 
HETATM   17  C13 UNL     1      26.013   0.619  52.306  1.00  0.00     0.068 C 
HETATM   18  H4  UNL     1      24.780   3.266  53.365  1.00  0.00     0.317 HD
HETATM   19  H7  UNL     1      20.861  -1.098  53.293  1.00  0.00     0.169 HD
ENDROOT
BRANCH  17  20
HETATM   20  C14 UNL     1      27.407   0.497  52.571  1.00  0.00     0.108 C 
BRANCH  20  21
HETATM   21  C15 UNL     1      27.712  -0.920  52.981  1.00  0.00     0.219 C 
HETATM   22  O2  UNL     1      28.546  -1.222  53.820  1.00  0.00    -0.280 OA
HETATM   23 CL1  UNL     1      26.933  -2.376  52.332  1.00  0.00    -0.044 Cl
ENDBRANCH  20  21
ENDBRANCH  17  20
TORSDOF 2
ENDMDL
MODEL 2
REMARK VINA RESULT:      -8.0      2.732      3.840
REMARK  2 active torsions:
REMARK  status: ('A' for Active; 'I' for Inactive)
REMARK    1  A    between atoms: C13_17  and  C14_18 
REMARK    2  A    between atoms: C14_18  and  C15_19 
ROOT
HETATM    1  C1  UNL     1      24.707  -1.015  55.040  1.00  0.00     0.055 C 
HETATM    2  C2  UNL     1      25.130  -0.393  53.796  1.00  0.00     0.193 C 
HETATM    3  N1  UNL     1      25.805  -1.259  52.838  1.00  0.00     0.102 N 
HETATM    4  C3  UNL     1      26.983  -0.474  52.255  1.00  0.00     0.306 C 
HETATM    5  C4  UNL     1      26.311   0.797  52.501  1.00  0.00    -0.028 C 
HETATM    6  C5  UNL     1      25.763   1.714  51.764  1.00  0.00     0.050 A 
HETATM    7  C6  UNL     1      25.754   2.754  50.793  1.00  0.00     0.257 A 
HETATM    8  O1  UNL     1      26.941   2.823  50.427  1.00  0.00    -0.267 OA
HETATM    9  N2  UNL     1      24.377   3.175  50.745  1.00  0.00    -0.322 N 
HETATM   10  C7  UNL     1      23.497   2.470  51.619  1.00  0.00     0.047 A 
HETATM   11  C8  UNL     1      22.162   2.443  51.920  1.00  0.00     0.033 A 
HETATM   12  C9  UNL     1      21.841   1.455  52.862  1.00  0.00     0.045 A 
HETATM   13  C10 UNL     1      22.709   0.570  53.464  1.00  0.00     0.126 A 
HETATM   14  F1  UNL     1      22.272  -0.332  54.348  1.00  0.00    -0.205 F 
HETATM   15  C11 UNL     1      24.090   0.535  53.211  1.00  0.00     0.033 A 
HETATM   16  C12 UNL     1      24.314   1.572  52.249  1.00  0.00     0.019 A 
HETATM   17  C13 UNL     1      26.265   0.671  54.013  1.00  0.00     0.068 C 
HETATM   18  H4  UNL     1      25.175  -1.491  52.068  1.00  0.00     0.317 HD
HETATM   19  H7  UNL     1      24.181   3.939  50.082  1.00  0.00     0.169 HD
ENDROOT
BRANCH  17  20
HETATM   20  C14 UNL     1      27.397   0.241  54.762  1.00  0.00     0.108 C 
BRANCH  20  21
HETATM   21  C15 UNL     1      28.595   1.064  54.368  1.00  0.00     0.219 C 
HETATM   22  O2  UNL     1      28.689   2.267  54.556  1.00  0.00    -0.280 OA
HETATM   23 CL1  UNL     1      30.058   0.449  53.574  1.00  0.00    -0.044 Cl
ENDBRANCH  20  21
ENDBRANCH  17  20
TORSDOF 2
ENDMDL
MODEL 3
REMARK VINA RESULT:      -7.7      3.184      4.722
REMARK  2 active torsions:
REMARK  status: ('A' for Active; 'I' for Inactive)
REMARK    1  A    between atoms: C13_17  and  C14_18 
REMARK    2  A    between atoms: C14_18  and  C15_19 
ROOT
HETATM    1  C1  UNL     1      21.007   2.846  51.839  1.00  0.00     0.055 C 
HETATM    2  C2  UNL     1      22.385   2.504  52.151  1.00  0.00     0.193 C 
HETATM    3  N1  UNL     1      23.260   3.610  52.511  1.00  0.00     0.102 N 
HETATM    4  C3  UNL     1      24.604   3.384  51.814  1.00  0.00     0.306 C 
HETATM    5  C4  UNL     1      24.395   1.940  51.791  1.00  0.00    -0.028 C 
HETATM    6  C5  UNL     1      24.914   0.918  52.401  1.00  0.00     0.050 A 
HETATM    7  C6  UNL     1      25.955   0.008  52.736  1.00  0.00     0.257 A 
HETATM    8  O1  UNL     1      26.931   0.430  52.092  1.00  0.00    -0.267 OA
HETATM    9  N2  UNL     1      25.328  -0.919  53.644  1.00  0.00    -0.322 N 
HETATM   10  C7  UNL     1      23.953  -0.663  53.920  1.00  0.00     0.047 A 
HETATM   11  C8  UNL     1      22.954  -1.179  54.700  1.00  0.00     0.033 A 
HETATM   12  C9  UNL     1      21.762  -0.444  54.607  1.00  0.00     0.045 A 
HETATM   13  C10 UNL     1      21.539   0.680  53.844  1.00  0.00     0.126 A 
HETATM   14  F1  UNL     1      20.351   1.292  53.847  1.00  0.00    -0.205 F 
HETATM   15  C11 UNL     1      22.509   1.270  53.017  1.00  0.00     0.033 A 
HETATM   16  C12 UNL     1      23.675   0.453  53.179  1.00  0.00     0.019 A 
HETATM   17  C13 UNL     1      23.166   1.963  50.900  1.00  0.00     0.068 C 
HETATM   18  H4  UNL     1      23.430   3.613  53.519  1.00  0.00     0.317 HD
HETATM   19  H7  UNL     1      25.946  -1.665  53.994  1.00  0.00     0.169 HD
ENDROOT
BRANCH  17  20
HETATM   20  C14 UNL     1      23.109   2.768  49.726  1.00  0.00     0.108 C 
BRANCH  20  21
HETATM   21  C15 UNL     1      22.405   2.006  48.635  1.00  0.00     0.219 C 
HETATM   22  O2  UNL     1      22.637   2.149  47.445  1.00  0.00    -0.280 OA
HETATM   23 CL1  UNL     1      21.138   0.787  48.875  1.00  0.00    -0.044 Cl
ENDBRANCH  20  21
ENDBRANCH  17  20
TORSDOF 2
ENDMDL
MODEL 4
REMARK VINA RESULT:      -7.4      3.554      5.802
REMARK  2 active torsions:
REMARK  status: ('A' for Active; 'I' for Inactive)
REMARK    1  A    between atoms: C13_17  and  C14_18 
REMARK    2  A    between atoms: C14_18  and  C15_19 
ROOT
HETATM    1  C1  UNL     1      22.021  -0.180  52.318  1.00  0.00     0.055 C 
HETATM    2  C2  UNL     1      22.602   1.119  52.023  1.00  0.00     0.193 C 
HETATM    3  N1  UNL     1      21.927   2.275  52.598  1.00  0.00     0.102 N 
HETATM    4  C3  UNL     1      21.886   3.367  51.526  1.00  0.00     0.306 C 
HETATM    5  C4  UNL     1      23.085   2.839  50.883  1.00  0.00    -0.028 C 
HETATM    6  C5  UNL     1      24.317   3.226  50.760  1.00  0.00     0.050 A 
HETATM    7  C6  UNL     1      25.363   4.080  50.312  1.00  0.00     0.257 A 
HETATM    8  O1  UNL     1      24.763   4.979  49.697  1.00  0.00    -0.267 OA
HETATM    9  N2  UNL     1      26.562   3.454  50.808  1.00  0.00    -0.322 N 
HETATM   10  C7  UNL     1      26.357   2.255  51.552  1.00  0.00     0.047 A 
HETATM   11  C8  UNL     1      27.106   1.340  52.243  1.00  0.00     0.033 A 
HETATM   12  C9  UNL     1      26.321   0.351  52.853  1.00  0.00     0.045 A 
HETATM   13  C10 UNL     1      24.949   0.239  52.812  1.00  0.00     0.126 A 
HETATM   14  F1  UNL     1      24.319  -0.756  53.443  1.00  0.00    -0.205 F 
HETATM   15  C11 UNL     1      24.111   1.133  52.125  1.00  0.00     0.033 A 
HETATM   16  C12 UNL     1      24.999   2.093  51.541  1.00  0.00     0.019 A 
HETATM   17  C13 UNL     1      22.490   1.495  50.502  1.00  0.00     0.068 C 
HETATM   18  H4  UNL     1      22.460   2.637  53.390  1.00  0.00     0.317 HD
HETATM   19  H7  UNL     1      27.436   3.946  50.572  1.00  0.00     0.169 HD
ENDROOT
BRANCH  17  20
HETATM   20  C14 UNL     1      21.195   1.389  49.921  1.00  0.00     0.108 C 
BRANCH  20  21
HETATM   21  C15 UNL     1      21.243   1.894  48.503  1.00  0.00     0.219 C 
HETATM   22  O2  UNL     1      20.280   2.349  47.907  1.00  0.00    -0.280 OA
HETATM   23 CL1  UNL     1      22.680   1.920  47.461  1.00  0.00    -0.044 Cl
ENDBRANCH  20  21
ENDBRANCH  17  20
TORSDOF 2
ENDMDL
MODEL 5
REMARK VINA RESULT:      -7.3      3.036      4.739
REMARK  2 active torsions:
REMARK  status: ('A' for Active; 'I' for Inactive)
REMARK    1  A    between atoms: C13_17  and  C14_18 
REMARK    2  A    between atoms: C14_18  and  C15_19 
ROOT
HETATM    1  C1  UNL     1      24.070   2.851  50.424  1.00  0.00     0.055 C 
HETATM    2  C2  UNL     1      23.418   1.802  51.190  1.00  0.00     0.193 C 
HETATM    3  N1  UNL     1      22.427   1.004  50.481  1.00  0.00     0.102 N 
HETATM    4  C3  UNL     1      21.237   0.800  51.423  1.00  0.00     0.306 C 
HETATM    5  C4  UNL     1      22.092   0.937  52.598  1.00  0.00    -0.028 C 
HETATM    6  C5  UNL     1      22.536   0.138  53.519  1.00  0.00     0.050 A 
HETATM    7  C6  UNL     1      22.417  -0.737  54.635  1.00  0.00     0.257 A 
HETATM    8  O1  UNL     1      21.193  -0.773  54.850  1.00  0.00    -0.267 OA
HETATM    9  N2  UNL     1      23.776  -1.119  54.925  1.00  0.00    -0.322 N 
HETATM   10  C7  UNL     1      24.762  -0.552  54.065  1.00  0.00     0.047 A 
HETATM   11  C8  UNL     1      26.117  -0.614  53.884  1.00  0.00     0.033 A 
HETATM   12  C9  UNL     1      26.551   0.149  52.790  1.00  0.00     0.045 A 
HETATM   13  C10 UNL     1      25.770   0.903  51.943  1.00  0.00     0.126 A 
HETATM   14  F1  UNL     1      26.310   1.586  50.929  1.00  0.00    -0.205 F 
HETATM   15  C11 UNL     1      24.375   1.021  52.062  1.00  0.00     0.033 A 
HETATM   16  C12 UNL     1      24.035   0.216  53.197  1.00  0.00     0.019 A 
HETATM   17  C13 UNL     1      22.507   2.374  52.335  1.00  0.00     0.068 C 
HETATM   18  H4  UNL     1      22.808   0.083  50.258  1.00  0.00     0.317 HD
HETATM   19  H7  UNL     1      23.883  -1.763  55.722  1.00  0.00     0.169 HD
ENDROOT
BRANCH  17  20
HETATM   20  C14 UNL     1      21.561   3.366  51.951  1.00  0.00     0.108 C 
BRANCH  20  21
HETATM   21  C15 UNL     1      22.145   4.732  52.200  1.00  0.00     0.219 C 
HETATM   22  O2  UNL     1      21.728   5.757  51.685  1.00  0.00    -0.280 OA
HETATM   23 CL1  UNL     1      23.520   5.092  53.264  1.00  0.00    -0.044 Cl
ENDBRANCH  20  21
ENDBRANCH  17  20
TORSDOF 2
ENDMDL
MODEL 6
REMARK VINA RESULT:      -7.3      3.420      5.516
REMARK  2 active torsions:
REMARK  status: ('A' for Active; 'I' for Inactive)
REMARK    1  A    between atoms: C13_17  and  C14_18 
REMARK    2  A    between atoms: C14_18  and  C15_19 
ROOT
HETATM    1  C1  UNL     1      19.013   0.359  51.833  1.00  0.00     0.055 C 
HETATM    2  C2  UNL     1      20.273   0.973  52.217  1.00  0.00     0.193 C 
HETATM    3  N1  UNL     1      20.216   2.375  52.608  1.00  0.00     0.102 N 
HETATM    4  C3  UNL     1      21.422   3.079  51.981  1.00  0.00     0.306 C 
HETATM    5  C4  UNL     1      22.190   1.839  51.964  1.00  0.00    -0.028 C 
HETATM    6  C5  UNL     1      23.215   1.375  52.611  1.00  0.00     0.050 A 
HETATM    7  C6  UNL     1      24.581   1.336  53.007  1.00  0.00     0.257 A 
HETATM    8  O1  UNL     1      25.087   2.302  52.408  1.00  0.00    -0.267 OA
HETATM    9  N2  UNL     1      24.655   0.203  53.893  1.00  0.00    -0.322 N 
HETATM   10  C7  UNL     1      23.425  -0.490  54.097  1.00  0.00     0.047 A 
HETATM   11  C8  UNL     1      22.956  -1.545  54.833  1.00  0.00     0.033 A 
HETATM   12  C9  UNL     1      21.577  -1.744  54.672  1.00  0.00     0.045 A 
HETATM   13  C10 UNL     1      20.719  -1.007  53.886  1.00  0.00     0.126 A 
HETATM   14  F1  UNL     1      19.417  -1.300  53.824  1.00  0.00    -0.205 F 
HETATM   15  C11 UNL     1      21.121   0.087  53.102  1.00  0.00     0.033 A 
HETATM   16  C12 UNL     1      22.530   0.205  53.331  1.00  0.00     0.019 A 
HETATM   17  C13 UNL     1      21.275   1.089  51.013  1.00  0.00     0.068 C 
HETATM   18  H4  UNL     1      20.299   2.462  53.623  1.00  0.00     0.317 HD
HETATM   19  H7  UNL     1      25.591   0.019  54.283  1.00  0.00     0.169 HD
ENDROOT
BRANCH  17  20
HETATM   20  C14 UNL     1      20.768   1.698  49.829  1.00  0.00     0.108 C 
BRANCH  20  21
HETATM   21  C15 UNL     1      21.839   1.691  48.770  1.00  0.00     0.219 C 
HETATM   22  O2  UNL     1      21.904   0.868  47.870  1.00  0.00    -0.280 OA
HETATM   23 CL1  UNL     1      23.173   2.853  48.640  1.00  0.00    -0.044 Cl
ENDBRANCH  20  21
ENDBRANCH  17  20
TORSDOF 2
ENDMDL
MODEL 7
REMARK VINA RESULT:      -6.8      9.555     10.854
REMARK  2 active torsions:
REMARK  status: ('A' for Active; 'I' for Inactive)
REMARK    1  A    between atoms: C13_17  and  C14_18 
REMARK    2  A    between atoms: C14_18  and  C15_19 
ROOT
HETATM    1  C1  UNL     1      34.138   4.834  44.563  1.00  0.00     0.055 C 
HETATM    2  C2  UNL     1      33.798   5.227  45.920  1.00  0.00     0.193 C 
HETATM    3  N1  UNL     1      34.915   5.543  46.800  1.00  0.00     0.102 N 
HETATM    4  C3  UNL     1      34.618   4.921  48.167  1.00  0.00     0.306 C 
HETATM    5  C4  UNL     1      33.180   4.993  47.933  1.00  0.00    -0.028 C 
HETATM    6  C5  UNL     1      32.198   5.695  48.409  1.00  0.00     0.050 A 
HETATM    7  C6  UNL     1      31.298   6.138  49.418  1.00  0.00     0.257 A 
HETATM    8  O1  UNL     1      31.658   5.507  50.428  1.00  0.00    -0.267 OA
HETATM    9  N2  UNL     1      30.449   7.083  48.739  1.00  0.00    -0.322 N 
HETATM   10  C7  UNL     1      30.745   7.282  47.359  1.00  0.00     0.047 A 
HETATM   11  C8  UNL     1      30.302   8.055  46.319  1.00  0.00     0.033 A 
HETATM   12  C9  UNL     1      31.046   7.860  45.146  1.00  0.00     0.045 A 
HETATM   13  C10 UNL     1      32.115   7.009  44.974  1.00  0.00     0.126 A 
HETATM   14  F1  UNL     1      32.743   6.919  43.798  1.00  0.00    -0.205 F 
HETATM   15  C11 UNL     1      32.629   6.183  45.988  1.00  0.00     0.033 A 
HETATM   16  C12 UNL     1      31.809   6.452  47.131  1.00  0.00     0.019 A 
HETATM   17  C13 UNL     1      33.157   4.051  46.742  1.00  0.00     0.068 C 
HETATM   18  H4  UNL     1      34.988   6.554  46.929  1.00  0.00     0.317 HD
HETATM   19  H7  UNL     1      29.721   7.512  49.329  1.00  0.00     0.169 HD
ENDROOT
BRANCH  17  20
HETATM   20  C14 UNL     1      33.876   2.822  46.747  1.00  0.00     0.108 C 
BRANCH  20  21
HETATM   21  C15 UNL     1      33.007   1.742  47.337  1.00  0.00     0.219 C 
HETATM   22  O2  UNL     1      33.039   1.405  48.510  1.00  0.00    -0.280 OA
HETATM   23 CL1  UNL     1      31.806   0.781  46.452  1.00  0.00    -0.044 Cl
ENDBRANCH  20  21
ENDBRANCH  17  20
TORSDOF 2
ENDMDL
MODEL 8
REMARK VINA RESULT:      -6.8      5.485      7.499
REMARK  2 active torsions:
REMARK  status: ('A' for Active; 'I' for Inactive)
REMARK    1  A    between atoms: C13_17  and  C14_18 
REMARK    2  A    between atoms: C14_18  and  C15_19 
ROOT
HETATM    1  C1  UNL     1      26.468   3.181  49.654  1.00  0.00     0.055 C 
HETATM    2  C2  UNL     1      25.628   4.364  49.731  1.00  0.00     0.193 C 
HETATM    3  N1  UNL     1      25.113   4.706  51.050  1.00  0.00     0.102 N 
HETATM    4  C3  UNL     1      23.650   5.125  50.882  1.00  0.00     0.306 C 
HETATM    5  C4  UNL     1      23.888   5.553  49.507  1.00  0.00    -0.028 C 
HETATM    6  C5  UNL     1      23.941   6.691  48.887  1.00  0.00     0.050 A 
HETATM    7  C6  UNL     1      23.411   7.912  48.382  1.00  0.00     0.257 A 
HETATM    8  O1  UNL     1      22.224   7.890  48.751  1.00  0.00    -0.267 OA
HETATM    9  N2  UNL     1      24.529   8.527  47.713  1.00  0.00    -0.322 N 
HETATM   10  C7  UNL     1      25.746   7.786  47.758  1.00  0.00     0.047 A 
HETATM   11  C8  UNL     1      27.044   7.925  47.345  1.00  0.00     0.033 A 
HETATM   12  C9  UNL     1      27.855   6.851  47.740  1.00  0.00     0.045 A 
HETATM   13  C10 UNL     1      27.470   5.744  48.463  1.00  0.00     0.126 A 
HETATM   14  F1  UNL     1      28.348   4.787  48.780  1.00  0.00    -0.205 F 
HETATM   15  C11 UNL     1      26.161   5.526  48.922  1.00  0.00     0.033 A 
HETATM   16  C12 UNL     1      25.419   6.664  48.470  1.00  0.00     0.019 A 
HETATM   17  C13 UNL     1      24.266   4.184  48.970  1.00  0.00     0.068 C 
HETATM   18  H4  UNL     1      25.623   5.505  51.432  1.00  0.00     0.317 HD
HETATM   19  H7  UNL     1      24.324   9.438  47.277  1.00  0.00     0.169 HD
ENDROOT
BRANCH  17  20
HETATM   20  C14 UNL     1      23.512   3.020  49.295  1.00  0.00     0.108 C 
BRANCH  20  21
HETATM   21  C15 UNL     1      22.626   2.661  48.131  1.00  0.00     0.219 C 
HETATM   22  O2  UNL     1      22.196   1.538  47.922  1.00  0.00    -0.280 OA
HETATM   23 CL1  UNL     1      22.057   3.783  46.879  1.00  0.00    -0.044 Cl
ENDBRANCH  20  21
ENDBRANCH  17  20
TORSDOF 2
ENDMDL
MODEL 9
REMARK VINA RESULT:      -6.8      4.150      6.182
REMARK  2 active torsions:
REMARK  status: ('A' for Active; 'I' for Inactive)
REMARK    1  A    between atoms: C13_17  and  C14_18 
REMARK    2  A    between atoms: C14_18  and  C15_19 
ROOT
HETATM    1  C1  UNL     1      24.675   1.709  51.795  1.00  0.00     0.055 C 
HETATM    2  C2  UNL     1      24.476   3.149  51.800  1.00  0.00     0.193 C 
HETATM    3  N1  UNL     1      24.443   3.792  53.106  1.00  0.00     0.102 N 
HETATM    4  C3  UNL     1      23.312   4.824  53.085  1.00  0.00     0.306 C 
HETATM    5  C4  UNL     1      23.430   4.984  51.639  1.00  0.00    -0.028 C 
HETATM    6  C5  UNL     1      23.851   5.917  50.841  1.00  0.00     0.050 A 
HETATM    7  C6  UNL     1      23.822   7.200  50.227  1.00  0.00     0.257 A 
HETATM    8  O1  UNL     1      22.848   7.758  50.762  1.00  0.00    -0.267 OA
HETATM    9  N2  UNL     1      24.935   7.175  49.312  1.00  0.00    -0.322 N 
HETATM   10  C7  UNL     1      25.684   5.961  49.301  1.00  0.00     0.047 A 
HETATM   11  C8  UNL     1      26.797   5.453  48.688  1.00  0.00     0.033 A 
HETATM   12  C9  UNL     1      27.115   4.161  49.131  1.00  0.00     0.045 A 
HETATM   13  C10 UNL     1      26.438   3.417  50.073  1.00  0.00     0.126 A 
HETATM   14  F1  UNL     1      26.849   2.192  50.411  1.00  0.00    -0.205 F 
HETATM   15  C11 UNL     1      25.289   3.865  50.745  1.00  0.00     0.033 A 
HETATM   16  C12 UNL     1      25.048   5.178  50.225  1.00  0.00     0.019 A 
HETATM   17  C13 UNL     1      23.050   3.558  51.282  1.00  0.00     0.068 C 
HETATM   18  H4  UNL     1      25.317   4.292  53.276  1.00  0.00     0.317 HD
HETATM   19  H7  UNL     1      25.067   8.040  48.769  1.00  0.00     0.169 HD
ENDROOT
BRANCH  17  20
HETATM   20  C14 UNL     1      21.945   2.903  51.897  1.00  0.00     0.108 C 
BRANCH  20  21
HETATM   21  C15 UNL     1      21.115   2.229  50.837  1.00  0.00     0.219 C 
HETATM   22  O2  UNL     1      20.416   2.827  50.035  1.00  0.00    -0.280 OA
HETATM   23 CL1  UNL     1      21.003   0.479  50.567  1.00  0.00    -0.044 Cl
ENDBRANCH  20  21
ENDBRANCH  17  20
TORSDOF 2
ENDMDL
