MODEL 1
REMARK VINA RESULT:      -8.3      0.000      0.000
REMARK  3 active torsions:
REMARK  status: ('A' for Active; 'I' for Inactive)
REMARK    1  A    between atoms: O1_2  and  C2_3 
REMARK    2  A    between atoms: C3_4  and  O2_5 
REMARK    3  A    between atoms: O2_5  and  C4_6 
ROOT
HETATM    1  C4  UNL     1      26.650   1.530  51.639  1.00  0.00     0.156 C 
HETATM    2  C5  UNL     1      26.085   2.650  50.790  1.00  0.00     0.005 C 
HETATM    3  C6  UNL     1      26.562   3.682  50.113  1.00  0.00    -0.005 C 
HETATM    4  C7  UNL     1      26.226   4.803  49.288  1.00  0.00    -0.017 C 
HETATM    5  C8  UNL     1      24.874   4.649  49.262  1.00  0.00     0.044 C 
HETATM    6  C9  UNL     1      23.840   5.482  48.567  1.00  0.00     0.007 C 
HETATM    7  C10 UNL     1      22.745   4.788  48.957  1.00  0.00     0.131 C 
HETATM    8  O3  UNL     1      22.421   3.684  49.713  1.00  0.00    -0.359 OA
HETATM    9  C11 UNL     1      22.026   2.471  49.127  1.00  0.00     0.210 C 
HETATM   10  C12 UNL     1      21.368   1.696  50.240  1.00  0.00    -0.037 C 
HETATM   11  C13 UNL     1      20.428   2.361  50.918  1.00  0.00     0.093 C 
HETATM   12  N1  UNL     1      19.944   2.083  52.250  1.00  0.00    -0.369 N 
HETATM   13  C14 UNL     1      20.555   0.956  52.911  1.00  0.00     0.009 C 
HETATM   14  C15 UNL     1      20.121   0.591  54.290  1.00  0.00     0.068 C 
HETATM   15  C16 UNL     1      21.495   0.283  52.242  1.00  0.00    -0.030 C 
HETATM   16  C17 UNL     1      22.466  -0.477  53.026  1.00  0.00     0.204 C 
HETATM   17  O4  UNL     1      23.649   0.154  53.290  1.00  0.00    -0.386 OA
HETATM   18  C18 UNL     1      24.402   0.511  52.183  1.00  0.00     0.175 C 
HETATM   19  C19 UNL     1      25.687   1.131  52.695  1.00  0.00     0.039 C 
HETATM   20  C20 UNL     1      25.327   2.361  53.533  1.00  0.00     0.015 C 
HETATM   21  C21 UNL     1      21.534   0.304  50.765  1.00  0.00     0.076 C 
HETATM   22  H16 UNL     1      19.213   2.665  52.681  1.00  0.00     0.165 HD
ENDROOT
BRANCH   1  23
HETATM   23  O2  UNL     1      27.834   2.012  52.278  1.00  0.00    -0.352 OA
BRANCH  23  24
HETATM   24  C3  UNL     1      28.677   1.202  53.025  1.00  0.00     0.159 C 
HETATM   25  C2  UNL     1      29.097   0.933  54.249  1.00  0.00     0.158 C 
BRANCH  25  26
HETATM   26  O1  UNL     1      30.037  -0.104  54.258  1.00  0.00    -0.366 OA
HETATM   27  C1  UNL     1      29.660  -1.297  53.577  1.00  0.00     0.209 C 
ENDBRANCH  25  26
ENDBRANCH  23  24
ENDBRANCH   1  23
TORSDOF 3
ENDMDL
MODEL 2
REMARK VINA RESULT:      -7.8      2.722      7.336
REMARK  3 active torsions:
REMARK  status: ('A' for Active; 'I' for Inactive)
REMARK    1  A    between atoms: O1_2  and  C2_3 
REMARK    2  A    between atoms: C3_4  and  O2_5 
REMARK    3  A    between atoms: O2_5  and  C4_6 
ROOT
HETATM    1  C4  UNL     1      22.281   3.161  50.951  1.00  0.00     0.156 C 
HETATM    2  C5  UNL     1      21.821   2.128  51.960  1.00  0.00     0.005 C 
HETATM    3  C6  UNL     1      20.669   1.723  52.468  1.00  0.00    -0.005 C 
HETATM    4  C7  UNL     1      20.041   0.816  53.381  1.00  0.00    -0.017 C 
HETATM    5  C8  UNL     1      21.151   0.182  53.846  1.00  0.00     0.044 C 
HETATM    6  C9  UNL     1      21.259  -0.921  54.856  1.00  0.00     0.007 C 
HETATM    7  C10 UNL     1      22.606  -1.058  54.844  1.00  0.00     0.131 C 
HETATM    8  O3  UNL     1      23.707  -0.511  54.225  1.00  0.00    -0.359 OA
HETATM    9  C11 UNL     1      24.407  -1.191  53.215  1.00  0.00     0.210 C 
HETATM   10  C12 UNL     1      25.734  -0.483  53.116  1.00  0.00    -0.037 C 
HETATM   11  C13 UNL     1      26.378  -0.317  54.274  1.00  0.00     0.093 C 
HETATM   12  N1  UNL     1      27.401   0.656  54.578  1.00  0.00    -0.369 N 
HETATM   13  C14 UNL     1      27.758   1.542  53.497  1.00  0.00     0.009 C 
HETATM   14  C15 UNL     1      28.804   2.581  53.715  1.00  0.00     0.068 C 
HETATM   15  C16 UNL     1      27.120   1.383  52.334  1.00  0.00    -0.030 C 
HETATM   16  C17 UNL     1      27.059   2.536  51.437  1.00  0.00     0.204 C 
HETATM   17  O4  UNL     1      25.926   3.297  51.515  1.00  0.00    -0.386 OA
HETATM   18  C18 UNL     1      24.740   2.644  51.214  1.00  0.00     0.175 C 
HETATM   19  C19 UNL     1      23.630   3.672  51.297  1.00  0.00     0.039 C 
HETATM   20  C20 UNL     1      23.600   4.234  52.722  1.00  0.00     0.015 C 
HETATM   21  C21 UNL     1      26.516   0.085  51.973  1.00  0.00     0.076 C 
HETATM   22  H16 UNL     1      27.833   0.698  55.511  1.00  0.00     0.165 HD
ENDROOT
BRANCH   1  23
HETATM   23  O2  UNL     1      21.366   4.258  50.992  1.00  0.00    -0.352 OA
BRANCH  23  24
HETATM   24  C3  UNL     1      21.577   5.448  50.312  1.00  0.00     0.159 C 
HETATM   25  C2  UNL     1      21.345   6.750  50.331  1.00  0.00     0.158 C 
BRANCH  25  26
HETATM   26  O1  UNL     1      21.911   7.393  49.224  1.00  0.00    -0.366 OA
HETATM   27  C1  UNL     1      22.830   8.442  49.512  1.00  0.00     0.209 C 
ENDBRANCH  25  26
ENDBRANCH  23  24
ENDBRANCH   1  23
TORSDOF 3
ENDMDL
MODEL 3
REMARK VINA RESULT:      -7.6      2.103      4.994
REMARK  3 active torsions:
REMARK  status: ('A' for Active; 'I' for Inactive)
REMARK    1  A    between atoms: O1_2  and  C2_3 
REMARK    2  A    between atoms: C3_4  and  O2_5 
REMARK    3  A    between atoms: O2_5  and  C4_6 
ROOT
HETATM    1  C4  UNL     1      24.572   1.713  53.418  1.00  0.00     0.156 C 
HETATM    2  C5  UNL     1      23.204   1.106  53.183  1.00  0.00     0.005 C 
HETATM    3  C6  UNL     1      22.571  -0.006  53.520  1.00  0.00    -0.005 C 
HETATM    4  C7  UNL     1      21.347  -0.741  53.412  1.00  0.00    -0.017 C 
HETATM    5  C8  UNL     1      20.641   0.135  52.646  1.00  0.00     0.044 C 
HETATM    6  C9  UNL     1      19.239   0.024  52.129  1.00  0.00     0.007 C 
HETATM    7  C10 UNL     1      19.189   1.201  51.462  1.00  0.00     0.131 C 
HETATM    8  O3  UNL     1      19.992   2.287  51.196  1.00  0.00    -0.359 OA
HETATM    9  C11 UNL     1      19.801   3.526  51.827  1.00  0.00     0.210 C 
HETATM   10  C12 UNL     1      20.560   4.516  50.982  1.00  0.00    -0.037 C 
HETATM   11  C13 UNL     1      20.294   4.470  49.674  1.00  0.00     0.093 C 
HETATM   12  N1  UNL     1      21.122   4.946  48.591  1.00  0.00    -0.369 N 
HETATM   13  C14 UNL     1      22.379   5.537  48.983  1.00  0.00     0.009 C 
HETATM   14  C15 UNL     1      23.303   6.057  47.935  1.00  0.00     0.068 C 
HETATM   15  C16 UNL     1      22.655   5.589  50.289  1.00  0.00    -0.030 C 
HETATM   16  C17 UNL     1      24.061   5.673  50.677  1.00  0.00     0.204 C 
HETATM   17  O4  UNL     1      24.669   4.489  50.988  1.00  0.00    -0.386 OA
HETATM   18  C18 UNL     1      24.125   3.794  52.056  1.00  0.00     0.175 C 
HETATM   19  C19 UNL     1      24.977   2.560  52.269  1.00  0.00     0.039 C 
HETATM   20  C20 UNL     1      24.934   1.719  50.990  1.00  0.00     0.015 C 
HETATM   21  C21 UNL     1      21.570   5.575  51.292  1.00  0.00     0.076 C 
HETATM   22  H16 UNL     1      20.818   4.858  47.611  1.00  0.00     0.165 HD
ENDROOT
BRANCH   1  23
HETATM   23  O2  UNL     1      25.515   0.646  53.538  1.00  0.00    -0.352 OA
BRANCH  23  24
HETATM   24  C3  UNL     1      26.790   0.816  54.058  1.00  0.00     0.159 C 
HETATM   25  C2  UNL     1      27.717   0.266  54.825  1.00  0.00     0.158 C 
BRANCH  25  26
HETATM   26  O1  UNL     1      28.861   1.069  54.910  1.00  0.00    -0.366 OA
HETATM   27  C1  UNL     1      28.941   2.145  53.981  1.00  0.00     0.209 C 
ENDBRANCH  25  26
ENDBRANCH  23  24
ENDBRANCH   1  23
TORSDOF 3
ENDMDL
MODEL 4
REMARK VINA RESULT:      -7.5      2.770      4.549
REMARK  3 active torsions:
REMARK  status: ('A' for Active; 'I' for Inactive)
REMARK    1  A    between atoms: O1_2  and  C2_3 
REMARK    2  A    between atoms: C3_4  and  O2_5 
REMARK    3  A    between atoms: O2_5  and  C4_6 
ROOT
HETATM    1  C4  UNL     1      24.107   3.578  50.500  1.00  0.00     0.156 C 
HETATM    2  C5  UNL     1      22.622   3.869  50.565  1.00  0.00     0.005 C 
HETATM    3  C6  UNL     1      21.811   4.835  50.167  1.00  0.00    -0.005 C 
HETATM    4  C7  UNL     1      20.453   5.288  50.127  1.00  0.00    -0.017 C 
HETATM    5  C8  UNL     1      19.864   4.250  50.782  1.00  0.00     0.044 C 
HETATM    6  C9  UNL     1      18.418   4.037  51.115  1.00  0.00     0.007 C 
HETATM    7  C10 UNL     1      18.543   2.849  51.751  1.00  0.00     0.131 C 
HETATM    8  O3  UNL     1      19.523   1.948  52.102  1.00  0.00    -0.359 OA
HETATM    9  C11 UNL     1      19.683   0.725  51.431  1.00  0.00     0.210 C 
HETATM   10  C12 UNL     1      20.529  -0.117  52.352  1.00  0.00    -0.037 C 
HETATM   11  C13 UNL     1      20.100  -0.185  53.615  1.00  0.00     0.093 C 
HETATM   12  N1  UNL     1      20.872  -0.521  54.788  1.00  0.00    -0.369 N 
HETATM   13  C14 UNL     1      22.265  -0.813  54.553  1.00  0.00     0.009 C 
HETATM   14  C15 UNL     1      23.144  -1.170  55.702  1.00  0.00     0.068 C 
HETATM   15  C16 UNL     1      22.704  -0.750  53.292  1.00  0.00    -0.030 C 
HETATM   16  C17 UNL     1      24.133  -0.516  53.088  1.00  0.00     0.204 C 
HETATM   17  O4  UNL     1      24.504   0.783  52.878  1.00  0.00    -0.386 OA
HETATM   18  C18 UNL     1      23.958   1.392  51.759  1.00  0.00     0.175 C 
HETATM   19  C19 UNL     1      24.542   2.787  51.678  1.00  0.00     0.039 C 
HETATM   20  C20 UNL     1      24.161   3.544  52.954  1.00  0.00     0.015 C 
HETATM   21  C21 UNL     1      21.775  -0.923  52.158  1.00  0.00     0.076 C 
HETATM   22  H16 UNL     1      20.439  -0.541  55.721  1.00  0.00     0.165 HD
ENDROOT
BRANCH   1  23
HETATM   23  O2  UNL     1      24.805   4.824  50.519  1.00  0.00    -0.352 OA
BRANCH  23  24
HETATM   24  C3  UNL     1      25.860   5.117  49.668  1.00  0.00     0.159 C 
HETATM   25  C2  UNL     1      26.958   4.631  49.114  1.00  0.00     0.158 C 
BRANCH  25  26
HETATM   26  O1  UNL     1      27.581   5.571  48.286  1.00  0.00    -0.366 OA
HETATM   27  C1  UNL     1      29.004   5.521  48.241  1.00  0.00     0.209 C 
ENDBRANCH  25  26
ENDBRANCH  23  24
ENDBRANCH   1  23
TORSDOF 3
ENDMDL
MODEL 5
REMARK VINA RESULT:      -7.5      2.636      3.903
REMARK  3 active torsions:
REMARK  status: ('A' for Active; 'I' for Inactive)
REMARK    1  A    between atoms: O1_2  and  C2_3 
REMARK    2  A    between atoms: C3_4  and  O2_5 
REMARK    3  A    between atoms: O2_5  and  C4_6 
ROOT
HETATM    1  C4  UNL     1      22.649  -0.022  52.919  1.00  0.00     0.156 C 
HETATM    2  C5  UNL     1      22.821   1.462  52.663  1.00  0.00     0.005 C 
HETATM    3  C6  UNL     1      23.765   2.369  52.850  1.00  0.00    -0.005 C 
HETATM    4  C7  UNL     1      24.118   3.748  52.692  1.00  0.00    -0.017 C 
HETATM    5  C8  UNL     1      22.964   4.199  52.129  1.00  0.00     0.044 C 
HETATM    6  C9  UNL     1      22.606   5.584  51.681  1.00  0.00     0.007 C 
HETATM    7  C10 UNL     1      21.353   5.323  51.241  1.00  0.00     0.131 C 
HETATM    8  O3  UNL     1      20.483   4.262  51.130  1.00  0.00    -0.359 OA
HETATM    9  C11 UNL     1      20.208   3.651  49.896  1.00  0.00     0.210 C 
HETATM   10  C12 UNL     1      18.942   2.865  50.124  1.00  0.00    -0.037 C 
HETATM   11  C13 UNL     1      17.940   3.549  50.683  1.00  0.00     0.093 C 
HETATM   12  N1  UNL     1      16.807   3.017  51.403  1.00  0.00    -0.369 N 
HETATM   13  C14 UNL     1      16.767   1.580  51.525  1.00  0.00     0.009 C 
HETATM   14  C15 UNL     1      15.637   0.936  52.252  1.00  0.00     0.068 C 
HETATM   15  C16 UNL     1      17.764   0.885  50.968  1.00  0.00    -0.030 C 
HETATM   16  C17 UNL     1      18.037  -0.447  51.503  1.00  0.00     0.204 C 
HETATM   17  O4  UNL     1      19.023  -0.525  52.446  1.00  0.00    -0.386 OA
HETATM   18  C18 UNL     1      20.284  -0.124  52.033  1.00  0.00     0.175 C 
HETATM   19  C19 UNL     1      21.229  -0.348  53.197  1.00  0.00     0.039 C 
HETATM   20  C20 UNL     1      20.745   0.498  54.379  1.00  0.00     0.015 C 
HETATM   21  C21 UNL     1      18.544   1.449  49.847  1.00  0.00     0.076 C 
HETATM   22  H16 UNL     1      16.089   3.639  51.798  1.00  0.00     0.165 HD
ENDROOT
BRANCH   1  23
HETATM   23  O2  UNL     1      23.418  -0.365  54.073  1.00  0.00    -0.352 OA
BRANCH  23  24
HETATM   24  C3  UNL     1      24.783  -0.611  54.031  1.00  0.00     0.159 C 
HETATM   25  C2  UNL     1      25.815  -0.793  53.224  1.00  0.00     0.158 C 
BRANCH  25  26
HETATM   26  O1  UNL     1      26.999  -1.009  53.939  1.00  0.00    -0.366 OA
HETATM   27  C1  UNL     1      27.528   0.119  54.629  1.00  0.00     0.209 C 
ENDBRANCH  25  26
ENDBRANCH  23  24
ENDBRANCH   1  23
TORSDOF 3
ENDMDL
MODEL 6
REMARK VINA RESULT:      -7.3      2.375      5.459
REMARK  3 active torsions:
REMARK  status: ('A' for Active; 'I' for Inactive)
REMARK    1  A    between atoms: O1_2  and  C2_3 
REMARK    2  A    between atoms: C3_4  and  O2_5 
REMARK    3  A    between atoms: O2_5  and  C4_6 
ROOT
HETATM    1  C4  UNL     1      24.641   4.270  50.237  1.00  0.00     0.156 C 
HETATM    2  C5  UNL     1      25.073   3.007  50.954  1.00  0.00     0.005 C 
HETATM    3  C6  UNL     1      26.214   2.402  51.239  1.00  0.00    -0.005 C 
HETATM    4  C7  UNL     1      26.818   1.267  51.868  1.00  0.00    -0.017 C 
HETATM    5  C8  UNL     1      25.689   0.640  52.301  1.00  0.00     0.044 C 
HETATM    6  C9  UNL     1      25.551  -0.643  53.062  1.00  0.00     0.007 C 
HETATM    7  C10 UNL     1      24.201  -0.669  53.147  1.00  0.00     0.131 C 
HETATM    8  O3  UNL     1      23.114   0.082  52.760  1.00  0.00    -0.359 OA
HETATM    9  C11 UNL     1      22.381   0.856  53.674  1.00  0.00     0.210 C 
HETATM   10  C12 UNL     1      21.079   1.156  52.977  1.00  0.00    -0.037 C 
HETATM   11  C13 UNL     1      20.452   0.096  52.461  1.00  0.00     0.093 C 
HETATM   12  N1  UNL     1      19.467   0.085  51.405  1.00  0.00    -0.369 N 
HETATM   13  C14 UNL     1      19.133   1.375  50.853  1.00  0.00     0.009 C 
HETATM   14  C15 UNL     1      18.126   1.466  49.758  1.00  0.00     0.068 C 
HETATM   15  C16 UNL     1      19.754   2.443  51.363  1.00  0.00    -0.030 C 
HETATM   16  C17 UNL     1      19.848   3.633  50.519  1.00  0.00     0.204 C 
HETATM   17  O4  UNL     1      21.009   3.775  49.811  1.00  0.00    -0.386 OA
HETATM   18  C18 UNL     1      22.167   3.874  50.565  1.00  0.00     0.175 C 
HETATM   19  C19 UNL     1      23.314   4.088  49.599  1.00  0.00     0.039 C 
HETATM   20  C20 UNL     1      23.378   2.884  48.653  1.00  0.00     0.015 C 
HETATM   21  C21 UNL     1      20.308   2.415  52.732  1.00  0.00     0.076 C 
HETATM   22  H16 UNL     1      19.046  -0.796  51.081  1.00  0.00     0.165 HD
ENDROOT
BRANCH   1  23
HETATM   23  O2  UNL     1      25.595   4.545  49.210  1.00  0.00    -0.352 OA
BRANCH  23  24
HETATM   24  C3  UNL     1      26.311   5.731  49.135  1.00  0.00     0.159 C 
HETATM   25  C2  UNL     1      26.472   6.844  48.440  1.00  0.00     0.158 C 
BRANCH  25  26
HETATM   26  O1  UNL     1      27.460   7.664  48.997  1.00  0.00    -0.366 OA
HETATM   27  C1  UNL     1      27.006   8.664  49.903  1.00  0.00     0.209 C 
ENDBRANCH  25  26
ENDBRANCH  23  24
ENDBRANCH   1  23
TORSDOF 3
ENDMDL
MODEL 7
REMARK VINA RESULT:      -7.2      1.750      2.203
REMARK  3 active torsions:
REMARK  status: ('A' for Active; 'I' for Inactive)
REMARK    1  A    between atoms: O1_2  and  C2_3 
REMARK    2  A    between atoms: C3_4  and  O2_5 
REMARK    3  A    between atoms: O2_5  and  C4_6 
ROOT
HETATM    1  C4  UNL     1      25.421   1.832  51.284  1.00  0.00     0.156 C 
HETATM    2  C5  UNL     1      25.397   3.096  50.451  1.00  0.00     0.005 C 
HETATM    3  C6  UNL     1      26.261   4.032  50.094  1.00  0.00    -0.005 C 
HETATM    4  C7  UNL     1      26.442   5.245  49.355  1.00  0.00    -0.017 C 
HETATM    5  C8  UNL     1      25.172   5.400  48.890  1.00  0.00     0.044 C 
HETATM    6  C9  UNL     1      24.608   6.483  48.020  1.00  0.00     0.007 C 
HETATM    7  C10 UNL     1      23.334   6.030  47.957  1.00  0.00     0.131 C 
HETATM    8  O3  UNL     1      22.570   4.986  48.428  1.00  0.00    -0.359 OA
HETATM    9  C11 UNL     1      22.165   3.928  47.599  1.00  0.00     0.210 C 
HETATM   10  C12 UNL     1      21.039   3.258  48.344  1.00  0.00    -0.037 C 
HETATM   11  C13 UNL     1      20.075   4.076  48.774  1.00  0.00     0.093 C 
HETATM   12  N1  UNL     1      19.133   3.839  49.843  1.00  0.00    -0.369 N 
HETATM   13  C14 UNL     1      19.259   2.567  50.512  1.00  0.00     0.009 C 
HETATM   14  C15 UNL     1      18.332   2.231  51.629  1.00  0.00     0.068 C 
HETATM   15  C16 UNL     1      20.220   1.740  50.089  1.00  0.00    -0.030 C 
HETATM   16  C17 UNL     1      20.710   0.738  51.033  1.00  0.00     0.204 C 
HETATM   17  O4  UNL     1      21.837   1.071  51.730  1.00  0.00    -0.386 OA
HETATM   18  C18 UNL     1      22.968   1.314  50.967  1.00  0.00     0.175 C 
HETATM   19  C19 UNL     1      24.104   1.599  51.928  1.00  0.00     0.039 C 
HETATM   20  C20 UNL     1      23.733   2.828  52.762  1.00  0.00     0.015 C 
HETATM   21  C21 UNL     1      20.749   1.837  48.713  1.00  0.00     0.076 C 
HETATM   22  H16 UNL     1      18.427   4.544  50.095  1.00  0.00     0.165 HD
ENDROOT
BRANCH   1  23
HETATM   23  O2  UNL     1      26.396   1.998  52.315  1.00  0.00    -0.352 OA
BRANCH  23  24
HETATM   24  C3  UNL     1      27.012   0.933  52.957  1.00  0.00     0.159 C 
HETATM   25  C2  UNL     1      27.106  -0.385  52.997  1.00  0.00     0.158 C 
BRANCH  25  26
HETATM   26  O1  UNL     1      28.003  -0.810  53.985  1.00  0.00    -0.366 OA
HETATM   27  C1  UNL     1      28.544   0.209  54.819  1.00  0.00     0.209 C 
ENDBRANCH  25  26
ENDBRANCH  23  24
ENDBRANCH   1  23
TORSDOF 3
ENDMDL
MODEL 8
REMARK VINA RESULT:      -7.2      7.391     10.827
REMARK  3 active torsions:
REMARK  status: ('A' for Active; 'I' for Inactive)
REMARK    1  A    between atoms: O1_2  and  C2_3 
REMARK    2  A    between atoms: C3_4  and  O2_5 
REMARK    3  A    between atoms: O2_5  and  C4_6 
ROOT
HETATM    1  C4  UNL     1      31.367   5.735  48.353  1.00  0.00     0.156 C 
HETATM    2  C5  UNL     1      29.871   5.975  48.361  1.00  0.00     0.005 C 
HETATM    3  C6  UNL     1      28.778   5.240  48.483  1.00  0.00    -0.005 C 
HETATM    4  C7  UNL     1      27.347   5.258  48.517  1.00  0.00    -0.017 C 
HETATM    5  C8  UNL     1      27.149   6.594  48.344  1.00  0.00     0.044 C 
HETATM    6  C9  UNL     1      25.862   7.360  48.277  1.00  0.00     0.007 C 
HETATM    7  C10 UNL     1      26.386   8.594  48.093  1.00  0.00     0.131 C 
HETATM    8  O3  UNL     1      27.615   9.202  47.973  1.00  0.00    -0.359 OA
HETATM    9  C11 UNL     1      28.170   9.969  49.009  1.00  0.00     0.210 C 
HETATM   10  C12 UNL     1      29.259  10.780  48.355  1.00  0.00    -0.037 C 
HETATM   11  C13 UNL     1      28.892  11.444  47.256  1.00  0.00     0.093 C 
HETATM   12  N1  UNL     1      29.745  11.930  46.196  1.00  0.00    -0.369 N 
HETATM   13  C14 UNL     1      31.152  11.658  46.357  1.00  0.00     0.009 C 
HETATM   14  C15 UNL     1      32.112  12.119  45.315  1.00  0.00     0.068 C 
HETATM   15  C16 UNL     1      31.531  10.994  47.454  1.00  0.00    -0.030 C 
HETATM   16  C17 UNL     1      32.795  10.263  47.395  1.00  0.00     0.204 C 
HETATM   17  O4  UNL     1      32.706   8.934  47.089  1.00  0.00    -0.386 OA
HETATM   18  C18 UNL     1      31.975   8.159  47.975  1.00  0.00     0.175 C 
HETATM   19  C19 UNL     1      32.055   6.726  47.489  1.00  0.00     0.039 C 
HETATM   20  C20 UNL     1      31.456   6.661  46.081  1.00  0.00     0.015 C 
HETATM   21  C21 UNL     1      30.701  11.017  48.676  1.00  0.00     0.076 C 
HETATM   22  H16 UNL     1      29.353  12.432  45.388  1.00  0.00     0.165 HD
ENDROOT
BRANCH   1  23
HETATM   23  O2  UNL     1      31.605   4.434  47.813  1.00  0.00    -0.352 OA
BRANCH  23  24
HETATM   24  C3  UNL     1      32.873   3.885  47.686  1.00  0.00     0.159 C 
HETATM   25  C2  UNL     1      33.601   2.804  47.911  1.00  0.00     0.158 C 
BRANCH  25  26
HETATM   26  O1  UNL     1      34.924   2.973  47.487  1.00  0.00    -0.366 OA
HETATM   27  C1  UNL     1      35.099   3.565  46.203  1.00  0.00     0.209 C 
ENDBRANCH  25  26
ENDBRANCH  23  24
ENDBRANCH   1  23
TORSDOF 3
ENDMDL
MODEL 9
REMARK VINA RESULT:      -7.0      2.688      7.233
REMARK  3 active torsions:
REMARK  status: ('A' for Active; 'I' for Inactive)
REMARK    1  A    between atoms: O1_2  and  C2_3 
REMARK    2  A    between atoms: C3_4  and  O2_5 
REMARK    3  A    between atoms: O2_5  and  C4_6 
ROOT
HETATM    1  C4  UNL     1      20.801   0.391  51.710  1.00  0.00     0.156 C 
HETATM    2  C5  UNL     1      22.193   0.395  52.309  1.00  0.00     0.005 C 
HETATM    3  C6  UNL     1      22.877  -0.349  53.163  1.00  0.00    -0.005 C 
HETATM    4  C7  UNL     1      24.131  -0.518  53.832  1.00  0.00    -0.017 C 
HETATM    5  C8  UNL     1      24.791   0.557  53.319  1.00  0.00     0.044 C 
HETATM    6  C9  UNL     1      26.192   1.021  53.579  1.00  0.00     0.007 C 
HETATM    7  C10 UNL     1      26.183   2.110  52.776  1.00  0.00     0.131 C 
HETATM    8  O3  UNL     1      25.331   2.773  51.923  1.00  0.00    -0.359 OA
HETATM    9  C11 UNL     1      25.473   2.706  50.527  1.00  0.00     0.210 C 
HETATM   10  C12 UNL     1      24.663   3.861  49.996  1.00  0.00    -0.037 C 
HETATM   11  C13 UNL     1      24.919   5.043  50.562  1.00  0.00     0.093 C 
HETATM   12  N1  UNL     1      24.061   6.204  50.599  1.00  0.00    -0.369 N 
HETATM   13  C14 UNL     1      22.783   6.054  49.947  1.00  0.00     0.009 C 
HETATM   14  C15 UNL     1      21.828   7.197  49.933  1.00  0.00     0.068 C 
HETATM   15  C16 UNL     1      22.517   4.875  49.376  1.00  0.00    -0.030 C 
HETATM   16  C17 UNL     1      21.111   4.518  49.194  1.00  0.00     0.204 C 
HETATM   17  O4  UNL     1      20.559   3.737  50.170  1.00  0.00    -0.386 OA
HETATM   18  C18 UNL     1      21.143   2.493  50.349  1.00  0.00     0.175 C 
HETATM   19  C19 UNL     1      20.348   1.774  51.420  1.00  0.00     0.039 C 
HETATM   20  C20 UNL     1      20.417   2.601  52.707  1.00  0.00     0.015 C 
HETATM   21  C21 UNL     1      23.609   3.981  48.941  1.00  0.00     0.076 C 
HETATM   22  H16 UNL     1      24.360   7.070  51.067  1.00  0.00     0.165 HD
ENDROOT
BRANCH   1  23
HETATM   23  O2  UNL     1      19.907  -0.177  52.669  1.00  0.00    -0.352 OA
BRANCH  23  24
HETATM   24  C3  UNL     1      18.592  -0.509  52.377  1.00  0.00     0.159 C 
HETATM   25  C2  UNL     1      17.571  -1.267  52.742  1.00  0.00     0.158 C 
BRANCH  25  26
HETATM   26  O1  UNL     1      16.455  -1.060  51.923  1.00  0.00    -0.366 OA
HETATM   27  C1  UNL     1      16.700  -0.399  50.686  1.00  0.00     0.209 C 
ENDBRANCH  25  26
ENDBRANCH  23  24
ENDBRANCH   1  23
TORSDOF 3
ENDMDL
