MODEL 1
REMARK VINA RESULT:      -8.0      0.000      0.000
REMARK  0 active torsions:
REMARK  status: ('A' for Active; 'I' for Inactive)
ROOT
HETATM    1  F1  UNL     1      21.610   0.239  55.233  1.00  0.00    -0.241 F 
HETATM    2  C1  UNL     1      22.237  -0.931  55.006  1.00  0.00     0.244 C 
HETATM    3  C2  UNL     1      21.972  -1.612  53.698  1.00  0.00     0.313 C 
HETATM    4  N1  UNL     1      22.662  -1.107  52.505  1.00  0.00     0.101 NA
HETATM    5  C3  UNL     1      23.345   0.041  52.810  1.00  0.00     0.309 C 
HETATM    6  C4  UNL     1      24.158  -0.400  54.048  1.00  0.00     0.100 C 
HETATM    7  C5  UNL     1      23.737  -0.887  55.199  1.00  0.00     0.075 C 
HETATM    8 CL1  UNL     1      24.920  -1.248  56.443  1.00  0.00    -0.084 Cl
HETATM    9  N2  UNL     1      25.603  -0.475  54.161  1.00  0.00    -0.216 N 
HETATM   10  C6  UNL     1      26.243  -0.871  52.856  1.00  0.00     0.240 C 
HETATM   11  N3  UNL     1      26.214   0.030  51.993  1.00  0.00    -0.238 NA
HETATM   12  C7  UNL     1      25.385   1.296  52.055  1.00  0.00     0.100 A 
HETATM   13  C8  UNL     1      26.449   2.205  51.705  1.00  0.00     0.098 A 
HETATM   14  C9  UNL     1      25.697   3.103  51.015  1.00  0.00     0.039 A 
HETATM   15  C10 UNL     1      24.347   2.996  50.839  1.00  0.00     0.003 A 
HETATM   16  C11 UNL     1      23.471   2.033  51.277  1.00  0.00     0.012 A 
HETATM   17  C12 UNL     1      24.051   0.988  52.018  1.00  0.00     0.012 A 
HETATM   18  O1  UNL     1      27.611   1.535  52.353  1.00  0.00    -0.347 OA
HETATM   19  C13 UNL     1      27.106   0.958  53.561  1.00  0.00     0.204 C 
HETATM   20  C14 UNL     1      27.559   0.104  54.592  1.00  0.00     0.228 C 
HETATM   21  O2  UNL     1      26.260  -0.157  55.407  1.00  0.00    -0.270 OA
HETATM   22  H4  UNL     1      21.951  -1.008  51.763  1.00  0.00     0.317 HD
ENDROOT
TORSDOF 0
ENDMDL
MODEL 2
REMARK VINA RESULT:      -7.8      2.786      4.144
REMARK  0 active torsions:
REMARK  status: ('A' for Active; 'I' for Inactive)
ROOT
HETATM    1  F1  UNL     1      26.441  -1.382  52.820  1.00  0.00    -0.241 F 
HETATM    2  C1  UNL     1      25.669  -0.866  53.794  1.00  0.00     0.244 C 
HETATM    3  C2  UNL     1      26.222   0.291  54.569  1.00  0.00     0.313 C 
HETATM    4  N1  UNL     1      26.182   1.621  53.948  1.00  0.00     0.101 NA
HETATM    5  C3  UNL     1      25.750   1.518  52.652  1.00  0.00     0.309 C 
HETATM    6  C4  UNL     1      24.450   0.701  52.820  1.00  0.00     0.100 C 
HETATM    7  C5  UNL     1      24.271  -0.491  53.356  1.00  0.00     0.075 C 
HETATM    8 CL1  UNL     1      22.658  -1.182  53.350  1.00  0.00    -0.084 Cl
HETATM    9  N2  UNL     1      23.100   1.136  52.513  1.00  0.00    -0.216 N 
HETATM   10  C6  UNL     1      22.917   2.609  52.778  1.00  0.00     0.240 C 
HETATM   11  N3  UNL     1      23.495   3.340  51.949  1.00  0.00    -0.238 NA
HETATM   12  C7  UNL     1      24.533   2.894  50.940  1.00  0.00     0.100 A 
HETATM   13  C8  UNL     1      23.947   3.555  49.799  1.00  0.00     0.098 A 
HETATM   14  C9  UNL     1      25.104   3.858  49.154  1.00  0.00     0.039 A 
HETATM   15  C10 UNL     1      26.346   3.528  49.614  1.00  0.00     0.003 A 
HETATM   16  C11 UNL     1      26.718   2.858  50.754  1.00  0.00     0.012 A 
HETATM   17  C12 UNL     1      25.658   2.453  51.585  1.00  0.00     0.012 A 
HETATM   18  O1  UNL     1      22.497   3.429  50.120  1.00  0.00    -0.347 OA
HETATM   19  C13 UNL     1      22.349   2.159  50.763  1.00  0.00     0.204 C 
HETATM   20  C14 UNL     1      21.341   1.425  51.431  1.00  0.00     0.228 C 
HETATM   21  O2  UNL     1      22.129   0.206  51.989  1.00  0.00    -0.270 OA
HETATM   22  H4  UNL     1      27.119   2.038  54.064  1.00  0.00     0.317 HD
ENDROOT
TORSDOF 0
ENDMDL
MODEL 3
REMARK VINA RESULT:      -7.7      3.083      4.570
REMARK  0 active torsions:
REMARK  status: ('A' for Active; 'I' for Inactive)
ROOT
HETATM    1  F1  UNL     1      21.392   0.041  49.814  1.00  0.00    -0.241 F 
HETATM    2  C1  UNL     1      21.249   1.330  50.176  1.00  0.00     0.244 C 
HETATM    3  C2  UNL     1      20.879   1.607  51.602  1.00  0.00     0.313 C 
HETATM    4  N1  UNL     1      21.936   1.526  52.617  1.00  0.00     0.101 NA
HETATM    5  C3  UNL     1      23.090   1.049  52.055  1.00  0.00     0.309 C 
HETATM    6  C4  UNL     1      23.254   1.988  50.838  1.00  0.00     0.100 C 
HETATM    7  C5  UNL     1      22.429   2.213  49.835  1.00  0.00     0.075 C 
HETATM    8 CL1  UNL     1      22.932   3.312  48.562  1.00  0.00    -0.084 Cl
HETATM    9  N2  UNL     1      24.335   2.925  50.600  1.00  0.00    -0.216 N 
HETATM   10  C6  UNL     1      24.848   3.522  51.886  1.00  0.00     0.240 C 
HETATM   11  N3  UNL     1      25.506   2.719  52.579  1.00  0.00    -0.238 NA
HETATM   12  C7  UNL     1      25.574   1.219  52.380  1.00  0.00     0.100 A 
HETATM   13  C8  UNL     1      27.010   1.108  52.464  1.00  0.00     0.098 A 
HETATM   14  C9  UNL     1      27.061  -0.113  53.059  1.00  0.00     0.039 A 
HETATM   15  C10 UNL     1      25.961  -0.854  53.381  1.00  0.00     0.003 A 
HETATM   16  C11 UNL     1      24.626  -0.580  53.202  1.00  0.00     0.012 A 
HETATM   17  C12 UNL     1      24.344   0.658  52.599  1.00  0.00     0.012 A 
HETATM   18  O1  UNL     1      27.424   2.393  51.832  1.00  0.00    -0.347 OA
HETATM   19  C13 UNL     1      26.469   2.644  50.795  1.00  0.00     0.204 C 
HETATM   20  C14 UNL     1      26.145   3.678  49.887  1.00  0.00     0.228 C 
HETATM   21  O2  UNL     1      24.816   3.168  49.260  1.00  0.00    -0.270 OA
HETATM   22  H4  UNL     1      21.564   0.960  53.397  1.00  0.00     0.317 HD
ENDROOT
TORSDOF 0
ENDMDL
MODEL 4
REMARK VINA RESULT:      -7.7      3.172      4.985
REMARK  0 active torsions:
REMARK  status: ('A' for Active; 'I' for Inactive)
ROOT
HETATM    1  F1  UNL     1      23.095   2.954  48.127  1.00  0.00    -0.241 F 
HETATM    2  C1  UNL     1      23.665   3.904  48.891  1.00  0.00     0.244 C 
HETATM    3  C2  UNL     1      22.784   4.619  49.870  1.00  0.00     0.313 C 
HETATM    4  N1  UNL     1      22.444   3.933  51.122  1.00  0.00     0.101 NA
HETATM    5  C3  UNL     1      22.909   2.645  51.091  1.00  0.00     0.309 C 
HETATM    6  C4  UNL     1      24.388   2.858  50.700  1.00  0.00     0.100 C 
HETATM    7  C5  UNL     1      24.900   3.452  49.640  1.00  0.00     0.075 C 
HETATM    8 CL1  UNL     1      26.644   3.486  49.453  1.00  0.00    -0.084 Cl
HETATM    9  N2  UNL     1      25.557   2.534  51.498  1.00  0.00    -0.216 N 
HETATM   10  C6  UNL     1      25.296   2.727  52.970  1.00  0.00     0.240 C 
HETATM   11  N3  UNL     1      24.543   1.860  53.460  1.00  0.00    -0.238 NA
HETATM   12  C7  UNL     1      23.700   0.871  52.683  1.00  0.00     0.100 A 
HETATM   13  C8  UNL     1      24.086  -0.298  53.434  1.00  0.00     0.098 A 
HETATM   14  C9  UNL     1      22.903  -0.962  53.354  1.00  0.00     0.039 A 
HETATM   15  C10 UNL     1      21.804  -0.490  52.696  1.00  0.00     0.003 A 
HETATM   16  C11 UNL     1      21.624   0.681  51.999  1.00  0.00     0.012 A 
HETATM   17  C12 UNL     1      22.742   1.534  51.962  1.00  0.00     0.012 A 
HETATM   18  O1  UNL     1      25.504   0.033  53.754  1.00  0.00    -0.347 OA
HETATM   19  C13 UNL     1      26.006   0.738  52.614  1.00  0.00     0.204 C 
HETATM   20  C14 UNL     1      27.172   1.445  52.240  1.00  0.00     0.228 C 
HETATM   21  O2  UNL     1      26.767   2.059  50.870  1.00  0.00    -0.270 OA
HETATM   22  H4  UNL     1      21.424   4.026  51.252  1.00  0.00     0.317 HD
ENDROOT
TORSDOF 0
ENDMDL
MODEL 5
REMARK VINA RESULT:      -7.6      3.850      6.144
REMARK  0 active torsions:
REMARK  status: ('A' for Active; 'I' for Inactive)
ROOT
HETATM    1  F1  UNL     1      24.485   3.673  53.876  1.00  0.00    -0.241 F 
HETATM    2  C1  UNL     1      24.275   3.708  52.547  1.00  0.00     0.244 C 
HETATM    3  C2  UNL     1      24.953   2.662  51.716  1.00  0.00     0.313 C 
HETATM    4  N1  UNL     1      24.368   1.316  51.689  1.00  0.00     0.101 NA
HETATM    5  C3  UNL     1      23.339   1.234  52.589  1.00  0.00     0.309 C 
HETATM    6  C4  UNL     1      22.484   2.460  52.195  1.00  0.00     0.100 C 
HETATM    7  C5  UNL     1      22.817   3.734  52.141  1.00  0.00     0.075 C 
HETATM    8 CL1  UNL     1      21.589   4.908  51.702  1.00  0.00    -0.084 Cl
HETATM    9  N2  UNL     1      21.127   2.447  51.681  1.00  0.00    -0.216 N 
HETATM   10  C6  UNL     1      20.870   1.239  50.817  1.00  0.00     0.240 C 
HETATM   11  N3  UNL     1      20.789   0.173  51.462  1.00  0.00    -0.238 NA
HETATM   12  C7  UNL     1      21.190  -0.024  52.909  1.00  0.00     0.100 A 
HETATM   13  C8  UNL     1      19.987  -0.707  53.321  1.00  0.00     0.098 A 
HETATM   14  C9  UNL     1      20.556  -1.535  54.237  1.00  0.00     0.039 A 
HETATM   15  C10 UNL     1      21.887  -1.543  54.538  1.00  0.00     0.003 A 
HETATM   16  C11 UNL     1      22.913  -0.780  54.036  1.00  0.00     0.012 A 
HETATM   17  C12 UNL     1      22.540   0.153  53.052  1.00  0.00     0.012 A 
HETATM   18  O1  UNL     1      18.974  -0.020  52.470  1.00  0.00    -0.347 OA
HETATM   19  C13 UNL     1      19.403   1.342  52.374  1.00  0.00     0.204 C 
HETATM   20  C14 UNL     1      19.043   2.514  51.672  1.00  0.00     0.228 C 
HETATM   21  O2  UNL     1      20.196   3.492  52.038  1.00  0.00    -0.270 OA
HETATM   22  H4  UNL     1      25.139   0.647  51.846  1.00  0.00     0.317 HD
ENDROOT
TORSDOF 0
ENDMDL
MODEL 6
REMARK VINA RESULT:      -7.3      3.276      5.156
REMARK  0 active torsions:
REMARK  status: ('A' for Active; 'I' for Inactive)
ROOT
HETATM    1  F1  UNL     1      26.796   2.799  48.822  1.00  0.00    -0.241 F 
HETATM    2  C1  UNL     1      26.740   3.476  49.984  1.00  0.00     0.244 C 
HETATM    3  C2  UNL     1      25.831   4.666  50.043  1.00  0.00     0.313 C 
HETATM    4  N1  UNL     1      24.392   4.428  50.209  1.00  0.00     0.101 NA
HETATM    5  C3  UNL     1      24.128   3.086  50.133  1.00  0.00     0.309 C 
HETATM    6  C4  UNL     1      25.132   2.513  51.157  1.00  0.00     0.100 C 
HETATM    7  C5  UNL     1      26.446   2.621  51.197  1.00  0.00     0.075 C 
HETATM    8 CL1  UNL     1      27.320   1.799  52.478  1.00  0.00    -0.084 Cl
HETATM    9  N2  UNL     1      24.818   1.808  52.386  1.00  0.00    -0.216 N 
HETATM   10  C6  UNL     1      23.553   2.331  53.020  1.00  0.00     0.240 C 
HETATM   11  N3  UNL     1      22.518   2.010  52.401  1.00  0.00    -0.238 NA
HETATM   12  C7  UNL     1      22.459   1.425  51.006  1.00  0.00     0.100 A 
HETATM   13  C8  UNL     1      21.553   0.347  51.318  1.00  0.00     0.098 A 
HETATM   14  C9  UNL     1      20.895   0.315  50.129  1.00  0.00     0.039 A 
HETATM   15  C10 UNL     1      21.176   1.138  49.077  1.00  0.00     0.003 A 
HETATM   16  C11 UNL     1      22.120   2.129  48.956  1.00  0.00     0.012 A 
HETATM   17  C12 UNL     1      22.920   2.337  50.093  1.00  0.00     0.012 A 
HETATM   18  O1  UNL     1      21.982   0.018  52.707  1.00  0.00    -0.347 OA
HETATM   19  C13 UNL     1      23.400   0.214  52.734  1.00  0.00     0.204 C 
HETATM   20  C14 UNL     1      24.446   0.219  53.685  1.00  0.00     0.228 C 
HETATM   21  O2  UNL     1      25.655   0.727  52.849  1.00  0.00    -0.270 OA
HETATM   22  H4  UNL     1      23.906   5.009  49.507  1.00  0.00     0.317 HD
ENDROOT
TORSDOF 0
ENDMDL
MODEL 7
REMARK VINA RESULT:      -7.1      8.528     10.658
REMARK  0 active torsions:
REMARK  status: ('A' for Active; 'I' for Inactive)
ROOT
HETATM    1  F1  UNL     1      31.842   7.057  50.220  1.00  0.00    -0.241 F 
HETATM    2  C1  UNL     1      31.875   7.811  49.105  1.00  0.00     0.244 C 
HETATM    3  C2  UNL     1      31.912   7.093  47.791  1.00  0.00     0.313 C 
HETATM    4  N1  UNL     1      30.657   6.534  47.275  1.00  0.00     0.101 NA
HETATM    5  C3  UNL     1      29.667   6.662  48.212  1.00  0.00     0.309 C 
HETATM    6  C4  UNL     1      29.761   8.164  48.562  1.00  0.00     0.100 C 
HETATM    7  C5  UNL     1      30.785   8.857  49.021  1.00  0.00     0.075 C 
HETATM    8 CL1  UNL     1      30.558  10.561  49.374  1.00  0.00    -0.084 Cl
HETATM    9  N2  UNL     1      28.742   9.175  48.347  1.00  0.00    -0.216 N 
HETATM   10  C6  UNL     1      27.943   8.903  47.098  1.00  0.00     0.240 C 
HETATM   11  N3  UNL     1      27.163   7.935  47.207  1.00  0.00    -0.238 NA
HETATM   12  C7  UNL     1      27.170   6.907  48.319  1.00  0.00     0.100 A 
HETATM   13  C8  UNL     1      25.754   6.952  48.592  1.00  0.00     0.098 A 
HETATM   14  C9  UNL     1      25.594   5.645  48.928  1.00  0.00     0.039 A 
HETATM   15  C10 UNL     1      26.609   4.731  48.952  1.00  0.00     0.003 A 
HETATM   16  C11 UNL     1      27.944   4.884  48.667  1.00  0.00     0.012 A 
HETATM   17  C12 UNL     1      28.331   6.181  48.283  1.00  0.00     0.012 A 
HETATM   18  O1  UNL     1      25.467   8.391  48.330  1.00  0.00    -0.347 OA
HETATM   19  C13 UNL     1      26.624   9.107  48.773  1.00  0.00     0.204 C 
HETATM   20  C14 UNL     1      27.123  10.429  48.740  1.00  0.00     0.228 C 
HETATM   21  O2  UNL     1      28.568  10.255  49.289  1.00  0.00    -0.270 OA
HETATM   22  H4  UNL     1      30.855   5.565  46.979  1.00  0.00     0.317 HD
ENDROOT
TORSDOF 0
ENDMDL
MODEL 8
REMARK VINA RESULT:      -7.0      5.142      6.953
REMARK  0 active torsions:
REMARK  status: ('A' for Active; 'I' for Inactive)
ROOT
HETATM    1  F1  UNL     1      22.685   2.137  49.722  1.00  0.00    -0.241 F 
HETATM    2  C1  UNL     1      22.406   2.897  50.797  1.00  0.00     0.244 C 
HETATM    3  C2  UNL     1      23.349   2.819  51.958  1.00  0.00     0.313 C 
HETATM    4  N1  UNL     1      24.615   3.557  51.870  1.00  0.00     0.101 NA
HETATM    5  C3  UNL     1      24.759   4.091  50.617  1.00  0.00     0.309 C 
HETATM    6  C4  UNL     1      23.415   4.831  50.437  1.00  0.00     0.100 C 
HETATM    7  C5  UNL     1      22.184   4.362  50.491  1.00  0.00     0.075 C 
HETATM    8 CL1  UNL     1      20.850   5.461  50.188  1.00  0.00    -0.084 Cl
HETATM    9  N2  UNL     1      23.221   6.260  50.277  1.00  0.00    -0.216 N 
HETATM   10  C6  UNL     1      24.237   7.051  51.062  1.00  0.00     0.240 C 
HETATM   11  N3  UNL     1      25.386   7.007  50.575  1.00  0.00    -0.238 NA
HETATM   12  C7  UNL     1      25.862   6.052  49.501  1.00  0.00     0.100 A 
HETATM   13  C8  UNL     1      26.498   7.044  48.670  1.00  0.00     0.098 A 
HETATM   14  C9  UNL     1      27.516   6.269  48.212  1.00  0.00     0.039 A 
HETATM   15  C10 UNL     1      27.692   4.958  48.551  1.00  0.00     0.003 A 
HETATM   16  C11 UNL     1      26.946   4.149  49.374  1.00  0.00     0.012 A 
HETATM   17  C12 UNL     1      25.830   4.764  49.968  1.00  0.00     0.012 A 
HETATM   18  O1  UNL     1      25.591   8.207  48.883  1.00  0.00    -0.347 OA
HETATM   19  C13 UNL     1      24.275   7.658  49.008  1.00  0.00     0.204 C 
HETATM   20  C14 UNL     1      22.972   8.102  49.331  1.00  0.00     0.228 C 
HETATM   21  O2  UNL     1      22.176   6.769  49.420  1.00  0.00    -0.270 OA
HETATM   22  H4  UNL     1      25.365   2.908  52.158  1.00  0.00     0.317 HD
ENDROOT
TORSDOF 0
ENDMDL
MODEL 9
REMARK VINA RESULT:      -7.0      9.947     12.217
REMARK  0 active torsions:
REMARK  status: ('A' for Active; 'I' for Inactive)
ROOT
HETATM    1  F1  UNL     1      30.092  11.779  46.692  1.00  0.00    -0.241 F 
HETATM    2  C1  UNL     1      31.081  11.762  47.605  1.00  0.00     0.244 C 
HETATM    3  C2  UNL     1      30.684  11.784  49.050  1.00  0.00     0.313 C 
HETATM    4  N1  UNL     1      30.215  10.533  49.657  1.00  0.00     0.101 NA
HETATM    5  C3  UNL     1      30.091   9.565  48.696  1.00  0.00     0.309 C 
HETATM    6  C4  UNL     1      31.476   9.625  48.014  1.00  0.00     0.100 C 
HETATM    7  C5  UNL     1      32.081  10.639  47.428  1.00  0.00     0.075 C 
HETATM    8 CL1  UNL     1      33.650  10.372  46.690  1.00  0.00    -0.084 Cl
HETATM    9  N2  UNL     1      32.474   8.571  47.973  1.00  0.00    -0.216 N 
HETATM   10  C6  UNL     1      32.467   7.749  49.236  1.00  0.00     0.240 C 
HETATM   11  N3  UNL     1      31.473   7.000  49.337  1.00  0.00    -0.238 NA
HETATM   12  C7  UNL     1      30.220   7.065  48.490  1.00  0.00     0.100 A 
HETATM   13  C8  UNL     1      30.153   5.656  48.188  1.00  0.00     0.098 A 
HETATM   14  C9  UNL     1      28.799   5.544  48.156  1.00  0.00     0.039 A 
HETATM   15  C10 UNL     1      27.939   6.584  48.361  1.00  0.00     0.003 A 
HETATM   16  C11 UNL     1      28.199   7.907  48.629  1.00  0.00     0.012 A 
HETATM   17  C12 UNL     1      29.561   8.245  48.713  1.00  0.00     0.012 A 
HETATM   18  O1  UNL     1      31.603   5.321  48.108  1.00  0.00    -0.347 OA
HETATM   19  C13 UNL     1      32.238   6.468  47.535  1.00  0.00     0.204 C 
HETATM   20  C14 UNL     1      33.549   6.928  47.273  1.00  0.00     0.228 C 
HETATM   21  O2  UNL     1      33.304   8.391  46.806  1.00  0.00    -0.270 OA
HETATM   22  H4  UNL     1      29.346  10.752  50.170  1.00  0.00     0.317 HD
ENDROOT
TORSDOF 0
ENDMDL
