MODEL 1
REMARK VINA RESULT:      -9.2      0.000      0.000
REMARK  7 active torsions:
REMARK  status: ('A' for Active; 'I' for Inactive)
REMARK    1  A    between atoms: C4_4  and  C5_5 
REMARK    2  A    between atoms: C13_15  and  C14_16 
REMARK    3  A    between atoms: C14_16  and  N2_17 
REMARK    4  A    between atoms: N2_17  and  C15_18 
REMARK    5  A    between atoms: C18_21  and  C19_22 
REMARK    6  A    between atoms: C19_22  and  C20_23 
REMARK    7  A    between atoms: C20_23  and  O3_25 
ROOT
HETATM    1  C5  UNL     1      24.927   0.395  53.383  1.00  0.00    -0.028 A 
HETATM    2  C6  UNL     1      24.595   1.653  52.952  1.00  0.00     0.013 A 
HETATM    3  C7  UNL     1      23.277   1.992  52.722  1.00  0.00     0.015 A 
HETATM    4  C8  UNL     1      22.238   1.125  52.904  1.00  0.00     0.006 A 
HETATM    5  C9  UNL     1      22.601  -0.129  53.337  1.00  0.00     0.047 A 
HETATM    6  C10 UNL     1      23.903  -0.509  53.577  1.00  0.00     0.042 A 
HETATM    7  N1  UNL     1      21.373  -0.834  53.450  1.00  0.00    -0.322 N 
HETATM    8  C11 UNL     1      20.245  -0.049  53.096  1.00  0.00     0.256 A 
HETATM    9  O1  UNL     1      19.042  -0.418  53.103  1.00  0.00    -0.267 OA
HETATM   10  C12 UNL     1      20.798   1.249  52.732  1.00  0.00     0.042 A 
HETATM   11  C13 UNL     1      20.069   2.273  52.339  1.00  0.00     0.010 C 
HETATM   12  H10 UNL     1      21.265  -1.822  53.756  1.00  0.00     0.169 HD
ENDROOT
BRANCH  11  13
HETATM   13  C14 UNL     1      20.144   3.660  51.903  1.00  0.00     0.147 C 
BRANCH  13  14
HETATM   14  N2  UNL     1      20.817   3.699  50.593  1.00  0.00    -0.395 N 
HETATM   15  H14 UNL     1      20.528   3.159  49.741  1.00  0.00     0.159 HD
BRANCH  14  16
HETATM   16  C15 UNL     1      21.962   4.521  50.403  1.00  0.00     0.095 C 
HETATM   17  C16 UNL     1      23.042   4.016  49.830  1.00  0.00    -0.014 A 
HETATM   18  C17 UNL     1      23.918   3.044  49.192  1.00  0.00     0.022 A 
HETATM   19  C18 UNL     1      24.411   4.248  49.372  1.00  0.00    -0.036 A 
BRANCH  19  20
HETATM   20  C19 UNL     1      25.543   5.221  49.234  1.00  0.00     0.149 C 
BRANCH  20  21
HETATM   21  C20 UNL     1      26.799   4.436  49.446  1.00  0.00     0.143 C 
HETATM   22  O2  UNL     1      27.774   4.369  48.624  1.00  0.00    -0.650 OA
BRANCH  21  23
HETATM   23  O3  UNL     1      27.025   3.684  50.593  1.00  0.00    -0.776 OA
HETATM   24  H19 UNL     1      27.122   2.679  50.553  1.00  0.00     0.167 HD
ENDBRANCH  21  23
ENDBRANCH  20  21
ENDBRANCH  19  20
ENDBRANCH  14  16
ENDBRANCH  13  14
ENDBRANCH  11  13
BRANCH   1  25
HETATM   25  C4  UNL     1      26.294  -0.037  53.644  1.00  0.00    -0.047 C 
HETATM   26  C3  UNL     1      27.002   0.425  54.864  1.00  0.00     0.070 C 
HETATM   27  C2  UNL     1      28.475   0.149  54.833  1.00  0.00     0.122 C 
HETATM   28  C1  UNL     1      29.269   1.302  54.232  1.00  0.00     0.040 C 
HETATM   29  O4  UNL     1      28.830  -1.079  54.333  1.00  0.00    -0.382 OA
HETATM   30  C22 UNL     1      28.352  -1.316  53.052  1.00  0.00     0.196 C 
HETATM   31  C21 UNL     1      26.980  -0.841  52.851  1.00  0.00     0.007 C 
ENDBRANCH   1  25
TORSDOF 7
ENDMDL
MODEL 2
REMARK VINA RESULT:      -8.8      2.035      6.231
REMARK  7 active torsions:
REMARK  status: ('A' for Active; 'I' for Inactive)
REMARK    1  A    between atoms: C4_4  and  C5_5 
REMARK    2  A    between atoms: C13_15  and  C14_16 
REMARK    3  A    between atoms: C14_16  and  N2_17 
REMARK    4  A    between atoms: N2_17  and  C15_18 
REMARK    5  A    between atoms: C18_21  and  C19_22 
REMARK    6  A    between atoms: C19_22  and  C20_23 
REMARK    7  A    between atoms: C20_23  and  O3_25 
ROOT
HETATM    1  C5  UNL     1      25.475   4.189  49.890  1.00  0.00    -0.028 A 
HETATM    2  C6  UNL     1      25.606   3.622  51.131  1.00  0.00     0.013 A 
HETATM    3  C7  UNL     1      24.678   2.708  51.587  1.00  0.00     0.015 A 
HETATM    4  C8  UNL     1      23.594   2.313  50.858  1.00  0.00     0.006 A 
HETATM    5  C9  UNL     1      23.488   2.899  49.617  1.00  0.00     0.047 A 
HETATM    6  C10 UNL     1      24.391   3.815  49.124  1.00  0.00     0.042 A 
HETATM    7  N1  UNL     1      22.306   2.340  49.062  1.00  0.00    -0.322 N 
HETATM    8  C11 UNL     1      21.666   1.416  49.927  1.00  0.00     0.256 A 
HETATM    9  O1  UNL     1      20.608   0.776  49.693  1.00  0.00    -0.267 OA
HETATM   10  C12 UNL     1      22.503   1.386  51.120  1.00  0.00     0.042 A 
HETATM   11  C13 UNL     1      22.251   0.640  52.176  1.00  0.00     0.010 C 
HETATM   12  H10 UNL     1      21.914   2.557  48.123  1.00  0.00     0.169 HD
ENDROOT
BRANCH  11  13
HETATM   13  C14 UNL     1      22.741   0.288  53.501  1.00  0.00     0.147 C 
BRANCH  13  14
HETATM   14  N2  UNL     1      23.652  -0.862  53.369  1.00  0.00    -0.395 N 
HETATM   15  H14 UNL     1      23.421  -1.774  52.907  1.00  0.00     0.159 HD
BRANCH  14  16
HETATM   16  C15 UNL     1      24.973  -0.788  53.890  1.00  0.00     0.095 C 
HETATM   17  C16 UNL     1      25.984  -0.529  53.076  1.00  0.00    -0.014 A 
HETATM   18  C17 UNL     1      26.701  -0.236  51.844  1.00  0.00     0.022 A 
HETATM   19  C18 UNL     1      27.426  -0.331  52.935  1.00  0.00    -0.036 A 
BRANCH  19  20
HETATM   20  C19 UNL     1      28.761  -0.283  53.614  1.00  0.00     0.149 C 
BRANCH  20  21
HETATM   21  C20 UNL     1      29.007   1.152  53.955  1.00  0.00     0.143 C 
HETATM   22  O2  UNL     1      29.028   1.637  55.137  1.00  0.00    -0.650 OA
BRANCH  21  23
HETATM   23  O3  UNL     1      29.243   2.120  52.986  1.00  0.00    -0.776 OA
HETATM   24  H19 UNL     1      29.420   1.868  52.023  1.00  0.00     0.167 HD
ENDBRANCH  21  23
ENDBRANCH  20  21
ENDBRANCH  19  20
ENDBRANCH  14  16
ENDBRANCH  13  14
ENDBRANCH  11  13
BRANCH   1  25
HETATM   25  C4  UNL     1      26.411   5.161  49.341  1.00  0.00    -0.047 C 
HETATM   26  C3  UNL     1      26.156   6.614  49.497  1.00  0.00     0.070 C 
HETATM   27  C2  UNL     1      27.030   7.466  48.627  1.00  0.00     0.122 C 
HETATM   28  C1  UNL     1      26.399   7.749  47.269  1.00  0.00     0.040 C 
HETATM   29  O4  UNL     1      28.342   7.068  48.548  1.00  0.00    -0.382 OA
HETATM   30  C22 UNL     1      28.500   5.759  48.116  1.00  0.00     0.196 C 
HETATM   31  C21 UNL     1      27.516   4.839  48.691  1.00  0.00     0.007 C 
ENDBRANCH   1  25
TORSDOF 7
ENDMDL
MODEL 3
REMARK VINA RESULT:      -8.7      2.924      7.055
REMARK  7 active torsions:
REMARK  status: ('A' for Active; 'I' for Inactive)
REMARK    1  A    between atoms: C4_4  and  C5_5 
REMARK    2  A    between atoms: C13_15  and  C14_16 
REMARK    3  A    between atoms: C14_16  and  N2_17 
REMARK    4  A    between atoms: N2_17  and  C15_18 
REMARK    5  A    between atoms: C18_21  and  C19_22 
REMARK    6  A    between atoms: C19_22  and  C20_23 
REMARK    7  A    between atoms: C20_23  and  O3_25 
ROOT
HETATM    1  C5  UNL     1      27.215   5.565  48.581  1.00  0.00    -0.028 A 
HETATM    2  C6  UNL     1      27.141   4.306  49.115  1.00  0.00     0.013 A 
HETATM    3  C7  UNL     1      25.929   3.784  49.520  1.00  0.00     0.015 A 
HETATM    4  C8  UNL     1      24.750   4.464  49.420  1.00  0.00     0.006 A 
HETATM    5  C9  UNL     1      24.855   5.725  48.880  1.00  0.00     0.047 A 
HETATM    6  C10 UNL     1      26.043   6.284  48.464  1.00  0.00     0.042 A 
HETATM    7  N1  UNL     1      23.523   6.221  48.880  1.00  0.00    -0.322 N 
HETATM    8  C11 UNL     1      22.584   5.299  49.409  1.00  0.00     0.256 A 
HETATM    9  O1  UNL     1      21.344   5.475  49.528  1.00  0.00    -0.267 OA
HETATM   10  C12 UNL     1      23.377   4.131  49.771  1.00  0.00     0.042 A 
HETATM   11  C13 UNL     1      22.872   3.037  50.304  1.00  0.00     0.010 C 
HETATM   12  H10 UNL     1      23.224   7.157  48.538  1.00  0.00     0.169 HD
ENDROOT
BRANCH  11  13
HETATM   13  C14 UNL     1      23.220   1.713  50.800  1.00  0.00     0.147 C 
BRANCH  13  14
HETATM   14  N2  UNL     1      23.343   1.785  52.266  1.00  0.00    -0.395 N 
HETATM   15  H14 UNL     1      22.610   1.494  52.956  1.00  0.00     0.159 HD
BRANCH  14  16
HETATM   16  C15 UNL     1      24.538   2.282  52.857  1.00  0.00     0.095 C 
HETATM   17  C16 UNL     1      25.705   1.769  52.505  1.00  0.00    -0.014 A 
HETATM   18  C17 UNL     1      26.670   0.921  51.821  1.00  0.00     0.022 A 
HETATM   19  C18 UNL     1      27.157   1.787  52.679  1.00  0.00    -0.036 A 
BRANCH  19  20
HETATM   20  C19 UNL     1      28.332   2.401  53.378  1.00  0.00     0.149 C 
BRANCH  20  21
HETATM   21  C20 UNL     1      29.039   1.280  54.072  1.00  0.00     0.143 C 
HETATM   22  O2  UNL     1      28.788   0.869  55.255  1.00  0.00    -0.650 OA
BRANCH  21  23
HETATM   23  O3  UNL     1      30.067   0.562  53.473  1.00  0.00    -0.776 OA
HETATM   24  H19 UNL     1      30.736   0.040  54.023  1.00  0.00     0.167 HD
ENDBRANCH  21  23
ENDBRANCH  20  21
ENDBRANCH  19  20
ENDBRANCH  14  16
ENDBRANCH  13  14
ENDBRANCH  11  13
BRANCH   1  25
HETATM   25  C4  UNL     1      28.456   6.184  48.133  1.00  0.00    -0.047 C 
HETATM   26  C3  UNL     1      29.711   5.393  48.091  1.00  0.00     0.070 C 
HETATM   27  C2  UNL     1      30.936   6.237  47.908  1.00  0.00     0.122 C 
HETATM   28  C1  UNL     1      31.544   6.675  49.236  1.00  0.00     0.040 C 
HETATM   29  O4  UNL     1      30.812   7.260  47.001  1.00  0.00    -0.382 OA
HETATM   30  C22 UNL     1      29.766   8.127  47.281  1.00  0.00     0.196 C 
HETATM   31  C21 UNL     1      28.557   7.442  47.743  1.00  0.00     0.007 C 
ENDBRANCH   1  25
TORSDOF 7
ENDMDL
MODEL 4
REMARK VINA RESULT:      -8.5      3.105      6.002
REMARK  7 active torsions:
REMARK  status: ('A' for Active; 'I' for Inactive)
REMARK    1  A    between atoms: C4_4  and  C5_5 
REMARK    2  A    between atoms: C13_15  and  C14_16 
REMARK    3  A    between atoms: C14_16  and  N2_17 
REMARK    4  A    between atoms: N2_17  and  C15_18 
REMARK    5  A    between atoms: C18_21  and  C19_22 
REMARK    6  A    between atoms: C19_22  and  C20_23 
REMARK    7  A    between atoms: C20_23  and  O3_25 
ROOT
HETATM    1  C5  UNL     1      24.775   0.243  53.461  1.00  0.00    -0.028 A 
HETATM    2  C6  UNL     1      24.361   1.454  52.972  1.00  0.00     0.013 A 
HETATM    3  C7  UNL     1      23.019   1.715  52.785  1.00  0.00     0.015 A 
HETATM    4  C8  UNL     1      22.035   0.813  53.066  1.00  0.00     0.006 A 
HETATM    5  C9  UNL     1      22.479  -0.394  53.556  1.00  0.00     0.047 A 
HETATM    6  C10 UNL     1      23.808  -0.695  53.757  1.00  0.00     0.042 A 
HETATM    7  N1  UNL     1      21.294  -1.148  53.767  1.00  0.00    -0.322 N 
HETATM    8  C11 UNL     1      20.114  -0.441  53.421  1.00  0.00     0.256 A 
HETATM    9  O1  UNL     1      18.932  -0.865  53.506  1.00  0.00    -0.267 OA
HETATM   10  C12 UNL     1      20.584   0.857  52.955  1.00  0.00     0.042 A 
HETATM   11  C13 UNL     1      19.787   1.819  52.536  1.00  0.00     0.010 C 
HETATM   12  H10 UNL     1      21.250  -2.120  54.136  1.00  0.00     0.169 HD
ENDROOT
BRANCH  11  13
HETATM   13  C14 UNL     1      19.773   3.179  52.016  1.00  0.00     0.147 C 
BRANCH  13  14
HETATM   14  N2  UNL     1      18.747   3.261  50.962  1.00  0.00    -0.395 N 
HETATM   15  H14 UNL     1      18.820   2.843  50.004  1.00  0.00     0.159 HD
BRANCH  14  16
HETATM   16  C15 UNL     1      17.529   3.954  51.206  1.00  0.00     0.095 C 
HETATM   17  C16 UNL     1      16.456   3.279  51.586  1.00  0.00    -0.014 A 
HETATM   18  C17 UNL     1      15.620   2.148  51.960  1.00  0.00     0.022 A 
HETATM   19  C18 UNL     1      15.045   3.329  51.965  1.00  0.00    -0.036 A 
BRANCH  19  20
HETATM   20  C19 UNL     1      13.832   4.180  52.186  1.00  0.00     0.149 C 
BRANCH  20  21
HETATM   21  C20 UNL     1      13.734   4.396  53.663  1.00  0.00     0.143 C 
HETATM   22  O2  UNL     1      12.665   4.294  54.355  1.00  0.00    -0.650 OA
BRANCH  21  23
HETATM   23  O3  UNL     1      14.834   4.739  54.441  1.00  0.00    -0.776 OA
HETATM   24  H19 UNL     1      14.724   5.220  55.324  1.00  0.00     0.167 HD
ENDBRANCH  21  23
ENDBRANCH  20  21
ENDBRANCH  19  20
ENDBRANCH  14  16
ENDBRANCH  13  14
ENDBRANCH  11  13
BRANCH   1  25
HETATM   25  C4  UNL     1      26.172  -0.106  53.684  1.00  0.00    -0.047 C 
HETATM   26  C3  UNL     1      26.884   0.393  54.886  1.00  0.00     0.070 C 
HETATM   27  C2  UNL     1      28.369   0.207  54.814  1.00  0.00     0.122 C 
HETATM   28  C1  UNL     1      29.076   1.409  54.198  1.00  0.00     0.040 C 
HETATM   29  O4  UNL     1      28.785  -0.995  54.298  1.00  0.00    -0.382 OA
HETATM   30  C22 UNL     1      28.287  -1.257  53.030  1.00  0.00     0.196 C 
HETATM   31  C21 UNL     1      26.884  -0.864  52.869  1.00  0.00     0.007 C 
ENDBRANCH   1  25
TORSDOF 7
ENDMDL
MODEL 5
REMARK VINA RESULT:      -8.3      1.913      2.398
REMARK  7 active torsions:
REMARK  status: ('A' for Active; 'I' for Inactive)
REMARK    1  A    between atoms: C4_4  and  C5_5 
REMARK    2  A    between atoms: C13_15  and  C14_16 
REMARK    3  A    between atoms: C14_16  and  N2_17 
REMARK    4  A    between atoms: N2_17  and  C15_18 
REMARK    5  A    between atoms: C18_21  and  C19_22 
REMARK    6  A    between atoms: C19_22  and  C20_23 
REMARK    7  A    between atoms: C20_23  and  O3_25 
ROOT
HETATM    1  C5  UNL     1      24.929   0.897  52.638  1.00  0.00    -0.028 A 
HETATM    2  C6  UNL     1      24.250   1.562  51.651  1.00  0.00     0.013 A 
HETATM    3  C7  UNL     1      22.893   1.372  51.480  1.00  0.00     0.015 A 
HETATM    4  C8  UNL     1      22.151   0.533  52.259  1.00  0.00     0.006 A 
HETATM    5  C9  UNL     1      22.858  -0.121  53.241  1.00  0.00     0.047 A 
HETATM    6  C10 UNL     1      24.211   0.039  53.446  1.00  0.00     0.042 A 
HETATM    7  N1  UNL     1      21.888  -0.919  53.905  1.00  0.00    -0.322 N 
HETATM    8  C11 UNL     1      20.585  -0.781  53.360  1.00  0.00     0.256 A 
HETATM    9  O1  UNL     1      19.542  -1.366  53.750  1.00  0.00    -0.267 OA
HETATM   10  C12 UNL     1      20.740   0.175  52.271  1.00  0.00     0.042 A 
HETATM   11  C13 UNL     1      19.749   0.579  51.502  1.00  0.00     0.010 C 
HETATM   12  H10 UNL     1      22.070  -1.552  54.710  1.00  0.00     0.169 HD
ENDROOT
BRANCH  11  13
HETATM   13  C14 UNL     1      19.422   1.444  50.378  1.00  0.00     0.147 C 
BRANCH  13  14
HETATM   14  N2  UNL     1      19.275   2.821  50.881  1.00  0.00    -0.395 N 
HETATM   15  H14 UNL     1      18.618   3.128  51.638  1.00  0.00     0.159 HD
BRANCH  14  16
HETATM   16  C15 UNL     1      20.065   3.869  50.333  1.00  0.00     0.095 C 
HETATM   17  C16 UNL     1      21.001   4.439  51.073  1.00  0.00    -0.014 A 
HETATM   18  C17 UNL     1      21.844   4.717  52.226  1.00  0.00     0.022 A 
HETATM   19  C18 UNL     1      22.057   5.446  51.155  1.00  0.00    -0.036 A 
BRANCH  19  20
HETATM   20  C19 UNL     1      22.814   6.535  50.456  1.00  0.00     0.149 C 
BRANCH  20  21
HETATM   21  C20 UNL     1      24.185   6.543  51.053  1.00  0.00     0.143 C 
HETATM   22  O2  UNL     1      25.269   6.321  50.416  1.00  0.00    -0.650 OA
BRANCH  21  23
HETATM   23  O3  UNL     1      24.411   6.803  52.400  1.00  0.00    -0.776 OA
HETATM   24  H19 UNL     1      24.500   6.053  53.073  1.00  0.00     0.167 HD
ENDBRANCH  21  23
ENDBRANCH  20  21
ENDBRANCH  19  20
ENDBRANCH  14  16
ENDBRANCH  13  14
ENDBRANCH  11  13
BRANCH   1  25
HETATM   25  C4  UNL     1      26.358   1.045  52.879  1.00  0.00    -0.047 C 
HETATM   26  C3  UNL     1      27.248  -0.142  52.839  1.00  0.00     0.070 C 
HETATM   27  C2  UNL     1      28.612   0.122  53.400  1.00  0.00     0.122 C 
HETATM   28  C1  UNL     1      28.692  -0.173  54.894  1.00  0.00     0.040 C 
HETATM   29  O4  UNL     1      29.165   1.328  53.051  1.00  0.00    -0.382 OA
HETATM   30  C22 UNL     1      28.376   2.419  53.386  1.00  0.00     0.196 C 
HETATM   31  C21 UNL     1      26.950   2.198  53.138  1.00  0.00     0.007 C 
ENDBRANCH   1  25
TORSDOF 7
ENDMDL
MODEL 6
REMARK VINA RESULT:      -8.2      3.435      6.438
REMARK  7 active torsions:
REMARK  status: ('A' for Active; 'I' for Inactive)
REMARK    1  A    between atoms: C4_4  and  C5_5 
REMARK    2  A    between atoms: C13_15  and  C14_16 
REMARK    3  A    between atoms: C14_16  and  N2_17 
REMARK    4  A    between atoms: N2_17  and  C15_18 
REMARK    5  A    between atoms: C18_21  and  C19_22 
REMARK    6  A    between atoms: C19_22  and  C20_23 
REMARK    7  A    between atoms: C20_23  and  O3_25 
ROOT
HETATM    1  C5  UNL     1      24.572   0.241  53.220  1.00  0.00    -0.028 A 
HETATM    2  C6  UNL     1      23.554  -0.675  53.227  1.00  0.00     0.013 A 
HETATM    3  C7  UNL     1      22.261  -0.291  52.936  1.00  0.00     0.015 A 
HETATM    4  C8  UNL     1      21.912   0.991  52.627  1.00  0.00     0.006 A 
HETATM    5  C9  UNL     1      22.954   1.889  52.627  1.00  0.00     0.047 A 
HETATM    6  C10 UNL     1      24.258   1.549  52.913  1.00  0.00     0.042 A 
HETATM    7  N1  UNL     1      22.352   3.130  52.284  1.00  0.00    -0.322 N 
HETATM    8  C11 UNL     1      20.954   3.031  52.069  1.00  0.00     0.256 A 
HETATM    9  O1  UNL     1      20.174   3.967  51.755  1.00  0.00    -0.267 OA
HETATM   10  C12 UNL     1      20.644   1.624  52.291  1.00  0.00     0.042 A 
HETATM   11  C13 UNL     1      19.435   1.112  52.187  1.00  0.00     0.010 C 
HETATM   12  H10 UNL     1      22.847   4.040  52.189  1.00  0.00     0.169 HD
ENDROOT
BRANCH  11  13
HETATM   13  C14 UNL     1      18.677  -0.126  52.302  1.00  0.00     0.147 C 
BRANCH  13  14
HETATM   14  N2  UNL     1      17.567  -0.082  51.334  1.00  0.00    -0.395 N 
HETATM   15  H14 UNL     1      17.317  -0.841  50.656  1.00  0.00     0.159 HD
BRANCH  14  16
HETATM   16  C15 UNL     1      16.725   1.062  51.266  1.00  0.00     0.095 C 
HETATM   17  C16 UNL     1      15.648   1.129  52.032  1.00  0.00    -0.014 A 
HETATM   18  C17 UNL     1      14.651   0.739  53.017  1.00  0.00     0.022 A 
HETATM   19  C18 UNL     1      14.476   1.904  52.436  1.00  0.00    -0.036 A 
BRANCH  19  20
HETATM   20  C19 UNL     1      13.679   3.161  52.264  1.00  0.00     0.149 C 
BRANCH  20  21
HETATM   21  C20 UNL     1      14.106   4.082  53.363  1.00  0.00     0.143 C 
HETATM   22  O2  UNL     1      13.319   4.777  54.091  1.00  0.00    -0.650 OA
BRANCH  21  23
HETATM   23  O3  UNL     1      15.441   4.271  53.701  1.00  0.00    -0.776 OA
HETATM   24  H19 UNL     1      16.142   4.453  52.996  1.00  0.00     0.167 HD
ENDBRANCH  21  23
ENDBRANCH  20  21
ENDBRANCH  19  20
ENDBRANCH  14  16
ENDBRANCH  13  14
ENDBRANCH  11  13
BRANCH   1  25
HETATM   25  C4  UNL     1      25.960  -0.087  53.518  1.00  0.00    -0.047 C 
HETATM   26  C3  UNL     1      26.613   0.465  54.731  1.00  0.00     0.070 C 
HETATM   27  C2  UNL     1      28.102   0.289  54.733  1.00  0.00     0.122 C 
HETATM   28  C1  UNL     1      28.828   1.471  54.102  1.00  0.00     0.040 C 
HETATM   29  O4  UNL     1      28.548  -0.929  54.284  1.00  0.00    -0.382 OA
HETATM   30  C22 UNL     1      28.110  -1.244  53.006  1.00  0.00     0.196 C 
HETATM   31  C21 UNL     1      26.713  -0.871  52.767  1.00  0.00     0.007 C 
ENDBRANCH   1  25
TORSDOF 7
ENDMDL
MODEL 7
REMARK VINA RESULT:      -8.1      2.008      5.173
REMARK  7 active torsions:
REMARK  status: ('A' for Active; 'I' for Inactive)
REMARK    1  A    between atoms: C4_4  and  C5_5 
REMARK    2  A    between atoms: C13_15  and  C14_16 
REMARK    3  A    between atoms: C14_16  and  N2_17 
REMARK    4  A    between atoms: N2_17  and  C15_18 
REMARK    5  A    between atoms: C18_21  and  C19_22 
REMARK    6  A    between atoms: C19_22  and  C20_23 
REMARK    7  A    between atoms: C20_23  and  O3_25 
ROOT
HETATM    1  C5  UNL     1      25.770   1.346  51.910  1.00  0.00    -0.028 A 
HETATM    2  C6  UNL     1      24.413   1.158  51.921  1.00  0.00     0.013 A 
HETATM    3  C7  UNL     1      23.581   2.002  51.213  1.00  0.00     0.015 A 
HETATM    4  C8  UNL     1      24.035   3.054  50.473  1.00  0.00     0.006 A 
HETATM    5  C9  UNL     1      25.401   3.219  50.481  1.00  0.00     0.047 A 
HETATM    6  C10 UNL     1      26.267   2.401  51.173  1.00  0.00     0.042 A 
HETATM    7  N1  UNL     1      25.625   4.355  49.658  1.00  0.00    -0.322 N 
HETATM    8  C11 UNL     1      24.429   4.908  49.132  1.00  0.00     0.256 A 
HETATM    9  O1  UNL     1      24.333   5.910  48.377  1.00  0.00    -0.267 OA
HETATM   10  C12 UNL     1      23.367   4.061  49.661  1.00  0.00     0.042 A 
HETATM   11  C13 UNL     1      22.088   4.241  49.404  1.00  0.00     0.010 C 
HETATM   12  H10 UNL     1      26.553   4.771  49.436  1.00  0.00     0.169 HD
ENDROOT
BRANCH  11  13
HETATM   13  C14 UNL     1      20.758   3.712  49.672  1.00  0.00     0.147 C 
BRANCH  13  14
HETATM   14  N2  UNL     1      20.356   4.132  51.025  1.00  0.00    -0.395 N 
HETATM   15  H14 UNL     1      20.263   5.122  51.356  1.00  0.00     0.159 HD
BRANCH  14  16
HETATM   16  C15 UNL     1      20.052   3.155  52.014  1.00  0.00     0.095 C 
HETATM   17  C16 UNL     1      20.084   1.871  51.697  1.00  0.00    -0.014 A 
HETATM   18  C17 UNL     1      20.249   0.670  50.891  1.00  0.00     0.022 A 
HETATM   19  C18 UNL     1      19.907   0.491  52.146  1.00  0.00    -0.036 A 
BRANCH  19  20
HETATM   20  C19 UNL     1      19.566  -0.428  53.279  1.00  0.00     0.149 C 
BRANCH  20  21
HETATM   21  C20 UNL     1      20.816  -0.581  54.086  1.00  0.00     0.143 C 
HETATM   22  O2  UNL     1      21.804   0.229  54.078  1.00  0.00    -0.650 OA
BRANCH  21  23
HETATM   23  O3  UNL     1      21.023  -1.654  54.946  1.00  0.00    -0.776 OA
HETATM   24  H19 UNL     1      21.670  -2.396  54.716  1.00  0.00     0.167 HD
ENDBRANCH  21  23
ENDBRANCH  20  21
ENDBRANCH  19  20
ENDBRANCH  14  16
ENDBRANCH  13  14
ENDBRANCH  11  13
BRANCH   1  25
HETATM   25  C4  UNL     1      26.711   0.499  52.632  1.00  0.00    -0.047 C 
HETATM   26  C3  UNL     1      27.487   1.049  53.770  1.00  0.00     0.070 C 
HETATM   27  C2  UNL     1      28.615   0.160  54.202  1.00  0.00     0.122 C 
HETATM   28  C1  UNL     1      29.917   0.480  53.476  1.00  0.00     0.040 C 
HETATM   29  O4  UNL     1      28.323  -1.181  54.235  1.00  0.00    -0.382 OA
HETATM   30  C22 UNL     1      27.861  -1.679  53.025  1.00  0.00     0.196 C 
HETATM   31  C21 UNL     1      26.935  -0.771  52.344  1.00  0.00     0.007 C 
ENDBRANCH   1  25
TORSDOF 7
ENDMDL
MODEL 8
REMARK VINA RESULT:      -8.1      3.415      7.326
REMARK  7 active torsions:
REMARK  status: ('A' for Active; 'I' for Inactive)
REMARK    1  A    between atoms: C4_4  and  C5_5 
REMARK    2  A    between atoms: C13_15  and  C14_16 
REMARK    3  A    between atoms: C14_16  and  N2_17 
REMARK    4  A    between atoms: N2_17  and  C15_18 
REMARK    5  A    between atoms: C18_21  and  C19_22 
REMARK    6  A    between atoms: C19_22  and  C20_23 
REMARK    7  A    between atoms: C20_23  and  O3_25 
ROOT
HETATM    1  C5  UNL     1      19.213  -0.039  51.678  1.00  0.00    -0.028 A 
HETATM    2  C6  UNL     1      20.346   0.443  51.077  1.00  0.00     0.013 A 
HETATM    3  C7  UNL     1      21.575   0.325  51.695  1.00  0.00     0.015 A 
HETATM    4  C8  UNL     1      21.746  -0.264  52.914  1.00  0.00     0.006 A 
HETATM    5  C9  UNL     1      20.591  -0.737  53.494  1.00  0.00     0.047 A 
HETATM    6  C10 UNL     1      19.347  -0.639  52.913  1.00  0.00     0.042 A 
HETATM    7  N1  UNL     1      21.019  -1.293  54.730  1.00  0.00    -0.322 N 
HETATM    8  C11 UNL     1      22.417  -1.178  54.939  1.00  0.00     0.256 A 
HETATM    9  O1  UNL     1      23.062  -1.582  55.941  1.00  0.00    -0.267 OA
HETATM   10  C12 UNL     1      22.915  -0.500  53.749  1.00  0.00     0.042 A 
HETATM   11  C13 UNL     1      24.182  -0.201  53.550  1.00  0.00     0.010 C 
HETATM   12  H10 UNL     1      20.405  -1.746  55.437  1.00  0.00     0.169 HD
ENDROOT
BRANCH  11  13
HETATM   13  C14 UNL     1      25.100   0.420  52.606  1.00  0.00     0.147 C 
BRANCH  13  14
HETATM   14  N2  UNL     1      25.358   1.801  53.049  1.00  0.00    -0.395 N 
HETATM   15  H14 UNL     1      26.282   2.177  53.371  1.00  0.00     0.159 HD
BRANCH  14  16
HETATM   16  C15 UNL     1      24.302   2.754  53.064  1.00  0.00     0.095 C 
HETATM   17  C16 UNL     1      23.717   3.100  51.930  1.00  0.00    -0.014 A 
HETATM   18  C17 UNL     1      23.422   3.138  50.505  1.00  0.00     0.022 A 
HETATM   19  C18 UNL     1      22.695   3.916  51.275  1.00  0.00    -0.036 A 
BRANCH  19  20
HETATM   20  C19 UNL     1      21.601   4.927  51.433  1.00  0.00     0.149 C 
BRANCH  20  21
HETATM   21  C20 UNL     1      20.324   4.154  51.517  1.00  0.00     0.143 C 
HETATM   22  O2  UNL     1      19.441   4.085  50.597  1.00  0.00    -0.650 OA
BRANCH  21  23
HETATM   23  O3  UNL     1      19.970   3.417  52.642  1.00  0.00    -0.776 OA
HETATM   24  H19 UNL     1      19.016   3.124  52.800  1.00  0.00     0.167 HD
ENDBRANCH  21  23
ENDBRANCH  20  21
ENDBRANCH  19  20
ENDBRANCH  14  16
ENDBRANCH  13  14
ENDBRANCH  11  13
BRANCH   1  25
HETATM   25  C4  UNL     1      17.883   0.050  51.090  1.00  0.00    -0.047 C 
HETATM   26  C3  UNL     1      17.661   0.862  49.868  1.00  0.00     0.070 C 
HETATM   27  C2  UNL     1      16.211   1.099  49.571  1.00  0.00     0.122 C 
HETATM   28  C1  UNL     1      15.686   2.375  50.218  1.00  0.00     0.040 C 
HETATM   29  O4  UNL     1      15.390   0.015  49.757  1.00  0.00    -0.382 OA
HETATM   30  C22 UNL     1      15.455  -0.518  51.036  1.00  0.00     0.196 C 
HETATM   31  C21 UNL     1      16.817  -0.561  51.575  1.00  0.00     0.007 C 
ENDBRANCH   1  25
TORSDOF 7
ENDMDL
MODEL 9
REMARK VINA RESULT:      -8.0      3.091      6.964
REMARK  7 active torsions:
REMARK  status: ('A' for Active; 'I' for Inactive)
REMARK    1  A    between atoms: C4_4  and  C5_5 
REMARK    2  A    between atoms: C13_15  and  C14_16 
REMARK    3  A    between atoms: C14_16  and  N2_17 
REMARK    4  A    between atoms: N2_17  and  C15_18 
REMARK    5  A    between atoms: C18_21  and  C19_22 
REMARK    6  A    between atoms: C19_22  and  C20_23 
REMARK    7  A    between atoms: C20_23  and  O3_25 
ROOT
HETATM    1  C5  UNL     1      19.567   0.370  51.383  1.00  0.00    -0.028 A 
HETATM    2  C6  UNL     1      20.799   0.670  50.863  1.00  0.00     0.013 A 
HETATM    3  C7  UNL     1      21.949   0.375  51.565  1.00  0.00     0.015 A 
HETATM    4  C8  UNL     1      21.945  -0.221  52.793  1.00  0.00     0.006 A 
HETATM    5  C9  UNL     1      20.695  -0.510  53.290  1.00  0.00     0.047 A 
HETATM    6  C10 UNL     1      19.523  -0.232  52.623  1.00  0.00     0.042 A 
HETATM    7  N1  UNL     1      20.947  -1.112  54.552  1.00  0.00    -0.322 N 
HETATM    8  C11 UNL     1      22.329  -1.207  54.859  1.00  0.00     0.256 A 
HETATM    9  O1  UNL     1      22.835  -1.693  55.903  1.00  0.00    -0.267 OA
HETATM   10  C12 UNL     1      23.004  -0.622  53.707  1.00  0.00     0.042 A 
HETATM   11  C13 UNL     1      24.313  -0.518  53.598  1.00  0.00     0.010 C 
HETATM   12  H10 UNL     1      20.224  -1.462  55.214  1.00  0.00     0.169 HD
ENDROOT
BRANCH  11  13
HETATM   13  C14 UNL     1      25.377  -0.051  52.722  1.00  0.00     0.147 C 
BRANCH  13  14
HETATM   14  N2  UNL     1      25.686   1.347  53.071  1.00  0.00    -0.395 N 
HETATM   15  H14 UNL     1      26.018   1.684  54.006  1.00  0.00     0.159 HD
BRANCH  14  16
HETATM   16  C15 UNL     1      25.541   2.373  52.097  1.00  0.00     0.095 C 
HETATM   17  C16 UNL     1      24.465   3.143  52.111  1.00  0.00    -0.014 A 
HETATM   18  C17 UNL     1      23.179   3.678  52.533  1.00  0.00     0.022 A 
HETATM   19  C18 UNL     1      23.741   4.253  51.494  1.00  0.00    -0.036 A 
BRANCH  19  20
HETATM   20  C19 UNL     1      23.716   5.292  50.414  1.00  0.00     0.149 C 
BRANCH  20  21
HETATM   21  C20 UNL     1      24.317   6.527  51.007  1.00  0.00     0.143 C 
HETATM   22  O2  UNL     1      24.827   7.491  50.342  1.00  0.00    -0.650 OA
BRANCH  21  23
HETATM   23  O3  UNL     1      24.376   6.744  52.378  1.00  0.00    -0.776 OA
HETATM   24  H19 UNL     1      25.158   6.418  52.929  1.00  0.00     0.167 HD
ENDBRANCH  21  23
ENDBRANCH  20  21
ENDBRANCH  19  20
ENDBRANCH  14  16
ENDBRANCH  13  14
ENDBRANCH  11  13
BRANCH   1  25
HETATM   25  C4  UNL     1      18.310   0.652  50.702  1.00  0.00    -0.047 C 
HETATM   26  C3  UNL     1      17.081  -0.096  51.065  1.00  0.00     0.070 C 
HETATM   27  C2  UNL     1      15.965   0.088  50.082  1.00  0.00     0.122 C 
HETATM   28  C1  UNL     1      15.984  -0.962  48.977  1.00  0.00     0.040 C 
HETATM   29  O4  UNL     1      15.800   1.368  49.616  1.00  0.00    -0.382 OA
HETATM   30  C22 UNL     1      16.941   1.897  49.029  1.00  0.00     0.196 C 
HETATM   31  C21 UNL     1      18.170   1.560  49.752  1.00  0.00     0.007 C 
ENDBRANCH   1  25
TORSDOF 7
ENDMDL
