MODEL 1
REMARK VINA RESULT:      -7.7      0.000      0.000
REMARK  5 active torsions:
REMARK  status: ('A' for Active; 'I' for Inactive)
REMARK    1  A    between atoms: C2_2  and  C3_3 
REMARK    2  A    between atoms: C5_5  and  C6_6 
REMARK    3  A    between atoms: N2_8  and  C7_9 
REMARK    4  A    between atoms: C8_11  and  O1_12 
REMARK    5  A    between atoms: C10_15  and  C11_16 
ROOT
HETATM    1  C6  UNL     1      26.263   3.453  49.991  1.00  0.00     0.058 C 
HETATM    2  N1  UNL     1      26.783   2.794  50.947  1.00  0.00    -0.174 NA
HETATM    3  N2  UNL     1      25.883   2.014  51.652  1.00  0.00    -0.237 N 
HETATM    4  C10 UNL     1      24.637   2.721  51.455  1.00  0.00     0.151 C 
HETATM    5  C17 UNL     1      24.812   3.115  49.993  1.00  0.00     0.093 C 
ENDROOT
BRANCH   3   6
HETATM    6  C7  UNL     1      26.035   0.800  52.417  1.00  0.00     0.188 A 
HETATM    7  N3  UNL     1      26.706  -0.061  51.859  1.00  0.00    -0.222 NA
HETATM    8  C8  UNL     1      26.694  -1.089  52.785  1.00  0.00     0.318 A 
HETATM    9  S1  UNL     1      25.694  -0.093  53.866  1.00  0.00    -0.035 SA
BRANCH   8  10
HETATM   10  O1  UNL     1      27.933  -1.456  53.348  1.00  0.00    -0.360 OA
HETATM   11  C9  UNL     1      28.275  -2.755  52.976  1.00  0.00     0.205 C 
ENDBRANCH   8  10
ENDBRANCH   3   6
BRANCH   4  12
HETATM   12  C11 UNL     1      23.431   1.936  51.687  1.00  0.00    -0.033 A 
HETATM   13  C12 UNL     1      22.863   1.666  52.891  1.00  0.00     0.009 A 
HETATM   14  C13 UNL     1      21.707   0.914  53.098  1.00  0.00     0.001 A 
HETATM   15  C14 UNL     1      21.100   0.408  51.969  1.00  0.00     0.000 A 
HETATM   16  C15 UNL     1      21.605   0.631  50.703  1.00  0.00     0.001 A 
HETATM   17  C16 UNL     1      22.753   1.387  50.592  1.00  0.00     0.009 A 
ENDBRANCH   4  12
BRANCH   1  18
HETATM   18  C5  UNL     1      26.954   4.367  49.062  1.00  0.00     0.035 C 
HETATM   19  C3  UNL     1      26.696   5.640  49.053  1.00  0.00    -0.064 C 
HETATM   20  C4  UNL     1      25.695   6.211  49.982  1.00  0.00     0.048 C 
BRANCH  19  21
HETATM   21  C2  UNL     1      27.419   6.493  48.101  1.00  0.00    -0.020 C 
HETATM   22  C1  UNL     1      28.717   6.306  47.968  1.00  0.00     0.031 C 
ENDBRANCH  19  21
ENDBRANCH   1  18
TORSDOF 5
ENDMDL
MODEL 2
REMARK VINA RESULT:      -7.5      2.564      6.968
REMARK  5 active torsions:
REMARK  status: ('A' for Active; 'I' for Inactive)
REMARK    1  A    between atoms: C2_2  and  C3_3 
REMARK    2  A    between atoms: C5_5  and  C6_6 
REMARK    3  A    between atoms: N2_8  and  C7_9 
REMARK    4  A    between atoms: C8_11  and  O1_12 
REMARK    5  A    between atoms: C10_15  and  C11_16 
ROOT
HETATM    1  C6  UNL     1      22.271   0.165  52.367  1.00  0.00     0.058 C 
HETATM    2  N1  UNL     1      22.724   1.266  51.916  1.00  0.00    -0.174 NA
HETATM    3  N2  UNL     1      24.082   1.443  52.114  1.00  0.00    -0.237 N 
HETATM    4  C10 UNL     1      24.333   0.638  53.288  1.00  0.00     0.151 C 
HETATM    5  C17 UNL     1      23.434  -0.550  52.963  1.00  0.00     0.093 C 
ENDROOT
BRANCH   3   6
HETATM    6  C7  UNL     1      25.079   2.206  51.403  1.00  0.00     0.188 A 
HETATM    7  N3  UNL     1      24.627   2.890  50.491  1.00  0.00    -0.222 NA
HETATM    8  C8  UNL     1      25.764   3.500  49.992  1.00  0.00     0.318 A 
HETATM    9  S1  UNL     1      26.745   2.651  51.207  1.00  0.00    -0.035 SA
BRANCH   8  10
HETATM   10  O1  UNL     1      25.834   4.904  50.097  1.00  0.00    -0.360 OA
HETATM   11  C9  UNL     1      26.384   5.456  48.941  1.00  0.00     0.205 C 
ENDBRANCH   8  10
ENDBRANCH   3   6
BRANCH   4  12
HETATM   12  C11 UNL     1      25.723   0.253  53.495  1.00  0.00    -0.033 A 
HETATM   13  C12 UNL     1      26.586   0.795  54.392  1.00  0.00     0.009 A 
HETATM   14  C13 UNL     1      27.915   0.415  54.580  1.00  0.00     0.001 A 
HETATM   15  C14 UNL     1      28.376  -0.604  53.774  1.00  0.00     0.000 A 
HETATM   16  C15 UNL     1      27.571  -1.216  52.834  1.00  0.00     0.001 A 
HETATM   17  C16 UNL     1      26.269  -0.776  52.716  1.00  0.00     0.009 A 
ENDBRANCH   4  12
BRANCH   1  18
HETATM   18  C5  UNL     1      20.877  -0.312  52.310  1.00  0.00     0.035 C 
HETATM   19  C3  UNL     1      20.116  -0.297  53.363  1.00  0.00    -0.064 C 
HETATM   20  C4  UNL     1      20.632   0.205  54.656  1.00  0.00     0.048 C 
BRANCH  19  21
HETATM   21  C2  UNL     1      18.738  -0.789  53.237  1.00  0.00    -0.020 C 
HETATM   22  C1  UNL     1      18.100  -0.552  52.108  1.00  0.00     0.031 C 
ENDBRANCH  19  21
ENDBRANCH   1  18
TORSDOF 5
ENDMDL
MODEL 3
REMARK VINA RESULT:      -7.4      3.989      6.036
REMARK  5 active torsions:
REMARK  status: ('A' for Active; 'I' for Inactive)
REMARK    1  A    between atoms: C2_2  and  C3_3 
REMARK    2  A    between atoms: C5_5  and  C6_6 
REMARK    3  A    between atoms: N2_8  and  C7_9 
REMARK    4  A    between atoms: C8_11  and  O1_12 
REMARK    5  A    between atoms: C10_15  and  C11_16 
ROOT
HETATM    1  C6  UNL     1      25.463   1.150  53.565  1.00  0.00     0.058 C 
HETATM    2  N1  UNL     1      25.170   2.232  52.959  1.00  0.00    -0.174 NA
HETATM    3  N2  UNL     1      23.863   2.294  52.512  1.00  0.00    -0.237 N 
HETATM    4  C10 UNL     1      23.528   0.899  52.333  1.00  0.00     0.151 C 
HETATM    5  C17 UNL     1      24.223   0.325  53.563  1.00  0.00     0.093 C 
ENDROOT
BRANCH   3   6
HETATM    6  C7  UNL     1      22.973   3.400  52.254  1.00  0.00     0.188 A 
HETATM    7  N3  UNL     1      23.546   4.465  52.051  1.00  0.00    -0.222 NA
HETATM    8  C8  UNL     1      22.489   5.331  51.837  1.00  0.00     0.318 A 
HETATM    9  S1  UNL     1      21.349   3.989  52.081  1.00  0.00    -0.035 SA
BRANCH   8  10
HETATM   10  O1  UNL     1      22.394   5.921  50.561  1.00  0.00    -0.360 OA
HETATM   11  C9  UNL     1      22.014   7.258  50.664  1.00  0.00     0.205 C 
ENDBRANCH   8  10
ENDBRANCH   3   6
BRANCH   4  12
HETATM   12  C11 UNL     1      22.102   0.599  52.300  1.00  0.00    -0.033 A 
HETATM   13  C12 UNL     1      21.320   0.519  51.193  1.00  0.00     0.009 A 
HETATM   14  C13 UNL     1      19.956   0.230  51.176  1.00  0.00     0.001 A 
HETATM   15  C14 UNL     1      19.365   0.007  52.402  1.00  0.00     0.000 A 
HETATM   16  C15 UNL     1      20.082   0.068  53.582  1.00  0.00     0.001 A 
HETATM   17  C16 UNL     1      21.427   0.360  53.504  1.00  0.00     0.009 A 
ENDBRANCH   4  12
BRANCH   1  18
HETATM   18  C5  UNL     1      26.764   0.786  54.154  1.00  0.00     0.035 C 
HETATM   19  C3  UNL     1      27.538  -0.093  53.589  1.00  0.00    -0.064 C 
HETATM   20  C4  UNL     1      27.129  -0.753  52.328  1.00  0.00     0.048 C 
BRANCH  19  21
HETATM   21  C2  UNL     1      28.819  -0.410  54.230  1.00  0.00    -0.020 C 
HETATM   22  C1  UNL     1      29.803  -0.841  53.465  1.00  0.00     0.031 C 
ENDBRANCH  19  21
ENDBRANCH   1  18
TORSDOF 5
ENDMDL
MODEL 4
REMARK VINA RESULT:      -7.3      3.509      5.815
REMARK  5 active torsions:
REMARK  status: ('A' for Active; 'I' for Inactive)
REMARK    1  A    between atoms: C2_2  and  C3_3 
REMARK    2  A    between atoms: C5_5  and  C6_6 
REMARK    3  A    between atoms: N2_8  and  C7_9 
REMARK    4  A    between atoms: C8_11  and  O1_12 
REMARK    5  A    between atoms: C10_15  and  C11_16 
ROOT
HETATM    1  C6  UNL     1      25.685   0.178  52.432  1.00  0.00     0.058 C 
HETATM    2  N1  UNL     1      24.562  -0.067  52.980  1.00  0.00    -0.174 NA
HETATM    3  N2  UNL     1      23.607   0.915  52.779  1.00  0.00    -0.237 N 
HETATM    4  C10 UNL     1      24.414   2.099  52.587  1.00  0.00     0.151 C 
HETATM    5  C17 UNL     1      25.535   1.493  51.748  1.00  0.00     0.093 C 
ENDROOT
BRANCH   3   6
HETATM    6  C7  UNL     1      22.166   0.881  52.751  1.00  0.00     0.188 A 
HETATM    7  N3  UNL     1      21.696  -0.238  52.569  1.00  0.00    -0.222 NA
HETATM    8  C8  UNL     1      20.335   0.009  52.586  1.00  0.00     0.318 A 
HETATM    9  S1  UNL     1      20.658   1.736  52.858  1.00  0.00    -0.035 SA
BRANCH   8  10
HETATM   10  O1  UNL     1      19.590  -0.591  53.621  1.00  0.00    -0.360 OA
HETATM   11  C9  UNL     1      18.371  -1.062  53.139  1.00  0.00     0.205 C 
ENDBRANCH   8  10
ENDBRANCH   3   6
BRANCH   4  12
HETATM   12  C11 UNL     1      23.746   3.207  51.918  1.00  0.00    -0.033 A 
HETATM   13  C12 UNL     1      23.273   4.337  52.504  1.00  0.00     0.009 A 
HETATM   14  C13 UNL     1      22.636   5.391  51.851  1.00  0.00     0.001 A 
HETATM   15  C14 UNL     1      22.481   5.258  50.487  1.00  0.00     0.000 A 
HETATM   16  C15 UNL     1      22.930   4.144  49.805  1.00  0.00     0.001 A 
HETATM   17  C16 UNL     1      23.550   3.150  50.532  1.00  0.00     0.009 A 
ENDBRANCH   4  12
BRANCH   1  18
HETATM   18  C5  UNL     1      26.892  -0.667  52.463  1.00  0.00     0.035 C 
HETATM   19  C3  UNL     1      27.775  -0.547  53.410  1.00  0.00    -0.064 C 
HETATM   20  C4  UNL     1      27.588   0.447  54.490  1.00  0.00     0.048 C 
BRANCH  19  21
HETATM   21  C2  UNL     1      28.955  -1.420  53.379  1.00  0.00    -0.020 C 
HETATM   22  C1  UNL     1      30.112  -0.907  53.747  1.00  0.00     0.031 C 
ENDBRANCH  19  21
ENDBRANCH   1  18
TORSDOF 5
ENDMDL
MODEL 5
REMARK VINA RESULT:      -7.3      2.478      6.632
REMARK  5 active torsions:
REMARK  status: ('A' for Active; 'I' for Inactive)
REMARK    1  A    between atoms: C2_2  and  C3_3 
REMARK    2  A    between atoms: C5_5  and  C6_6 
REMARK    3  A    between atoms: N2_8  and  C7_9 
REMARK    4  A    between atoms: C8_11  and  O1_12 
REMARK    5  A    between atoms: C10_15  and  C11_16 
ROOT
HETATM    1  C6  UNL     1      21.261  -0.052  53.141  1.00  0.00     0.058 C 
HETATM    2  N1  UNL     1      22.432  -0.546  53.072  1.00  0.00    -0.174 NA
HETATM    3  N2  UNL     1      23.382   0.319  52.559  1.00  0.00    -0.237 N 
HETATM    4  C10 UNL     1      22.590   1.191  51.721  1.00  0.00     0.151 C 
HETATM    5  C17 UNL     1      21.366   1.340  52.618  1.00  0.00     0.093 C 
ENDROOT
BRANCH   3   6
HETATM    6  C7  UNL     1      24.810   0.416  52.740  1.00  0.00     0.188 A 
HETATM    7  N3  UNL     1      25.157   0.550  53.909  1.00  0.00    -0.222 NA
HETATM    8  C8  UNL     1      26.535   0.616  53.800  1.00  0.00     0.318 A 
HETATM    9  S1  UNL     1      26.397   0.437  52.036  1.00  0.00    -0.035 SA
BRANCH   8  10
HETATM   10  O1  UNL     1      27.274  -0.416  54.411  1.00  0.00    -0.360 OA
HETATM   11  C9  UNL     1      28.498   0.063  54.873  1.00  0.00     0.205 C 
ENDBRANCH   8  10
ENDBRANCH   3   6
BRANCH   4  12
HETATM   12  C11 UNL     1      23.206   2.469  51.392  1.00  0.00    -0.033 A 
HETATM   13  C12 UNL     1      23.868   2.775  50.247  1.00  0.00     0.009 A 
HETATM   14  C13 UNL     1      24.453   4.005  49.945  1.00  0.00     0.001 A 
HETATM   15  C14 UNL     1      24.338   4.986  50.906  1.00  0.00     0.000 A 
HETATM   16  C15 UNL     1      23.682   4.767  52.102  1.00  0.00     0.001 A 
HETATM   17  C16 UNL     1      23.134   3.520  52.316  1.00  0.00     0.009 A 
ENDBRANCH   4  12
BRANCH   1  18
HETATM   18  C5  UNL     1      20.043  -0.717  53.639  1.00  0.00     0.035 C 
HETATM   19  C3  UNL     1      18.954  -0.748  52.930  1.00  0.00    -0.064 C 
HETATM   20  C4  UNL     1      18.909  -0.114  51.594  1.00  0.00     0.048 C 
BRANCH  19  21
HETATM   21  C2  UNL     1      17.777  -1.426  53.487  1.00  0.00    -0.020 C 
HETATM   22  C1  UNL     1      17.863  -2.720  53.721  1.00  0.00     0.031 C 
ENDBRANCH  19  21
ENDBRANCH   1  18
TORSDOF 5
ENDMDL
MODEL 6
REMARK VINA RESULT:      -7.0      2.800      7.096
REMARK  5 active torsions:
REMARK  status: ('A' for Active; 'I' for Inactive)
REMARK    1  A    between atoms: C2_2  and  C3_3 
REMARK    2  A    between atoms: C5_5  and  C6_6 
REMARK    3  A    between atoms: N2_8  and  C7_9 
REMARK    4  A    between atoms: C8_11  and  O1_12 
REMARK    5  A    between atoms: C10_15  and  C11_16 
ROOT
HETATM    1  C6  UNL     1      21.971   0.827  51.699  1.00  0.00     0.058 C 
HETATM    2  N1  UNL     1      22.358   1.931  51.197  1.00  0.00    -0.174 NA
HETATM    3  N2  UNL     1      23.701   2.202  51.392  1.00  0.00    -0.237 N 
HETATM    4  C10 UNL     1      23.993   1.473  52.605  1.00  0.00     0.151 C 
HETATM    5  C17 UNL     1      23.172   0.216  52.334  1.00  0.00     0.093 C 
ENDROOT
BRANCH   3   6
HETATM    6  C7  UNL     1      24.653   2.991  50.649  1.00  0.00     0.188 A 
HETATM    7  N3  UNL     1      24.192   4.031  50.192  1.00  0.00    -0.222 NA
HETATM    8  C8  UNL     1      25.285   4.578  49.545  1.00  0.00     0.318 A 
HETATM    9  S1  UNL     1      26.269   3.184  50.043  1.00  0.00    -0.035 SA
BRANCH   8  10
HETATM   10  O1  UNL     1      25.769   5.808  50.035  1.00  0.00    -0.360 OA
HETATM   11  C9  UNL     1      26.162   6.634  48.985  1.00  0.00     0.205 C 
ENDBRANCH   8  10
ENDBRANCH   3   6
BRANCH   4  12
HETATM   12  C11 UNL     1      25.403   1.186  52.836  1.00  0.00    -0.033 A 
HETATM   13  C12 UNL     1      26.093   0.109  52.381  1.00  0.00     0.009 A 
HETATM   14  C13 UNL     1      27.444  -0.151  52.609  1.00  0.00     0.001 A 
HETATM   15  C14 UNL     1      28.124   0.779  53.366  1.00  0.00     0.000 A 
HETATM   16  C15 UNL     1      27.505   1.905  53.872  1.00  0.00     0.001 A 
HETATM   17  C16 UNL     1      26.166   2.082  53.596  1.00  0.00     0.009 A 
ENDBRANCH   4  12
BRANCH   1  18
HETATM   18  C5  UNL     1      20.610   0.260  51.659  1.00  0.00     0.035 C 
HETATM   19  C3  UNL     1      19.931   0.063  52.750  1.00  0.00    -0.064 C 
HETATM   20  C4  UNL     1      20.509   0.406  54.068  1.00  0.00     0.048 C 
BRANCH  19  21
HETATM   21  C2  UNL     1      18.582  -0.506  52.638  1.00  0.00    -0.020 C 
HETATM   22  C1  UNL     1      18.289  -1.551  53.386  1.00  0.00     0.031 C 
ENDBRANCH  19  21
ENDBRANCH   1  18
TORSDOF 5
ENDMDL
MODEL 7
REMARK VINA RESULT:      -6.8      3.344      5.860
REMARK  5 active torsions:
REMARK  status: ('A' for Active; 'I' for Inactive)
REMARK    1  A    between atoms: C2_2  and  C3_3 
REMARK    2  A    between atoms: C5_5  and  C6_6 
REMARK    3  A    between atoms: N2_8  and  C7_9 
REMARK    4  A    between atoms: C8_11  and  O1_12 
REMARK    5  A    between atoms: C10_15  and  C11_16 
ROOT
HETATM    1  C6  UNL     1      26.614   1.669  51.862  1.00  0.00     0.058 C 
HETATM    2  N1  UNL     1      26.863   2.621  51.053  1.00  0.00    -0.174 NA
HETATM    3  N2  UNL     1      25.753   3.367  50.698  1.00  0.00    -0.237 N 
HETATM    4  C10 UNL     1      24.675   2.418  50.860  1.00  0.00     0.151 C 
HETATM    5  C17 UNL     1      25.150   1.727  52.133  1.00  0.00     0.093 C 
ENDROOT
BRANCH   3   6
HETATM    6  C7  UNL     1      25.596   4.734  50.264  1.00  0.00     0.188 A 
HETATM    7  N3  UNL     1      26.253   5.020  49.269  1.00  0.00    -0.222 NA
HETATM    8  C8  UNL     1      25.926   6.350  49.074  1.00  0.00     0.318 A 
HETATM    9  S1  UNL     1      24.865   6.291  50.499  1.00  0.00    -0.035 SA
BRANCH   8  10
HETATM   10  O1  UNL     1      25.246   6.674  47.883  1.00  0.00    -0.360 OA
HETATM   11  C9  UNL     1      25.791   7.817  47.302  1.00  0.00     0.205 C 
ENDBRANCH   8  10
ENDBRANCH   3   6
BRANCH   4  12
HETATM   12  C11 UNL     1      23.346   3.001  50.997  1.00  0.00    -0.033 A 
HETATM   13  C12 UNL     1      22.798   3.502  52.133  1.00  0.00     0.009 A 
HETATM   14  C13 UNL     1      21.525   4.059  52.250  1.00  0.00     0.001 A 
HETATM   15  C14 UNL     1      20.769   4.095  51.098  1.00  0.00     0.000 A 
HETATM   16  C15 UNL     1      21.243   3.609  49.895  1.00  0.00     0.001 A 
HETATM   17  C16 UNL     1      22.514   3.076  49.872  1.00  0.00     0.009 A 
ENDBRANCH   4  12
BRANCH   1  18
HETATM   18  C5  UNL     1      27.577   0.704  52.423  1.00  0.00     0.035 C 
HETATM   19  C3  UNL     1      28.494   1.079  53.265  1.00  0.00    -0.064 C 
HETATM   20  C4  UNL     1      28.593   2.494  53.687  1.00  0.00     0.048 C 
BRANCH  19  21
HETATM   21  C2  UNL     1      29.421   0.067  53.784  1.00  0.00    -0.020 C 
HETATM   22  C1  UNL     1      29.252  -1.182  53.398  1.00  0.00     0.031 C 
ENDBRANCH  19  21
ENDBRANCH   1  18
TORSDOF 5
ENDMDL
MODEL 8
REMARK VINA RESULT:      -6.5      4.479      8.581
REMARK  5 active torsions:
REMARK  status: ('A' for Active; 'I' for Inactive)
REMARK    1  A    between atoms: C2_2  and  C3_3 
REMARK    2  A    between atoms: C5_5  and  C6_6 
REMARK    3  A    between atoms: N2_8  and  C7_9 
REMARK    4  A    between atoms: C8_11  and  O1_12 
REMARK    5  A    between atoms: C10_15  and  C11_16 
ROOT
HETATM    1  C6  UNL     1      26.930   5.414  48.751  1.00  0.00     0.058 C 
HETATM    2  N1  UNL     1      28.039   4.826  48.539  1.00  0.00    -0.174 NA
HETATM    3  N2  UNL     1      29.105   5.683  48.333  1.00  0.00    -0.237 N 
HETATM    4  C10 UNL     1      28.458   6.864  47.807  1.00  0.00     0.151 C 
HETATM    5  C17 UNL     1      27.219   6.875  48.696  1.00  0.00     0.093 C 
ENDROOT
BRANCH   3   6
HETATM    6  C7  UNL     1      30.525   5.541  48.546  1.00  0.00     0.188 A 
HETATM    7  N3  UNL     1      31.067   4.747  47.784  1.00  0.00    -0.222 NA
HETATM    8  C8  UNL     1      32.387   4.802  48.195  1.00  0.00     0.318 A 
HETATM    9  S1  UNL     1      31.944   5.993  49.438  1.00  0.00    -0.035 SA
BRANCH   8  10
HETATM   10  O1  UNL     1      33.326   5.288  47.263  1.00  0.00    -0.360 OA
HETATM   11  C9  UNL     1      34.467   4.488  47.252  1.00  0.00     0.205 C 
ENDBRANCH   8  10
ENDBRANCH   3   6
BRANCH   4  12
HETATM   12  C11 UNL     1      29.232   8.095  47.904  1.00  0.00    -0.033 A 
HETATM   13  C12 UNL     1      29.984   8.654  46.922  1.00  0.00     0.009 A 
HETATM   14  C13 UNL     1      30.720   9.834  47.029  1.00  0.00     0.001 A 
HETATM   15  C14 UNL     1      30.666  10.477  48.247  1.00  0.00     0.000 A 
HETATM   16  C15 UNL     1      29.928   9.982  49.304  1.00  0.00     0.001 A 
HETATM   17  C16 UNL     1      29.231   8.809  49.109  1.00  0.00     0.009 A 
ENDBRANCH   4  12
BRANCH   1  18
HETATM   18  C5  UNL     1      25.622   4.783  49.005  1.00  0.00     0.035 C 
HETATM   19  C3  UNL     1      25.504   3.784  49.827  1.00  0.00    -0.064 C 
HETATM   20  C4  UNL     1      26.689   3.251  50.537  1.00  0.00     0.048 C 
BRANCH  19  21
HETATM   21  C2  UNL     1      24.173   3.201  50.032  1.00  0.00    -0.020 C 
HETATM   22  C1  UNL     1      23.398   3.044  48.978  1.00  0.00     0.031 C 
ENDBRANCH  19  21
ENDBRANCH   1  18
TORSDOF 5
ENDMDL
MODEL 9
REMARK VINA RESULT:      -6.1      4.207      6.825
REMARK  5 active torsions:
REMARK  status: ('A' for Active; 'I' for Inactive)
REMARK    1  A    between atoms: C2_2  and  C3_3 
REMARK    2  A    between atoms: C5_5  and  C6_6 
REMARK    3  A    between atoms: N2_8  and  C7_9 
REMARK    4  A    between atoms: C8_11  and  O1_12 
REMARK    5  A    between atoms: C10_15  and  C11_16 
ROOT
HETATM    1  C6  UNL     1      23.922   1.356  52.095  1.00  0.00     0.058 C 
HETATM    2  N1  UNL     1      22.680   1.318  52.371  1.00  0.00    -0.174 NA
HETATM    3  N2  UNL     1      21.948   2.361  51.832  1.00  0.00    -0.237 N 
HETATM    4  C10 UNL     1      22.937   3.408  51.714  1.00  0.00     0.151 C 
HETATM    5  C17 UNL     1      24.123   2.568  51.252  1.00  0.00     0.093 C 
ENDROOT
BRANCH   3   6
HETATM    6  C7  UNL     1      20.562   2.484  51.452  1.00  0.00     0.188 A 
HETATM    7  N3  UNL     1      19.803   2.697  52.392  1.00  0.00    -0.222 NA
HETATM    8  C8  UNL     1      18.572   2.770  51.765  1.00  0.00     0.318 A 
HETATM    9  S1  UNL     1      19.359   2.471  50.199  1.00  0.00    -0.035 SA
BRANCH   8  10
HETATM   10  O1  UNL     1      17.896   4.005  51.825  1.00  0.00    -0.360 OA
HETATM   11  C9  UNL     1      16.521   3.808  51.930  1.00  0.00     0.205 C 
ENDBRANCH   8  10
ENDBRANCH   3   6
BRANCH   4  12
HETATM   12  C11 UNL     1      22.606   4.477  50.781  1.00  0.00    -0.033 A 
HETATM   13  C12 UNL     1      21.991   5.649  51.083  1.00  0.00     0.009 A 
HETATM   14  C13 UNL     1      21.681   6.665  50.179  1.00  0.00     0.001 A 
HETATM   15  C14 UNL     1      22.039   6.442  48.866  1.00  0.00     0.000 A 
HETATM   16  C15 UNL     1      22.668   5.280  48.466  1.00  0.00     0.001 A 
HETATM   17  C16 UNL     1      22.936   4.329  49.428  1.00  0.00     0.009 A 
ENDBRANCH   4  12
BRANCH   1  18
HETATM   18  C5  UNL     1      24.957   0.394  52.518  1.00  0.00     0.035 C 
HETATM   19  C3  UNL     1      25.891   0.735  53.355  1.00  0.00    -0.064 C 
HETATM   20  C4  UNL     1      25.938   2.105  53.912  1.00  0.00     0.048 C 
BRANCH  19  21
HETATM   21  C2  UNL     1      26.891  -0.272  53.733  1.00  0.00    -0.020 C 
HETATM   22  C1  UNL     1      27.205  -1.193  52.845  1.00  0.00     0.031 C 
ENDBRANCH  19  21
ENDBRANCH   1  18
TORSDOF 5
ENDMDL
