MODEL 1
REMARK VINA RESULT:      -8.1      0.000      0.000
REMARK  3 active torsions:
REMARK  status: ('A' for Active; 'I' for Inactive)
REMARK    1  A    between atoms: C2_2  and  O1_3 
REMARK    2  A    between atoms: O1_3  and  C3_4 
REMARK    3  A    between atoms: C7_10  and  N3_11 
ROOT
HETATM    1  C3  UNL     1      26.595   0.107  53.725  1.00  0.00     0.107 A 
HETATM    2  C4  UNL     1      26.830   1.023  52.730  1.00  0.00     0.072 A 
HETATM    3  C5  UNL     1      25.811   1.581  51.980  1.00  0.00     0.077 A 
HETATM    4  N1  UNL     1      25.973   2.483  51.001  1.00  0.00    -0.241 NA
HETATM    5  C6  UNL     1      24.937   2.991  50.310  1.00  0.00     0.236 A 
HETATM    6  N2  UNL     1      23.671   2.581  50.609  1.00  0.00    -0.223 NA
HETATM    7  C7  UNL     1      23.463   1.664  51.599  1.00  0.00     0.145 A 
HETATM    8  C12 UNL     1      24.549   1.166  52.285  1.00  0.00     0.075 A 
HETATM    9  C13 UNL     1      24.221   0.266  53.250  1.00  0.00     0.121 A 
HETATM   10  C14 UNL     1      25.277  -0.266  53.977  1.00  0.00     0.136 A 
HETATM   11  O2  UNL     1      25.021  -1.200  54.989  1.00  0.00    -0.344 OA
HETATM   12  C15 UNL     1      23.698  -1.240  55.541  1.00  0.00     0.202 C 
HETATM   13  C16 UNL     1      22.695  -1.193  54.403  1.00  0.00     0.202 C 
HETATM   14  O3  UNL     1      22.943  -0.125  53.529  1.00  0.00    -0.345 OA
ENDROOT
BRANCH   7  15
HETATM   15  N3  UNL     1      22.073   1.380  51.704  1.00  0.00    -0.327 N 
HETATM   16  C8  UNL     1      21.111   0.368  51.237  1.00  0.00     0.156 C 
HETATM   17  C9  UNL     1      20.184   0.966  50.234  1.00  0.00     0.007 C 
HETATM   18  C10 UNL     1      19.755   2.205  50.056  1.00  0.00    -0.013 C 
HETATM   19  P1  UNL     1      20.251   3.232  51.264  1.00  0.00     0.012 P 
HETATM   20  C11 UNL     1      21.341   2.367  52.513  1.00  0.00     0.309 C 
HETATM   21  F1  UNL     1      20.425   1.727  53.359  1.00  0.00    -0.221 F 
ENDBRANCH   7  15
BRANCH   1  22
HETATM   22  O1  UNL     1      27.576  -0.464  54.485  1.00  0.00    -0.348 OA
BRANCH  22  23
HETATM   23  C2  UNL     1      28.911  -0.082  54.564  1.00  0.00     0.171 C 
HETATM   24  C1  UNL     1      29.775  -0.961  53.713  1.00  0.00     0.034 C 
ENDBRANCH  22  23
ENDBRANCH   1  22
TORSDOF 3
ENDMDL
MODEL 2
REMARK VINA RESULT:      -7.9      2.010      3.537
REMARK  3 active torsions:
REMARK  status: ('A' for Active; 'I' for Inactive)
REMARK    1  A    between atoms: C2_2  and  O1_3 
REMARK    2  A    between atoms: O1_3  and  C3_4 
REMARK    3  A    between atoms: C7_10  and  N3_11 
ROOT
HETATM    1  C3  UNL     1      27.056   0.804  53.095  1.00  0.00     0.107 A 
HETATM    2  C4  UNL     1      26.306  -0.037  53.878  1.00  0.00     0.072 A 
HETATM    3  C5  UNL     1      24.925  -0.079  53.810  1.00  0.00     0.077 A 
HETATM    4  N1  UNL     1      24.136  -0.880  54.543  1.00  0.00    -0.241 NA
HETATM    5  C6  UNL     1      22.797  -0.875  54.426  1.00  0.00     0.236 A 
HETATM    6  N2  UNL     1      22.209  -0.028  53.532  1.00  0.00    -0.223 NA
HETATM    7  C7  UNL     1      22.976   0.803  52.768  1.00  0.00     0.145 A 
HETATM    8  C12 UNL     1      24.345   0.769  52.916  1.00  0.00     0.075 A 
HETATM    9  C13 UNL     1      25.005   1.635  52.100  1.00  0.00     0.121 A 
HETATM   10  C14 UNL     1      26.389   1.641  52.203  1.00  0.00     0.136 A 
HETATM   11  O2  UNL     1      27.141   2.504  51.396  1.00  0.00    -0.344 OA
HETATM   12  C15 UNL     1      26.523   3.011  50.205  1.00  0.00     0.202 C 
HETATM   13  C16 UNL     1      25.115   3.465  50.543  1.00  0.00     0.202 C 
HETATM   14  O3  UNL     1      24.390   2.470  51.212  1.00  0.00    -0.345 OA
ENDROOT
BRANCH   7  15
HETATM   15  N3  UNL     1      22.138   1.600  51.939  1.00  0.00    -0.327 N 
HETATM   16  C8  UNL     1      21.580   2.962  51.912  1.00  0.00     0.156 C 
HETATM   17  C9  UNL     1      20.106   2.916  52.135  1.00  0.00     0.007 C 
HETATM   18  C10 UNL     1      19.203   1.983  51.879  1.00  0.00    -0.013 C 
HETATM   19  P1  UNL     1      19.833   0.698  51.037  1.00  0.00     0.012 P 
HETATM   20  C11 UNL     1      21.668   0.890  50.739  1.00  0.00     0.309 C 
HETATM   21  F1  UNL     1      21.732   1.727  49.616  1.00  0.00    -0.221 F 
ENDBRANCH   7  15
BRANCH   1  22
HETATM   22  O1  UNL     1      28.420   0.872  53.134  1.00  0.00    -0.348 OA
BRANCH  22  23
HETATM   23  C2  UNL     1      29.269   0.235  54.033  1.00  0.00     0.171 C 
HETATM   24  C1  UNL     1      29.779  -1.056  53.470  1.00  0.00     0.034 C 
ENDBRANCH  22  23
ENDBRANCH   1  22
TORSDOF 3
ENDMDL
MODEL 3
REMARK VINA RESULT:      -7.4      1.472      1.660
REMARK  3 active torsions:
REMARK  status: ('A' for Active; 'I' for Inactive)
REMARK    1  A    between atoms: C2_2  and  O1_3 
REMARK    2  A    between atoms: O1_3  and  C3_4 
REMARK    3  A    between atoms: C7_10  and  N3_11 
ROOT
HETATM    1  C3  UNL     1      26.650   0.293  52.720  1.00  0.00     0.107 A 
HETATM    2  C4  UNL     1      27.162   1.295  51.932  1.00  0.00     0.072 A 
HETATM    3  C5  UNL     1      26.357   2.226  51.300  1.00  0.00     0.077 A 
HETATM    4  N1  UNL     1      26.794   3.229  50.524  1.00  0.00    -0.241 NA
HETATM    5  C6  UNL     1      25.957   4.105  49.941  1.00  0.00     0.236 A 
HETATM    6  N2  UNL     1      24.614   3.977  50.138  1.00  0.00    -0.223 NA
HETATM    7  C7  UNL     1      24.128   2.969  50.920  1.00  0.00     0.145 A 
HETATM    8  C12 UNL     1      25.016   2.091  51.502  1.00  0.00     0.075 A 
HETATM    9  C13 UNL     1      24.420   1.134  52.262  1.00  0.00     0.121 A 
HETATM   10  C14 UNL     1      25.268   0.223  52.878  1.00  0.00     0.136 A 
HETATM   11  O2  UNL     1      24.731  -0.793  53.678  1.00  0.00    -0.344 OA
HETATM   12  C15 UNL     1      23.407  -0.604  54.197  1.00  0.00     0.202 C 
HETATM   13  C16 UNL     1      22.517  -0.087  53.082  1.00  0.00     0.202 C 
HETATM   14  O3  UNL     1      23.071   1.031  52.445  1.00  0.00    -0.345 OA
ENDROOT
BRANCH   7  15
HETATM   15  N3  UNL     1      22.708   3.030  50.952  1.00  0.00    -0.327 N 
HETATM   16  C8  UNL     1      21.557   2.386  50.297  1.00  0.00     0.156 C 
HETATM   17  C9  UNL     1      20.865   3.359  49.403  1.00  0.00     0.007 C 
HETATM   18  C10 UNL     1      20.763   4.678  49.445  1.00  0.00    -0.013 C 
HETATM   19  P1  UNL     1      21.423   5.326  50.824  1.00  0.00     0.012 P 
HETATM   20  C11 UNL     1      22.192   4.017  51.914  1.00  0.00     0.309 C 
HETATM   21  F1  UNL     1      21.099   3.492  52.618  1.00  0.00    -0.221 F 
ENDBRANCH   7  15
BRANCH   1  22
HETATM   22  O1  UNL     1      27.414  -0.641  53.359  1.00  0.00    -0.348 OA
BRANCH  22  23
HETATM   23  C2  UNL     1      28.513  -0.413  54.180  1.00  0.00     0.171 C 
HETATM   24  C1  UNL     1      29.777  -0.891  53.534  1.00  0.00     0.034 C 
ENDBRANCH  22  23
ENDBRANCH   1  22
TORSDOF 3
ENDMDL
MODEL 4
REMARK VINA RESULT:      -7.2      2.853      6.016
REMARK  3 active torsions:
REMARK  status: ('A' for Active; 'I' for Inactive)
REMARK    1  A    between atoms: C2_2  and  O1_3 
REMARK    2  A    between atoms: O1_3  and  C3_4 
REMARK    3  A    between atoms: C7_10  and  N3_11 
ROOT
HETATM    1  C3  UNL     1      21.081   1.341  52.189  1.00  0.00     0.107 A 
HETATM    2  C4  UNL     1      21.924   2.149  51.467  1.00  0.00     0.072 A 
HETATM    3  C5  UNL     1      23.300   2.081  51.588  1.00  0.00     0.077 A 
HETATM    4  N1  UNL     1      24.176   2.837  50.908  1.00  0.00    -0.241 NA
HETATM    5  C6  UNL     1      25.506   2.719  51.068  1.00  0.00     0.236 A 
HETATM    6  N2  UNL     1      25.992   1.800  51.951  1.00  0.00    -0.223 NA
HETATM    7  C7  UNL     1      25.134   1.011  52.662  1.00  0.00     0.145 A 
HETATM    8  C12 UNL     1      23.778   1.161  52.471  1.00  0.00     0.075 A 
HETATM    9  C13 UNL     1      23.023   0.319  53.227  1.00  0.00     0.121 A 
HETATM   10  C14 UNL     1      21.647   0.424  53.072  1.00  0.00     0.136 A 
HETATM   11  O2  UNL     1      20.801  -0.409  53.815  1.00  0.00    -0.344 OA
HETATM   12  C15 UNL     1      21.358  -1.615  54.356  1.00  0.00     0.202 C 
HETATM   13  C16 UNL     1      22.701  -1.292  54.984  1.00  0.00     0.202 C 
HETATM   14  O3  UNL     1      23.537  -0.594  54.102  1.00  0.00    -0.345 OA
ENDROOT
BRANCH   7  15
HETATM   15  N3  UNL     1      25.874   0.158  53.527  1.00  0.00    -0.327 N 
HETATM   16  C8  UNL     1      26.198   0.044  54.958  1.00  0.00     0.156 C 
HETATM   17  C9  UNL     1      27.644   0.336  55.182  1.00  0.00     0.007 C 
HETATM   18  C10 UNL     1      28.703   0.198  54.400  1.00  0.00    -0.013 C 
HETATM   19  P1  UNL     1      28.345  -0.564  52.968  1.00  0.00     0.012 P 
HETATM   20  C11 UNL     1      26.524  -0.958  52.822  1.00  0.00     0.309 C 
HETATM   21  F1  UNL     1      26.387  -2.148  53.551  1.00  0.00    -0.221 F 
ENDBRANCH   7  15
BRANCH   1  22
HETATM   22  O1  UNL     1      19.719   1.379  52.096  1.00  0.00    -0.348 OA
BRANCH  22  23
HETATM   23  C2  UNL     1      18.932   0.901  51.054  1.00  0.00     0.171 C 
HETATM   24  C1  UNL     1      18.099  -0.262  51.497  1.00  0.00     0.034 C 
ENDBRANCH  22  23
ENDBRANCH   1  22
TORSDOF 3
ENDMDL
MODEL 5
REMARK VINA RESULT:      -6.8      2.433      3.071
REMARK  3 active torsions:
REMARK  status: ('A' for Active; 'I' for Inactive)
REMARK    1  A    between atoms: C2_2  and  O1_3 
REMARK    2  A    between atoms: O1_3  and  C3_4 
REMARK    3  A    between atoms: C7_10  and  N3_11 
ROOT
HETATM    1  C3  UNL     1      26.000   0.899  52.148  1.00  0.00     0.107 A 
HETATM    2  C4  UNL     1      26.767   1.748  51.389  1.00  0.00     0.072 A 
HETATM    3  C5  UNL     1      26.229   2.822  50.705  1.00  0.00     0.077 A 
HETATM    4  N1  UNL     1      26.925   3.690  49.953  1.00  0.00    -0.241 NA
HETATM    5  C6  UNL     1      26.341   4.719  49.315  1.00  0.00     0.236 A 
HETATM    6  N2  UNL     1      24.994   4.897  49.430  1.00  0.00    -0.223 NA
HETATM    7  C7  UNL     1      24.250   4.036  50.185  1.00  0.00     0.145 A 
HETATM    8  C12 UNL     1      24.883   2.993  50.824  1.00  0.00     0.075 A 
HETATM    9  C13 UNL     1      24.044   2.207  51.550  1.00  0.00     0.121 A 
HETATM   10  C14 UNL     1      24.630   1.141  52.221  1.00  0.00     0.136 A 
HETATM   11  O2  UNL     1      23.833   0.285  52.991  1.00  0.00    -0.344 OA
HETATM   12  C15 UNL     1      22.556   0.773  53.426  1.00  0.00     0.202 C 
HETATM   13  C16 UNL     1      21.872   1.455  52.256  1.00  0.00     0.202 C 
HETATM   14  O3  UNL     1      22.698   2.410  51.650  1.00  0.00    -0.345 OA
ENDROOT
BRANCH   7  15
HETATM   15  N3  UNL     1      22.879   4.413  50.129  1.00  0.00    -0.327 N 
HETATM   16  C8  UNL     1      21.657   4.036  49.400  1.00  0.00     0.156 C 
HETATM   17  C9  UNL     1      21.256   5.133  48.471  1.00  0.00     0.007 C 
HETATM   18  C10 UNL     1      21.448   6.441  48.515  1.00  0.00    -0.013 C 
HETATM   19  P1  UNL     1      22.149   6.936  49.936  1.00  0.00     0.012 P 
HETATM   20  C11 UNL     1      22.538   5.497  51.063  1.00  0.00     0.309 C 
HETATM   21  F1  UNL     1      21.314   5.235  51.695  1.00  0.00    -0.221 F 
ENDBRANCH   7  15
BRANCH   1  22
HETATM   22  O1  UNL     1      26.496  -0.171  52.837  1.00  0.00    -0.348 OA
BRANCH  22  23
HETATM   23  C2  UNL     1      27.832  -0.524  52.996  1.00  0.00     0.171 C 
HETATM   24  C1  UNL     1      28.366  -0.034  54.307  1.00  0.00     0.034 C 
ENDBRANCH  22  23
ENDBRANCH   1  22
TORSDOF 3
ENDMDL
MODEL 6
REMARK VINA RESULT:      -6.7      3.372      5.381
REMARK  3 active torsions:
REMARK  status: ('A' for Active; 'I' for Inactive)
REMARK    1  A    between atoms: C2_2  and  O1_3 
REMARK    2  A    between atoms: O1_3  and  C3_4 
REMARK    3  A    between atoms: C7_10  and  N3_11 
ROOT
HETATM    1  C3  UNL     1      22.386   0.956  52.478  1.00  0.00     0.107 A 
HETATM    2  C4  UNL     1      23.747   0.843  52.344  1.00  0.00     0.072 A 
HETATM    3  C5  UNL     1      24.516   1.818  51.735  1.00  0.00     0.077 A 
HETATM    4  N1  UNL     1      25.848   1.770  51.578  1.00  0.00    -0.241 NA
HETATM    5  C6  UNL     1      26.538   2.757  50.979  1.00  0.00     0.236 A 
HETATM    6  N2  UNL     1      25.870   3.850  50.511  1.00  0.00    -0.223 NA
HETATM    7  C7  UNL     1      24.514   3.936  50.650  1.00  0.00     0.145 A 
HETATM    8  C12 UNL     1      23.841   2.906  51.270  1.00  0.00     0.075 A 
HETATM    9  C13 UNL     1      22.498   3.105  51.357  1.00  0.00     0.121 A 
HETATM   10  C14 UNL     1      21.769   2.099  51.977  1.00  0.00     0.136 A 
HETATM   11  O2  UNL     1      20.380   2.230  52.106  1.00  0.00    -0.344 OA
HETATM   12  C15 UNL     1      19.822   3.548  52.014  1.00  0.00     0.202 C 
HETATM   13  C16 UNL     1      20.456   4.263  50.835  1.00  0.00     0.202 C 
HETATM   14  O3  UNL     1      21.855   4.212  50.881  1.00  0.00    -0.345 OA
ENDROOT
BRANCH   7  15
HETATM   15  N3  UNL     1      24.050   5.147  50.065  1.00  0.00    -0.327 N 
HETATM   16  C8  UNL     1      23.458   5.609  48.798  1.00  0.00     0.156 C 
HETATM   17  C9  UNL     1      24.432   6.463  48.059  1.00  0.00     0.007 C 
HETATM   18  C10 UNL     1      25.425   7.232  48.475  1.00  0.00    -0.013 C 
HETATM   19  P1  UNL     1      25.490   7.352  50.131  1.00  0.00     0.012 P 
HETATM   20  C11 UNL     1      24.179   6.308  50.959  1.00  0.00     0.309 C 
HETATM   21  F1  UNL     1      23.031   7.111  50.892  1.00  0.00    -0.221 F 
ENDBRANCH   7  15
BRANCH   1  22
HETATM   22  O1  UNL     1      21.596   0.014  53.073  1.00  0.00    -0.348 OA
BRANCH  22  23
HETATM   23  C2  UNL     1      21.433  -0.210  54.436  1.00  0.00     0.171 C 
HETATM   24  C1  UNL     1      22.249  -1.381  54.891  1.00  0.00     0.034 C 
ENDBRANCH  22  23
ENDBRANCH   1  22
TORSDOF 3
ENDMDL
MODEL 7
REMARK VINA RESULT:      -6.4      2.613      4.167
REMARK  3 active torsions:
REMARK  status: ('A' for Active; 'I' for Inactive)
REMARK    1  A    between atoms: C2_2  and  O1_3 
REMARK    2  A    between atoms: O1_3  and  C3_4 
REMARK    3  A    between atoms: C7_10  and  N3_11 
ROOT
HETATM    1  C3  UNL     1      24.673   0.504  52.854  1.00  0.00     0.107 A 
HETATM    2  C4  UNL     1      23.405  -0.014  52.951  1.00  0.00     0.072 A 
HETATM    3  C5  UNL     1      22.346   0.472  52.205  1.00  0.00     0.077 A 
HETATM    4  N1  UNL     1      21.088   0.007  52.249  1.00  0.00    -0.241 NA
HETATM    5  C6  UNL     1      20.103   0.522  51.493  1.00  0.00     0.236 A 
HETATM    6  N2  UNL     1      20.383   1.554  50.646  1.00  0.00    -0.223 NA
HETATM    7  C7  UNL     1      21.650   2.056  50.571  1.00  0.00     0.145 A 
HETATM    8  C12 UNL     1      22.633   1.502  51.361  1.00  0.00     0.075 A 
HETATM    9  C13 UNL     1      23.855   2.078  51.198  1.00  0.00     0.121 A 
HETATM   10  C14 UNL     1      24.886   1.557  51.968  1.00  0.00     0.136 A 
HETATM   11  O2  UNL     1      26.174   2.096  51.857  1.00  0.00    -0.344 OA
HETATM   12  C15 UNL     1      26.489   2.834  50.668  1.00  0.00     0.202 C 
HETATM   13  C16 UNL     1      25.339   3.776  50.363  1.00  0.00     0.202 C 
HETATM   14  O3  UNL     1      24.107   3.110  50.340  1.00  0.00    -0.345 OA
ENDROOT
BRANCH   7  15
HETATM   15  N3  UNL     1      21.683   3.134  49.644  1.00  0.00    -0.327 N 
HETATM   16  C8  UNL     1      21.636   4.606  49.655  1.00  0.00     0.156 C 
HETATM   17  C9  UNL     1      20.350   5.082  49.068  1.00  0.00     0.007 C 
HETATM   18  C10 UNL     1      19.537   4.547  48.173  1.00  0.00    -0.013 C 
HETATM   19  P1  UNL     1      20.152   3.158  47.501  1.00  0.00     0.012 P 
HETATM   20  C11 UNL     1      21.802   2.692  48.246  1.00  0.00     0.309 C 
HETATM   21  F1  UNL     1      22.715   3.498  47.550  1.00  0.00    -0.221 F 
ENDBRANCH   7  15
BRANCH   1  22
HETATM   22  O1  UNL     1      25.741   0.050  53.574  1.00  0.00    -0.348 OA
BRANCH  22  23
HETATM   23  C2  UNL     1      26.482  -1.104  53.345  1.00  0.00     0.171 C 
HETATM   24  C1  UNL     1      27.918  -0.778  53.075  1.00  0.00     0.034 C 
ENDBRANCH  22  23
ENDBRANCH   1  22
TORSDOF 3
ENDMDL
MODEL 8
REMARK VINA RESULT:      -6.4      7.102      9.526
REMARK  3 active torsions:
REMARK  status: ('A' for Active; 'I' for Inactive)
REMARK    1  A    between atoms: C2_2  and  O1_3 
REMARK    2  A    between atoms: O1_3  and  C3_4 
REMARK    3  A    between atoms: C7_10  and  N3_11 
ROOT
HETATM    1  C3  UNL     1      25.814   4.805  49.369  1.00  0.00     0.107 A 
HETATM    2  C4  UNL     1      27.064   4.383  48.988  1.00  0.00     0.072 A 
HETATM    3  C5  UNL     1      28.051   5.263  48.584  1.00  0.00     0.077 A 
HETATM    4  N1  UNL     1      29.291   4.915  48.205  1.00  0.00    -0.241 NA
HETATM    5  C6  UNL     1      30.209   5.822  47.827  1.00  0.00     0.236 A 
HETATM    6  N2  UNL     1      29.878   7.145  47.824  1.00  0.00    -0.223 NA
HETATM    7  C7  UNL     1      28.627   7.540  48.201  1.00  0.00     0.145 A 
HETATM    8  C12 UNL     1      27.713   6.582  48.583  1.00  0.00     0.075 A 
HETATM    9  C13 UNL     1      26.505   7.092  48.944  1.00  0.00     0.121 A 
HETATM   10  C14 UNL     1      25.545   6.171  49.343  1.00  0.00     0.136 A 
HETATM   11  O2  UNL     1      24.275   6.617  49.729  1.00  0.00    -0.344 OA
HETATM   12  C15 UNL     1      24.142   7.988  50.129  1.00  0.00     0.202 C 
HETATM   13  C16 UNL     1      24.885   8.860  49.133  1.00  0.00     0.202 C 
HETATM   14  O3  UNL     1      26.201   8.423  48.933  1.00  0.00    -0.345 OA
ENDROOT
BRANCH   7  15
HETATM   15  N3  UNL     1      28.518   8.954  48.091  1.00  0.00    -0.327 N 
HETATM   16  C8  UNL     1      28.038   9.955  47.124  1.00  0.00     0.156 C 
HETATM   17  C9  UNL     1      29.189  10.717  46.561  1.00  0.00     0.007 C 
HETATM   18  C10 UNL     1      30.382  11.008  47.055  1.00  0.00    -0.013 C 
HETATM   19  P1  UNL     1      30.547  10.541  48.640  1.00  0.00     0.012 P 
HETATM   20  C11 UNL     1      29.021   9.668  49.274  1.00  0.00     0.309 C 
HETATM   21  F1  UNL     1      28.160  10.720  49.618  1.00  0.00    -0.221 F 
ENDBRANCH   7  15
BRANCH   1  22
HETATM   22  O1  UNL     1      24.815   3.966  49.774  1.00  0.00    -0.348 OA
BRANCH  22  23
HETATM   23  C2  UNL     1      24.878   3.002  50.774  1.00  0.00     0.171 C 
HETATM   24  C1  UNL     1      24.110   3.431  51.986  1.00  0.00     0.034 C 
ENDBRANCH  22  23
ENDBRANCH   1  22
TORSDOF 3
ENDMDL
MODEL 9
REMARK VINA RESULT:      -6.4      3.721      5.695
REMARK  3 active torsions:
REMARK  status: ('A' for Active; 'I' for Inactive)
REMARK    1  A    between atoms: C2_2  and  O1_3 
REMARK    2  A    between atoms: O1_3  and  C3_4 
REMARK    3  A    between atoms: C7_10  and  N3_11 
ROOT
HETATM    1  C3  UNL     1      26.382   4.777  49.166  1.00  0.00     0.107 A 
HETATM    2  C4  UNL     1      26.800   3.714  49.927  1.00  0.00     0.072 A 
HETATM    3  C5  UNL     1      25.917   2.895  50.606  1.00  0.00     0.077 A 
HETATM    4  N1  UNL     1      26.261   1.839  51.360  1.00  0.00    -0.241 NA
HETATM    5  C6  UNL     1      25.351   1.078  51.992  1.00  0.00     0.236 A 
HETATM    6  N2  UNL     1      24.027   1.381  51.868  1.00  0.00    -0.223 NA
HETATM    7  C7  UNL     1      23.635   2.447  51.111  1.00  0.00     0.145 A 
HETATM    8  C12 UNL     1      24.596   3.204  50.478  1.00  0.00     0.075 A 
HETATM    9  C13 UNL     1      24.089   4.233  49.748  1.00  0.00     0.121 A 
HETATM   10  C14 UNL     1      25.014   5.028  49.084  1.00  0.00     0.136 A 
HETATM   11  O2  UNL     1      24.571   6.109  48.311  1.00  0.00    -0.344 OA
HETATM   12  C15 UNL     1      23.207   6.096  47.866  1.00  0.00     0.202 C 
HETATM   13  C16 UNL     1      22.320   5.696  49.030  1.00  0.00     0.202 C 
HETATM   14  O3  UNL     1      22.757   4.512  49.640  1.00  0.00    -0.345 OA
ENDROOT
BRANCH   7  15
HETATM   15  N3  UNL     1      22.219   2.572  51.158  1.00  0.00    -0.327 N 
HETATM   16  C8  UNL     1      21.198   3.330  51.900  1.00  0.00     0.156 C 
HETATM   17  C9  UNL     1      20.431   2.416  52.795  1.00  0.00     0.007 C 
HETATM   18  C10 UNL     1      20.154   1.125  52.710  1.00  0.00    -0.013 C 
HETATM   19  P1  UNL     1      20.651   0.459  51.272  1.00  0.00     0.012 P 
HETATM   20  C11 UNL     1      21.529   1.705  50.190  1.00  0.00     0.309 C 
HETATM   21  F1  UNL     1      20.479   2.397  49.569  1.00  0.00    -0.221 F 
ENDBRANCH   7  15
BRANCH   1  22
HETATM   22  O1  UNL     1      27.224   5.607  48.482  1.00  0.00    -0.348 OA
BRANCH  22  23
HETATM   23  C2  UNL     1      28.598   5.465  48.321  1.00  0.00     0.171 C 
HETATM   24  C1  UNL     1      29.210   6.720  47.777  1.00  0.00     0.034 C 
ENDBRANCH  22  23
ENDBRANCH   1  22
TORSDOF 3
ENDMDL
