MODEL 1
REMARK VINA RESULT:      -8.4      0.000      0.000
REMARK  5 active torsions:
REMARK  status: ('A' for Active; 'I' for Inactive)
REMARK    1  A    between atoms: C1_2  and  N1_3 
REMARK    2  A    between atoms: N1_3  and  C2_4 
REMARK    3  A    between atoms: C2_4  and  C3_5 
REMARK    4  A    between atoms: C11_18  and  N5_19 
REMARK    5  A    between atoms: N5_19  and  C12_20 
ROOT
HETATM    1  C3  UNL     1      24.944   3.480  50.396  1.00  0.00     0.194 C 
HETATM    2  O2  UNL     1      24.302   3.104  49.263  1.00  0.00    -0.379 OA
HETATM    3  C4  UNL     1      23.253   3.720  48.731  1.00  0.00     0.170 C 
HETATM    4  C5  UNL     1      21.950   3.706  49.467  1.00  0.00     0.056 C 
HETATM    5  C6  UNL     1      21.813   4.336  50.772  1.00  0.00     0.275 C 
HETATM    6  N2  UNL     1      20.532   4.176  51.448  1.00  0.00     0.098 N 
HETATM    7  C7  UNL     1      19.436   3.799  50.608  1.00  0.00     0.299 C 
HETATM    8  C8  UNL     1      18.466   2.862  51.360  1.00  0.00     0.207 C 
HETATM    9  O3  UNL     1      19.143   1.709  51.849  1.00  0.00    -0.335 OA
HETATM   10  C9  UNL     1      20.535   1.880  51.983  1.00  0.00     0.171 C 
HETATM   11  N3  UNL     1      21.436   1.021  51.658  1.00  0.00    -0.209 NA
HETATM   12  C10 UNL     1      22.829   1.184  51.786  1.00  0.00     0.297 C 
HETATM   13  N4  UNL     1      23.910   1.619  51.594  1.00  0.00    -0.413 NA
HETATM   14  C11 UNL     1      25.073   2.212  51.269  1.00  0.00     0.294 C 
HETATM   15  C18 UNL     1      20.687   3.250  52.571  1.00  0.00     0.358 C 
ENDROOT
BRANCH  14  16
HETATM   16  N5  UNL     1      25.947   2.517  52.416  1.00  0.00    -0.356 N 
HETATM   17  H18 UNL     1      25.993   3.355  53.049  1.00  0.00     0.163 HD
BRANCH  16  18
HETATM   18  C12 UNL     1      26.922   1.540  52.795  1.00  0.00     0.032 A 
HETATM   19  C13 UNL     1      28.115   1.863  53.409  1.00  0.00     0.032 A 
HETATM   20  C14 UNL     1      29.073   0.942  53.776  1.00  0.00     0.046 A 
HETATM   21  C15 UNL     1      28.853  -0.397  53.528  1.00  0.00     0.138 A 
HETATM   22  F1  UNL     1      29.779  -1.316  53.881  1.00  0.00    -0.204 F 
HETATM   23  C16 UNL     1      27.682  -0.783  52.917  1.00  0.00     0.074 A 
HETATM   24 CL1  UNL     1      27.391  -2.471  52.597  1.00  0.00    -0.081 Cl
HETATM   25  C17 UNL     1      26.787   0.183  52.584  1.00  0.00     0.056 A 
ENDBRANCH  16  18
ENDBRANCH  14  16
BRANCH   1  26
HETATM   26  C2  UNL     1      26.441   3.773  50.057  1.00  0.00     0.158 C 
BRANCH  26  27
HETATM   27  N1  UNL     1      26.603   5.163  49.658  1.00  0.00    -0.366 N 
HETATM   28  H2  UNL     1      26.221   6.061  50.035  1.00  0.00     0.161 HD
BRANCH  27  29
HETATM   29  C1  UNL     1      27.457   5.329  48.523  1.00  0.00     0.348 C 
HETATM   30  O1  UNL     1      28.617   4.853  48.447  1.00  0.00    -0.284 OA
ENDBRANCH  27  29
ENDBRANCH  26  27
ENDBRANCH   1  26
TORSDOF 5
ENDMDL
MODEL 2
REMARK VINA RESULT:      -8.3      3.564      5.479
REMARK  5 active torsions:
REMARK  status: ('A' for Active; 'I' for Inactive)
REMARK    1  A    between atoms: C1_2  and  N1_3 
REMARK    2  A    between atoms: N1_3  and  C2_4 
REMARK    3  A    between atoms: C2_4  and  C3_5 
REMARK    4  A    between atoms: C11_18  and  N5_19 
REMARK    5  A    between atoms: N5_19  and  C12_20 
ROOT
HETATM    1  C3  UNL     1      25.533   2.551  51.882  1.00  0.00     0.194 C 
HETATM    2  O2  UNL     1      26.153   2.414  50.685  1.00  0.00    -0.379 OA
HETATM    3  C4  UNL     1      26.666   3.404  49.964  1.00  0.00     0.170 C 
HETATM    4  C5  UNL     1      25.745   4.419  49.364  1.00  0.00     0.056 C 
HETATM    5  C6  UNL     1      24.928   5.287  50.201  1.00  0.00     0.275 C 
HETATM    6  N2  UNL     1      23.991   6.167  49.515  1.00  0.00     0.098 N 
HETATM    7  C7  UNL     1      24.262   6.396  48.128  1.00  0.00     0.299 C 
HETATM    8  C8  UNL     1      22.948   6.534  47.329  1.00  0.00     0.207 C 
HETATM    9  O3  UNL     1      22.123   5.386  47.496  1.00  0.00    -0.335 OA
HETATM   10  C9  UNL     1      22.411   4.643  48.658  1.00  0.00     0.171 C 
HETATM   11  N3  UNL     1      22.465   3.360  48.739  1.00  0.00    -0.209 NA
HETATM   12  C10 UNL     1      22.753   2.608  49.894  1.00  0.00     0.297 C 
HETATM   13  N4  UNL     1      23.374   2.175  50.801  1.00  0.00    -0.413 NA
HETATM   14  C11 UNL     1      24.203   1.770  51.780  1.00  0.00     0.294 C 
HETATM   15  C18 UNL     1      22.626   5.678  49.719  1.00  0.00     0.358 C 
ENDROOT
BRANCH  14  16
HETATM   16  N5  UNL     1      23.589   1.710  53.118  1.00  0.00    -0.356 N 
HETATM   17  H18 UNL     1      23.761   2.276  53.986  1.00  0.00     0.163 HD
BRANCH  16  18
HETATM   18  C12 UNL     1      22.563   0.737  53.342  1.00  0.00     0.032 A 
HETATM   19  C13 UNL     1      22.756  -0.406  54.090  1.00  0.00     0.032 A 
HETATM   20  C14 UNL     1      21.787  -1.361  54.314  1.00  0.00     0.046 A 
HETATM   21  C15 UNL     1      20.532  -1.190  53.768  1.00  0.00     0.138 A 
HETATM   22  F1  UNL     1      19.568  -2.114  53.975  1.00  0.00    -0.204 F 
HETATM   23  C16 UNL     1      20.277  -0.070  53.010  1.00  0.00     0.074 A 
HETATM   24 CL1  UNL     1      18.696   0.158  52.313  1.00  0.00    -0.081 Cl
HETATM   25  C17 UNL     1      21.283   0.825  52.834  1.00  0.00     0.056 A 
ENDBRANCH  16  18
ENDBRANCH  14  16
BRANCH   1  26
HETATM   26  C2  UNL     1      26.301   1.710  52.952  1.00  0.00     0.158 C 
BRANCH  26  27
HETATM   27  N1  UNL     1      27.137   2.578  53.768  1.00  0.00    -0.366 N 
HETATM   28  H2  UNL     1      26.923   3.390  54.392  1.00  0.00     0.161 HD
BRANCH  27  29
HETATM   29  C1  UNL     1      28.527   2.252  53.700  1.00  0.00     0.348 C 
HETATM   30  O1  UNL     1      29.330   2.419  54.652  1.00  0.00    -0.284 OA
ENDBRANCH  27  29
ENDBRANCH  26  27
ENDBRANCH   1  26
TORSDOF 5
ENDMDL
MODEL 3
REMARK VINA RESULT:      -8.0      2.996      4.964
REMARK  5 active torsions:
REMARK  status: ('A' for Active; 'I' for Inactive)
REMARK    1  A    between atoms: C1_2  and  N1_3 
REMARK    2  A    between atoms: N1_3  and  C2_4 
REMARK    3  A    between atoms: C2_4  and  C3_5 
REMARK    4  A    between atoms: C11_18  and  N5_19 
REMARK    5  A    between atoms: N5_19  and  C12_20 
ROOT
HETATM    1  C3  UNL     1      21.557   1.442  52.004  1.00  0.00     0.194 C 
HETATM    2  O2  UNL     1      20.582   2.084  52.692  1.00  0.00    -0.379 OA
HETATM    3  C4  UNL     1      19.498   2.638  52.159  1.00  0.00     0.170 C 
HETATM    4  C5  UNL     1      19.654   3.835  51.275  1.00  0.00     0.056 C 
HETATM    5  C6  UNL     1      20.383   3.755  50.018  1.00  0.00     0.275 C 
HETATM    6  N2  UNL     1      20.563   5.002  49.284  1.00  0.00     0.098 N 
HETATM    7  C7  UNL     1      19.669   6.061  49.640  1.00  0.00     0.299 C 
HETATM    8  C8  UNL     1      20.378   7.430  49.548  1.00  0.00     0.207 C 
HETATM    9  O3  UNL     1      21.542   7.461  50.366  1.00  0.00    -0.335 OA
HETATM   10  C9  UNL     1      22.057   6.185  50.671  1.00  0.00     0.171 C 
HETATM   11  N3  UNL     1      22.500   5.805  51.817  1.00  0.00    -0.209 NA
HETATM   12  C10 UNL     1      23.014   4.532  52.133  1.00  0.00     0.297 C 
HETATM   13  N4  UNL     1      23.033   3.365  52.316  1.00  0.00    -0.413 NA
HETATM   14  C11 UNL     1      22.899   2.038  52.489  1.00  0.00     0.294 C 
HETATM   15  C18 UNL     1      21.961   5.427  49.383  1.00  0.00     0.358 C 
ENDROOT
BRANCH  14  16
HETATM   16  N5  UNL     1      23.999   1.232  51.929  1.00  0.00    -0.356 N 
HETATM   17  H18 UNL     1      24.131   0.803  50.980  1.00  0.00     0.163 HD
BRANCH  16  18
HETATM   18  C12 UNL     1      25.124   0.958  52.772  1.00  0.00     0.032 A 
HETATM   19  C13 UNL     1      25.185  -0.130  53.619  1.00  0.00     0.032 A 
HETATM   20  C14 UNL     1      26.252  -0.412  54.445  1.00  0.00     0.046 A 
HETATM   21  C15 UNL     1      27.346   0.428  54.446  1.00  0.00     0.138 A 
HETATM   22  F1  UNL     1      28.403   0.169  55.247  1.00  0.00    -0.204 F 
HETATM   23  C16 UNL     1      27.346   1.531  53.622  1.00  0.00     0.074 A 
HETATM   24 CL1  UNL     1      28.721   2.601  53.612  1.00  0.00    -0.081 Cl
HETATM   25  C17 UNL     1      26.257   1.742  52.838  1.00  0.00     0.056 A 
ENDBRANCH  16  18
ENDBRANCH  14  16
BRANCH   1  26
HETATM   26  C2  UNL     1      21.666  -0.026  52.527  1.00  0.00     0.158 C 
BRANCH  26  27
HETATM   27  N1  UNL     1      21.518  -0.056  53.974  1.00  0.00    -0.366 N 
HETATM   28  H2  UNL     1      21.370   0.692  54.690  1.00  0.00     0.161 HD
BRANCH  27  29
HETATM   29  C1  UNL     1      21.591  -1.374  54.523  1.00  0.00     0.348 C 
HETATM   30  O1  UNL     1      22.344  -1.692  55.477  1.00  0.00    -0.284 OA
ENDBRANCH  27  29
ENDBRANCH  26  27
ENDBRANCH   1  26
TORSDOF 5
ENDMDL
MODEL 4
REMARK VINA RESULT:      -8.0      2.379      2.885
REMARK  5 active torsions:
REMARK  status: ('A' for Active; 'I' for Inactive)
REMARK    1  A    between atoms: C1_2  and  N1_3 
REMARK    2  A    between atoms: N1_3  and  C2_4 
REMARK    3  A    between atoms: C2_4  and  C3_5 
REMARK    4  A    between atoms: C11_18  and  N5_19 
REMARK    5  A    between atoms: N5_19  and  C12_20 
ROOT
HETATM    1  C3  UNL     1      23.947   2.310  51.404  1.00  0.00     0.194 C 
HETATM    2  O2  UNL     1      23.338   1.644  50.393  1.00  0.00    -0.379 OA
HETATM    3  C4  UNL     1      22.047   1.717  50.089  1.00  0.00     0.170 C 
HETATM    4  C5  UNL     1      21.041   1.166  51.050  1.00  0.00     0.056 C 
HETATM    5  C6  UNL     1      20.886   1.726  52.385  1.00  0.00     0.275 C 
HETATM    6  N2  UNL     1      19.951   1.049  53.276  1.00  0.00     0.098 N 
HETATM    7  C7  UNL     1      18.996   0.198  52.635  1.00  0.00     0.299 C 
HETATM    8  C8  UNL     1      18.690  -1.037  53.510  1.00  0.00     0.207 C 
HETATM    9  O3  UNL     1      19.879  -1.757  53.815  1.00  0.00    -0.335 OA
HETATM   10  C9  UNL     1      21.055  -0.989  53.700  1.00  0.00     0.171 C 
HETATM   11  N3  UNL     1      22.163  -1.381  53.177  1.00  0.00    -0.209 NA
HETATM   12  C10 UNL     1      23.343  -0.621  53.055  1.00  0.00     0.297 C 
HETATM   13  N4  UNL     1      24.069   0.234  52.688  1.00  0.00    -0.413 NA
HETATM   14  C11 UNL     1      24.775   1.262  52.182  1.00  0.00     0.294 C 
HETATM   15  C18 UNL     1      20.699   0.331  54.310  1.00  0.00     0.358 C 
ENDROOT
BRANCH  14  16
HETATM   16  N5  UNL     1      25.622   1.965  53.161  1.00  0.00    -0.356 N 
HETATM   17  H18 UNL     1      25.427   2.792  53.779  1.00  0.00     0.163 HD
BRANCH  16  18
HETATM   18  C12 UNL     1      26.955   1.483  53.364  1.00  0.00     0.032 A 
HETATM   19  C13 UNL     1      28.006   2.299  53.729  1.00  0.00     0.032 A 
HETATM   20  C14 UNL     1      29.299   1.861  53.922  1.00  0.00     0.046 A 
HETATM   21  C15 UNL     1      29.592   0.524  53.748  1.00  0.00     0.138 A 
HETATM   22  F1  UNL     1      30.853   0.075  53.934  1.00  0.00    -0.204 F 
HETATM   23  C16 UNL     1      28.586  -0.341  53.384  1.00  0.00     0.074 A 
HETATM   24 CL1  UNL     1      28.942  -2.032  53.160  1.00  0.00    -0.081 Cl
HETATM   25  C17 UNL     1      27.338   0.166  53.211  1.00  0.00     0.056 A 
ENDBRANCH  16  18
ENDBRANCH  14  16
BRANCH   1  26
HETATM   26  C2  UNL     1      25.075   3.213  50.810  1.00  0.00     0.158 C 
BRANCH  26  27
HETATM   27  N1  UNL     1      24.860   4.601  51.190  1.00  0.00    -0.366 N 
HETATM   28  H2  UNL     1      25.462   5.455  51.138  1.00  0.00     0.161 HD
BRANCH  27  29
HETATM   29  C1  UNL     1      23.565   4.840  51.747  1.00  0.00     0.348 C 
HETATM   30  O1  UNL     1      22.678   5.525  51.179  1.00  0.00    -0.284 OA
ENDBRANCH  27  29
ENDBRANCH  26  27
ENDBRANCH   1  26
TORSDOF 5
ENDMDL
MODEL 5
REMARK VINA RESULT:      -7.9      2.745      4.383
REMARK  5 active torsions:
REMARK  status: ('A' for Active; 'I' for Inactive)
REMARK    1  A    between atoms: C1_2  and  N1_3 
REMARK    2  A    between atoms: N1_3  and  C2_4 
REMARK    3  A    between atoms: C2_4  and  C3_5 
REMARK    4  A    between atoms: C11_18  and  N5_19 
REMARK    5  A    between atoms: N5_19  and  C12_20 
ROOT
HETATM    1  C3  UNL     1      22.590   0.568  52.611  1.00  0.00     0.194 C 
HETATM    2  O2  UNL     1      21.669   1.112  53.443  1.00  0.00    -0.379 OA
HETATM    3  C4  UNL     1      20.407   1.381  53.126  1.00  0.00     0.170 C 
HETATM    4  C5  UNL     1      20.122   2.451  52.120  1.00  0.00     0.056 C 
HETATM    5  C6  UNL     1      20.572   2.330  50.741  1.00  0.00     0.275 C 
HETATM    6  N2  UNL     1      20.332   3.474  49.870  1.00  0.00     0.098 N 
HETATM    7  C7  UNL     1      19.332   4.393  50.321  1.00  0.00     0.299 C 
HETATM    8  C8  UNL     1      19.706   5.841  49.937  1.00  0.00     0.207 C 
HETATM    9  O3  UNL     1      20.984   6.196  50.454  1.00  0.00    -0.335 OA
HETATM   10  C9  UNL     1      21.804   5.089  50.752  1.00  0.00     0.171 C 
HETATM   11  N3  UNL     1      22.546   4.959  51.795  1.00  0.00    -0.209 NA
HETATM   12  C10 UNL     1      23.368   3.857  52.102  1.00  0.00     0.297 C 
HETATM   13  N4  UNL     1      23.666   2.750  52.386  1.00  0.00    -0.413 NA
HETATM   14  C11 UNL     1      23.850   1.458  52.711  1.00  0.00     0.294 C 
HETATM   15  C18 UNL     1      21.600   4.154  49.600  1.00  0.00     0.358 C 
ENDROOT
BRANCH  14  16
HETATM   16  N5  UNL     1      24.952   0.795  51.990  1.00  0.00    -0.356 N 
HETATM   17  H18 UNL     1      24.968   0.267  51.081  1.00  0.00     0.163 HD
BRANCH  16  18
HETATM   18  C12 UNL     1      26.260   0.849  52.569  1.00  0.00     0.032 A 
HETATM   19  C13 UNL     1      26.831   2.015  53.036  1.00  0.00     0.032 A 
HETATM   20  C14 UNL     1      28.091   2.095  53.591  1.00  0.00     0.046 A 
HETATM   21  C15 UNL     1      28.854   0.951  53.701  1.00  0.00     0.138 A 
HETATM   22  F1  UNL     1      30.090   1.008  54.243  1.00  0.00    -0.204 F 
HETATM   23  C16 UNL     1      28.340  -0.244  53.253  1.00  0.00     0.074 A 
HETATM   24 CL1  UNL     1      29.292  -1.697  53.386  1.00  0.00    -0.081 Cl
HETATM   25  C17 UNL     1      27.091  -0.242  52.718  1.00  0.00     0.056 A 
ENDBRANCH  16  18
ENDBRANCH  14  16
BRANCH   1  26
HETATM   26  C2  UNL     1      23.109  -0.769  53.232  1.00  0.00     0.158 C 
BRANCH  26  27
HETATM   27  N1  UNL     1      22.761  -0.836  54.643  1.00  0.00    -0.366 N 
HETATM   28  H2  UNL     1      21.920  -0.529  55.184  1.00  0.00     0.161 HD
BRANCH  27  29
HETATM   29  C1  UNL     1      23.775  -1.443  55.447  1.00  0.00     0.348 C 
HETATM   30  O1  UNL     1      24.995  -1.156  55.365  1.00  0.00    -0.284 OA
ENDBRANCH  27  29
ENDBRANCH  26  27
ENDBRANCH   1  26
TORSDOF 5
ENDMDL
MODEL 6
REMARK VINA RESULT:      -7.6      4.305      7.957
REMARK  5 active torsions:
REMARK  status: ('A' for Active; 'I' for Inactive)
REMARK    1  A    between atoms: C1_2  and  N1_3 
REMARK    2  A    between atoms: N1_3  and  C2_4 
REMARK    3  A    between atoms: C2_4  and  C3_5 
REMARK    4  A    between atoms: C11_18  and  N5_19 
REMARK    5  A    between atoms: N5_19  and  C12_20 
ROOT
HETATM    1  C3  UNL     1      22.509   2.275  51.552  1.00  0.00     0.194 C 
HETATM    2  O2  UNL     1      23.020   3.056  52.534  1.00  0.00    -0.379 OA
HETATM    3  C4  UNL     1      24.256   3.541  52.569  1.00  0.00     0.170 C 
HETATM    4  C5  UNL     1      25.404   2.596  52.733  1.00  0.00     0.056 C 
HETATM    5  C6  UNL     1      25.698   1.583  51.730  1.00  0.00     0.275 C 
HETATM    6  N2  UNL     1      26.773   0.647  52.037  1.00  0.00     0.098 N 
HETATM    7  C7  UNL     1      27.683   1.068  53.058  1.00  0.00     0.299 C 
HETATM    8  C8  UNL     1      28.164  -0.138  53.894  1.00  0.00     0.207 C 
HETATM    9  O3  UNL     1      27.064  -0.840  54.461  1.00  0.00    -0.335 OA
HETATM   10  C9  UNL     1      25.843  -0.622  53.791  1.00  0.00     0.171 C 
HETATM   11  N3  UNL     1      24.700  -0.432  54.350  1.00  0.00    -0.209 NA
HETATM   12  C10 UNL     1      23.475  -0.211  53.690  1.00  0.00     0.297 C 
HETATM   13  N4  UNL     1      22.663   0.332  53.027  1.00  0.00    -0.413 NA
HETATM   14  C11 UNL     1      21.844   1.068  52.254  1.00  0.00     0.294 C 
HETATM   15  C18 UNL     1      26.202  -0.667  52.338  1.00  0.00     0.358 C 
ENDROOT
BRANCH  14  16
HETATM   16  N5  UNL     1      21.092   0.296  51.249  1.00  0.00    -0.356 N 
HETATM   17  H18 UNL     1      21.380  -0.095  50.317  1.00  0.00     0.163 HD
BRANCH  16  18
HETATM   18  C12 UNL     1      19.725  -0.020  51.532  1.00  0.00     0.032 A 
HETATM   19  C13 UNL     1      19.306  -0.545  52.738  1.00  0.00     0.032 A 
HETATM   20  C14 UNL     1      17.998  -0.864  53.033  1.00  0.00     0.046 A 
HETATM   21  C15 UNL     1      17.021  -0.657  52.083  1.00  0.00     0.138 A 
HETATM   22  F1  UNL     1      15.733  -0.963  52.353  1.00  0.00    -0.204 F 
HETATM   23  C16 UNL     1      17.375  -0.136  50.859  1.00  0.00     0.074 A 
HETATM   24 CL1  UNL     1      16.152   0.131  49.648  1.00  0.00    -0.081 Cl
HETATM   25  C17 UNL     1      18.685   0.153  50.643  1.00  0.00     0.056 A 
ENDBRANCH  16  18
ENDBRANCH  14  16
BRANCH   1  26
HETATM   26  C2  UNL     1      21.268   2.989  50.928  1.00  0.00     0.158 C 
BRANCH  26  27
HETATM   27  N1  UNL     1      20.425   3.541  51.978  1.00  0.00    -0.366 N 
HETATM   28  H2  UNL     1      20.595   3.758  52.987  1.00  0.00     0.161 HD
BRANCH  27  29
HETATM   29  C1  UNL     1      19.099   3.844  51.537  1.00  0.00     0.348 C 
HETATM   30  O1  UNL     1      18.063   3.369  52.066  1.00  0.00    -0.284 OA
ENDBRANCH  27  29
ENDBRANCH  26  27
ENDBRANCH   1  26
TORSDOF 5
ENDMDL
MODEL 7
REMARK VINA RESULT:      -7.5      3.434      5.286
REMARK  5 active torsions:
REMARK  status: ('A' for Active; 'I' for Inactive)
REMARK    1  A    between atoms: C1_2  and  N1_3 
REMARK    2  A    between atoms: N1_3  and  C2_4 
REMARK    3  A    between atoms: C2_4  and  C3_5 
REMARK    4  A    between atoms: C11_18  and  N5_19 
REMARK    5  A    between atoms: N5_19  and  C12_20 
ROOT
HETATM    1  C3  UNL     1      24.853   1.777  51.560  1.00  0.00     0.194 C 
HETATM    2  O2  UNL     1      24.358   1.882  52.817  1.00  0.00    -0.379 OA
HETATM    3  C4  UNL     1      23.543   1.010  53.400  1.00  0.00     0.170 C 
HETATM    4  C5  UNL     1      22.152   0.849  52.872  1.00  0.00     0.056 C 
HETATM    5  C6  UNL     1      21.908   0.362  51.522  1.00  0.00     0.275 C 
HETATM    6  N2  UNL     1      20.522   0.341  51.072  1.00  0.00     0.098 N 
HETATM    7  C7  UNL     1      19.537   0.389  52.109  1.00  0.00     0.299 C 
HETATM    8  C8  UNL     1      18.301   1.195  51.654  1.00  0.00     0.207 C 
HETATM    9  O3  UNL     1      18.666   2.509  51.248  1.00  0.00    -0.335 OA
HETATM   10  C9  UNL     1      20.023   2.637  50.888  1.00  0.00     0.171 C 
HETATM   11  N3  UNL     1      20.798   3.615  51.202  1.00  0.00    -0.209 NA
HETATM   12  C10 UNL     1      22.155   3.751  50.849  1.00  0.00     0.297 C 
HETATM   13  N4  UNL     1      23.312   3.521  50.814  1.00  0.00    -0.413 NA
HETATM   14  C11 UNL     1      24.601   3.139  50.874  1.00  0.00     0.294 C 
HETATM   15  C18 UNL     1      20.314   1.404  50.088  1.00  0.00     0.358 C 
ENDROOT
BRANCH  14  16
HETATM   16  N5  UNL     1      25.306   3.152  49.580  1.00  0.00    -0.356 N 
HETATM   17  H18 UNL     1      25.414   2.411  48.843  1.00  0.00     0.163 HD
BRANCH  16  18
HETATM   18  C12 UNL     1      25.973   4.357  49.192  1.00  0.00     0.032 A 
HETATM   19  C13 UNL     1      25.333   5.577  49.096  1.00  0.00     0.032 A 
HETATM   20  C14 UNL     1      25.951   6.750  48.718  1.00  0.00     0.046 A 
HETATM   21  C15 UNL     1      27.295   6.737  48.409  1.00  0.00     0.138 A 
HETATM   22  F1  UNL     1      27.919   7.876  48.037  1.00  0.00    -0.204 F 
HETATM   23  C16 UNL     1      27.989   5.550  48.485  1.00  0.00     0.074 A 
HETATM   24 CL1  UNL     1      29.687   5.518  48.097  1.00  0.00    -0.081 Cl
HETATM   25  C17 UNL     1      27.311   4.436  48.865  1.00  0.00     0.056 A 
ENDBRANCH  16  18
ENDBRANCH  14  16
BRANCH   1  26
HETATM   26  C2  UNL     1      26.414   1.752  51.629  1.00  0.00     0.158 C 
BRANCH  26  27
HETATM   27  N1  UNL     1      26.880   2.552  52.750  1.00  0.00    -0.366 N 
HETATM   28  H2  UNL     1      26.596   3.487  53.125  1.00  0.00     0.161 HD
BRANCH  27  29
HETATM   29  C1  UNL     1      27.939   1.933  53.485  1.00  0.00     0.348 C 
HETATM   30  O1  UNL     1      27.804   1.471  54.646  1.00  0.00    -0.284 OA
ENDBRANCH  27  29
ENDBRANCH  26  27
ENDBRANCH   1  26
TORSDOF 5
ENDMDL
MODEL 8
REMARK VINA RESULT:      -7.5      3.785      5.675
REMARK  5 active torsions:
REMARK  status: ('A' for Active; 'I' for Inactive)
REMARK    1  A    between atoms: C1_2  and  N1_3 
REMARK    2  A    between atoms: N1_3  and  C2_4 
REMARK    3  A    between atoms: C2_4  and  C3_5 
REMARK    4  A    between atoms: C11_18  and  N5_19 
REMARK    5  A    between atoms: N5_19  and  C12_20 
ROOT
HETATM    1  C3  UNL     1      24.373   1.362  52.410  1.00  0.00     0.194 C 
HETATM    2  O2  UNL     1      23.713   0.808  53.456  1.00  0.00    -0.379 OA
HETATM    3  C4  UNL     1      22.849  -0.198  53.377  1.00  0.00     0.170 C 
HETATM    4  C5  UNL     1      21.545   0.016  52.675  1.00  0.00     0.056 C 
HETATM    5  C6  UNL     1      21.495   0.334  51.256  1.00  0.00     0.275 C 
HETATM    6  N2  UNL     1      20.181   0.625  50.694  1.00  0.00     0.098 N 
HETATM    7  C7  UNL     1      19.066   0.165  51.465  1.00  0.00     0.299 C 
HETATM    8  C8  UNL     1      17.883   1.150  51.359  1.00  0.00     0.207 C 
HETATM    9  O3  UNL     1      18.267   2.459  51.765  1.00  0.00    -0.335 OA
HETATM   10  C9  UNL     1      19.656   2.690  51.702  1.00  0.00     0.171 C 
HETATM   11  N3  UNL     1      20.358   3.311  52.583  1.00  0.00    -0.209 NA
HETATM   12  C10 UNL     1      21.746   3.545  52.530  1.00  0.00     0.297 C 
HETATM   13  N4  UNL     1      22.903   3.311  52.524  1.00  0.00    -0.413 NA
HETATM   14  C11 UNL     1      24.182   2.891  52.532  1.00  0.00     0.294 C 
HETATM   15  C18 UNL     1      20.080   2.058  50.412  1.00  0.00     0.358 C 
ENDROOT
BRANCH  14  16
HETATM   16  N5  UNL     1      25.051   3.554  51.543  1.00  0.00    -0.356 N 
HETATM   17  H18 UNL     1      26.091   3.705  51.526  1.00  0.00     0.163 HD
BRANCH  16  18
HETATM   18  C12 UNL     1      24.438   4.101  50.371  1.00  0.00     0.032 A 
HETATM   19  C13 UNL     1      24.500   5.440  50.042  1.00  0.00     0.032 A 
HETATM   20  C14 UNL     1      23.913   5.992  48.924  1.00  0.00     0.046 A 
HETATM   21  C15 UNL     1      23.211   5.180  48.058  1.00  0.00     0.138 A 
HETATM   22  F1  UNL     1      22.628   5.702  46.956  1.00  0.00    -0.204 F 
HETATM   23  C16 UNL     1      23.112   3.835  48.332  1.00  0.00     0.074 A 
HETATM   24 CL1  UNL     1      22.228   2.796  47.248  1.00  0.00    -0.081 Cl
HETATM   25  C17 UNL     1      23.718   3.365  49.454  1.00  0.00     0.056 A 
ENDBRANCH  16  18
ENDBRANCH  14  16
BRANCH   1  26
HETATM   26  C2  UNL     1      25.911   1.226  52.650  1.00  0.00     0.158 C 
BRANCH  26  27
HETATM   27  N1  UNL     1      26.215   1.385  54.064  1.00  0.00    -0.366 N 
HETATM   28  H2  UNL     1      26.036   2.155  54.748  1.00  0.00     0.161 HD
BRANCH  27  29
HETATM   29  C1  UNL     1      26.896   0.260  54.626  1.00  0.00     0.348 C 
HETATM   30  O1  UNL     1      26.855  -0.896  54.136  1.00  0.00    -0.284 OA
ENDBRANCH  27  29
ENDBRANCH  26  27
ENDBRANCH   1  26
TORSDOF 5
ENDMDL
MODEL 9
REMARK VINA RESULT:      -7.3      4.056      7.430
REMARK  5 active torsions:
REMARK  status: ('A' for Active; 'I' for Inactive)
REMARK    1  A    between atoms: C1_2  and  N1_3 
REMARK    2  A    between atoms: N1_3  and  C2_4 
REMARK    3  A    between atoms: C2_4  and  C3_5 
REMARK    4  A    between atoms: C11_18  and  N5_19 
REMARK    5  A    between atoms: N5_19  and  C12_20 
ROOT
HETATM    1  C3  UNL     1      22.762   2.585  51.906  1.00  0.00     0.194 C 
HETATM    2  O2  UNL     1      23.193   3.097  53.084  1.00  0.00    -0.379 OA
HETATM    3  C4  UNL     1      24.403   3.595  53.312  1.00  0.00     0.170 C 
HETATM    4  C5  UNL     1      25.584   2.676  53.287  1.00  0.00     0.056 C 
HETATM    5  C6  UNL     1      25.967   1.972  52.072  1.00  0.00     0.275 C 
HETATM    6  N2  UNL     1      27.068   1.023  52.183  1.00  0.00     0.098 N 
HETATM    7  C7  UNL     1      27.912   1.190  53.326  1.00  0.00     0.299 C 
HETATM    8  C8  UNL     1      28.409  -0.177  53.845  1.00  0.00     0.207 C 
HETATM    9  O3  UNL     1      27.317  -1.038  54.148  1.00  0.00    -0.335 OA
HETATM   10  C9  UNL     1      26.119  -0.691  53.492  1.00  0.00     0.171 C 
HETATM   11  N3  UNL     1      24.945  -0.690  54.018  1.00  0.00    -0.209 NA
HETATM   12  C10 UNL     1      23.742  -0.343  53.372  1.00  0.00     0.297 C 
HETATM   13  N4  UNL     1      22.937   0.330  52.830  1.00  0.00    -0.413 NA
HETATM   14  C11 UNL     1      22.121   1.216  52.231  1.00  0.00     0.294 C 
HETATM   15  C18 UNL     1      26.545  -0.342  52.100  1.00  0.00     0.358 C 
ENDROOT
BRANCH  14  16
HETATM   16  N5  UNL     1      21.450   0.712  51.020  1.00  0.00    -0.356 N 
HETATM   17  H18 UNL     1      21.814   0.523  50.053  1.00  0.00     0.163 HD
BRANCH  16  18
HETATM   18  C12 UNL     1      20.057   0.394  51.109  1.00  0.00     0.032 A 
HETATM   19  C13 UNL     1      19.126   0.812  50.180  1.00  0.00     0.032 A 
HETATM   20  C14 UNL     1      17.779   0.525  50.247  1.00  0.00     0.046 A 
HETATM   21  C15 UNL     1      17.300  -0.228  51.299  1.00  0.00     0.138 A 
HETATM   22  F1  UNL     1      15.984  -0.520  51.383  1.00  0.00    -0.204 F 
HETATM   23  C16 UNL     1      18.180  -0.675  52.259  1.00  0.00     0.074 A 
HETATM   24 CL1  UNL     1      17.589  -1.626  53.594  1.00  0.00    -0.081 Cl
HETATM   25  C17 UNL     1      19.492  -0.350  52.124  1.00  0.00     0.056 A 
ENDBRANCH  16  18
ENDBRANCH  14  16
BRANCH   1  26
HETATM   26  C2  UNL     1      21.519   3.398  51.422  1.00  0.00     0.158 C 
BRANCH  26  27
HETATM   27  N1  UNL     1      21.786   4.001  50.125  1.00  0.00    -0.366 N 
HETATM   28  H2  UNL     1      21.166   4.405  49.386  1.00  0.00     0.161 HD
BRANCH  27  29
HETATM   29  C1  UNL     1      23.178   4.049  49.800  1.00  0.00     0.348 C 
HETATM   30  O1  UNL     1      23.854   5.108  49.784  1.00  0.00    -0.284 OA
ENDBRANCH  27  29
ENDBRANCH  26  27
ENDBRANCH   1  26
TORSDOF 5
ENDMDL
