MODEL 1
REMARK VINA RESULT:      -9.4      0.000      0.000
REMARK  2 active torsions:
REMARK  status: ('A' for Active; 'I' for Inactive)
REMARK    1  A    between atoms: C4_5  and  N1_6 
REMARK    2  A    between atoms: N1_6  and  C5_7 
ROOT
HETATM    1  C5  UNL     1      24.843   2.243  52.531  1.00  0.00     0.109 C 
HETATM    2  N2  UNL     1      24.062   3.322  52.585  1.00  0.00    -0.228 NA
HETATM    3  C6  UNL     1      22.737   3.297  52.172  1.00  0.00     0.237 C 
HETATM    4  N3  UNL     1      21.539   3.763  52.278  1.00  0.00    -0.217 NA
HETATM    5  C7  UNL     1      20.517   3.168  51.409  1.00  0.00     0.181 C 
HETATM    6  C8  UNL     1      19.269   2.992  51.852  1.00  0.00     0.141 C 
HETATM    7  N4  UNL     1      18.463   1.819  51.477  1.00  0.00    -0.391 N 
HETATM    8  C9  UNL     1      18.967   0.518  50.905  1.00  0.00     0.155 C 
HETATM    9  C10 UNL     1      20.477   0.725  50.914  1.00  0.00    -0.037 C 
HETATM   10  C11 UNL     1      21.094   0.321  52.005  1.00  0.00     0.025 C 
HETATM   11  C12 UNL     1      22.063   0.008  53.016  1.00  0.00     0.007 C 
HETATM   12 BR1  UNL     1      21.587  -0.888  54.671  1.00  0.00    -0.051 Br
HETATM   13  C13 UNL     1      23.382   0.297  52.919  1.00  0.00    -0.000 C 
HETATM   14  C14 UNL     1      24.339   0.913  52.013  1.00  0.00     0.107 C 
HETATM   15  C15 UNL     1      21.061   1.400  49.690  1.00  0.00     0.213 C 
HETATM   16  O1  UNL     1      21.013   2.809  50.094  1.00  0.00    -0.329 OA
HETATM   17  H6  UNL     1      17.491   2.151  51.728  1.00  0.00     0.159 HD
ENDROOT
BRANCH   1  18
HETATM   18  N1  UNL     1      26.147   2.512  53.009  1.00  0.00    -0.344 N 
HETATM   19  H3  UNL     1      26.319   3.527  53.198  1.00  0.00     0.167 HD
BRANCH  18  20
HETATM   20  C4  UNL     1      27.166   1.552  53.221  1.00  0.00     0.035 A 
HETATM   21  C3  UNL     1      28.374   1.995  53.747  1.00  0.00     0.032 A 
HETATM   22  C2  UNL     1      29.456   1.200  54.005  1.00  0.00     0.046 A 
HETATM   23  C1  UNL     1      29.345  -0.155  53.720  1.00  0.00     0.138 A 
HETATM   24  F1  UNL     1      30.378  -0.970  53.955  1.00  0.00    -0.204 F 
HETATM   25  C17 UNL     1      28.167  -0.657  53.193  1.00  0.00     0.074 A 
HETATM   26  C16 UNL     1      27.145   0.222  52.973  1.00  0.00     0.056 A 
HETATM   27 CL1  UNL     1      28.010  -2.353  52.829  1.00  0.00    -0.081 Cl
ENDBRANCH  18  20
ENDBRANCH   1  18
TORSDOF 2
ENDMDL
MODEL 2
REMARK VINA RESULT:      -9.0      2.231      2.839
REMARK  2 active torsions:
REMARK  status: ('A' for Active; 'I' for Inactive)
REMARK    1  A    between atoms: C4_5  and  N1_6 
REMARK    2  A    between atoms: N1_6  and  C5_7 
ROOT
HETATM    1  C5  UNL     1      24.933   2.707  52.144  1.00  0.00     0.109 C 
HETATM    2  N2  UNL     1      24.546   1.908  51.150  1.00  0.00    -0.228 NA
HETATM    3  C6  UNL     1      23.207   1.702  50.846  1.00  0.00     0.237 C 
HETATM    4  N3  UNL     1      22.304   1.427  49.967  1.00  0.00    -0.217 NA
HETATM    5  C7  UNL     1      20.914   1.381  50.435  1.00  0.00     0.181 C 
HETATM    6  C8  UNL     1      19.922   1.821  49.656  1.00  0.00     0.141 C 
HETATM    7  N4  UNL     1      18.753   2.531  50.202  1.00  0.00    -0.391 N 
HETATM    8  C9  UNL     1      18.643   3.191  51.554  1.00  0.00     0.155 C 
HETATM    9  C10 UNL     1      20.045   3.001  52.120  1.00  0.00    -0.037 C 
HETATM   10  C11 UNL     1      20.891   3.977  51.869  1.00  0.00     0.025 C 
HETATM   11  C12 UNL     1      22.046   4.826  51.783  1.00  0.00     0.007 C 
HETATM   12 BR1  UNL     1      21.998   6.562  50.916  1.00  0.00    -0.051 Br
HETATM   13  C13 UNL     1      23.260   4.509  52.292  1.00  0.00    -0.000 C 
HETATM   14  C14 UNL     1      23.939   3.445  53.015  1.00  0.00     0.107 C 
HETATM   15  C15 UNL     1      20.289   1.702  52.861  1.00  0.00     0.213 C 
HETATM   16  O1  UNL     1      20.772   0.843  51.775  1.00  0.00    -0.329 OA
HETATM   17  H6  UNL     1      18.070   2.445  49.399  1.00  0.00     0.159 HD
ENDROOT
BRANCH   1  18
HETATM   18  N1  UNL     1      26.343   2.760  52.258  1.00  0.00    -0.344 N 
HETATM   19  H3  UNL     1      26.749   3.678  51.960  1.00  0.00     0.167 HD
BRANCH  18  20
HETATM   20  C4  UNL     1      27.177   1.710  52.712  1.00  0.00     0.035 A 
HETATM   21  C3  UNL     1      28.330   2.055  53.408  1.00  0.00     0.032 A 
HETATM   22  C2  UNL     1      29.240   1.165  53.906  1.00  0.00     0.046 A 
HETATM   23  C1  UNL     1      29.000  -0.187  53.705  1.00  0.00     0.138 A 
HETATM   24  F1  UNL     1      29.863  -1.093  54.174  1.00  0.00    -0.204 F 
HETATM   25  C17 UNL     1      27.868  -0.594  53.019  1.00  0.00     0.074 A 
HETATM   26  C16 UNL     1      27.021   0.375  52.561  1.00  0.00     0.056 A 
HETATM   27 CL1  UNL     1      27.549  -2.286  52.756  1.00  0.00    -0.081 Cl
ENDBRANCH  18  20
ENDBRANCH   1  18
TORSDOF 2
ENDMDL
MODEL 3
REMARK VINA RESULT:      -8.7      3.224      4.075
REMARK  2 active torsions:
REMARK  status: ('A' for Active; 'I' for Inactive)
REMARK    1  A    between atoms: C4_5  and  N1_6 
REMARK    2  A    between atoms: N1_6  and  C5_7 
ROOT
HETATM    1  C5  UNL     1      24.899   2.422  52.246  1.00  0.00     0.109 C 
HETATM    2  N2  UNL     1      24.022   3.199  52.883  1.00  0.00    -0.228 NA
HETATM    3  C6  UNL     1      23.512   4.359  52.315  1.00  0.00     0.237 C 
HETATM    4  N3  UNL     1      22.547   5.208  52.217  1.00  0.00    -0.217 NA
HETATM    5  C7  UNL     1      22.739   6.327  51.289  1.00  0.00     0.181 C 
HETATM    6  C8  UNL     1      21.714   6.798  50.573  1.00  0.00     0.141 C 
HETATM    7  N4  UNL     1      21.877   7.272  49.189  1.00  0.00    -0.391 N 
HETATM    8  C9  UNL     1      23.030   6.979  48.260  1.00  0.00     0.155 C 
HETATM    9  C10 UNL     1      23.880   6.028  49.092  1.00  0.00    -0.037 C 
HETATM   10  C11 UNL     1      23.613   4.748  48.935  1.00  0.00     0.025 C 
HETATM   11  C12 UNL     1      23.588   3.316  49.015  1.00  0.00     0.007 C 
HETATM   12 BR1  UNL     1      22.408   2.234  47.916  1.00  0.00    -0.051 Br
HETATM   13  C13 UNL     1      24.371   2.588  49.845  1.00  0.00    -0.000 C 
HETATM   14  C14 UNL     1      25.402   2.752  50.858  1.00  0.00     0.107 C 
HETATM   15  C15 UNL     1      24.892   6.678  50.015  1.00  0.00     0.213 C 
HETATM   16  O1  UNL     1      24.104   6.815  51.245  1.00  0.00    -0.329 OA
HETATM   17  H6  UNL     1      20.991   7.834  49.060  1.00  0.00     0.159 HD
ENDROOT
BRANCH   1  18
HETATM   18  N1  UNL     1      25.268   1.298  53.022  1.00  0.00    -0.344 N 
HETATM   19  H3  UNL     1      24.459   0.844  53.506  1.00  0.00     0.167 HD
BRANCH  18  20
HETATM   20  C4  UNL     1      26.583   0.796  53.177  1.00  0.00     0.035 A 
HETATM   21  C3  UNL     1      27.590   1.703  53.487  1.00  0.00     0.032 A 
HETATM   22  C2  UNL     1      28.907   1.382  53.664  1.00  0.00     0.046 A 
HETATM   23  C1  UNL     1      29.272   0.049  53.523  1.00  0.00     0.138 A 
HETATM   24  F1  UNL     1      30.549  -0.311  53.686  1.00  0.00    -0.204 F 
HETATM   25  C17 UNL     1      28.314  -0.902  53.214  1.00  0.00     0.074 A 
HETATM   26  C16 UNL     1      27.025  -0.477  53.058  1.00  0.00     0.056 A 
HETATM   27 CL1  UNL     1      28.753  -2.578  53.033  1.00  0.00    -0.081 Cl
ENDBRANCH  18  20
ENDBRANCH   1  18
TORSDOF 2
ENDMDL
MODEL 4
REMARK VINA RESULT:      -8.5      2.896      3.815
REMARK  2 active torsions:
REMARK  status: ('A' for Active; 'I' for Inactive)
REMARK    1  A    between atoms: C4_5  and  N1_6 
REMARK    2  A    between atoms: N1_6  and  C5_7 
ROOT
HETATM    1  C5  UNL     1      23.873   1.409  52.670  1.00  0.00     0.109 C 
HETATM    2  N2  UNL     1      23.104   0.770  51.788  1.00  0.00    -0.228 NA
HETATM    3  C6  UNL     1      22.343   1.448  50.844  1.00  0.00     0.237 C 
HETATM    4  N3  UNL     1      21.786   1.466  49.681  1.00  0.00    -0.217 NA
HETATM    5  C7  UNL     1      21.055   2.684  49.314  1.00  0.00     0.181 C 
HETATM    6  C8  UNL     1      21.076   3.134  48.056  1.00  0.00     0.141 C 
HETATM    7  N4  UNL     1      21.103   4.571  47.739  1.00  0.00    -0.391 N 
HETATM    8  C9  UNL     1      21.480   5.698  48.668  1.00  0.00     0.155 C 
HETATM    9  C10 UNL     1      21.891   4.951  49.931  1.00  0.00    -0.037 C 
HETATM   10  C11 UNL     1      23.169   4.644  50.013  1.00  0.00     0.025 C 
HETATM   11  C12 UNL     1      24.456   4.158  50.422  1.00  0.00     0.007 C 
HETATM   12 BR1  UNL     1      26.062   4.464  49.376  1.00  0.00    -0.051 Br
HETATM   13  C13 UNL     1      24.676   3.454  51.556  1.00  0.00    -0.000 C 
HETATM   14  C14 UNL     1      23.968   2.918  52.709  1.00  0.00     0.107 C 
HETATM   15  C15 UNL     1      20.774   4.628  50.903  1.00  0.00     0.213 C 
HETATM   16  O1  UNL     1      20.363   3.302  50.429  1.00  0.00    -0.329 OA
HETATM   17  H6  UNL     1      20.805   4.561  46.724  1.00  0.00     0.159 HD
ENDROOT
BRANCH   1  18
HETATM   18  N1  UNL     1      24.554   0.508  53.523  1.00  0.00    -0.344 N 
HETATM   19  H3  UNL     1      23.922   0.014  54.195  1.00  0.00     0.167 HD
BRANCH  18  20
HETATM   20  C4  UNL     1      25.949   0.262  53.523  1.00  0.00     0.035 A 
HETATM   21  C3  UNL     1      26.390  -0.961  53.030  1.00  0.00     0.032 A 
HETATM   22  C2  UNL     1      27.698  -1.354  52.966  1.00  0.00     0.046 A 
HETATM   23  C1  UNL     1      28.663  -0.468  53.429  1.00  0.00     0.138 A 
HETATM   24  F1  UNL     1      29.954  -0.811  53.387  1.00  0.00    -0.204 F 
HETATM   25  C17 UNL     1      28.285   0.765  53.932  1.00  0.00     0.074 A 
HETATM   26  C16 UNL     1      26.952   1.061  53.952  1.00  0.00     0.056 A 
HETATM   27 CL1  UNL     1      29.481   1.889  54.517  1.00  0.00    -0.081 Cl
ENDBRANCH  18  20
ENDBRANCH   1  18
TORSDOF 2
ENDMDL
MODEL 5
REMARK VINA RESULT:      -8.5      3.479      4.335
REMARK  2 active torsions:
REMARK  status: ('A' for Active; 'I' for Inactive)
REMARK    1  A    between atoms: C4_5  and  N1_6 
REMARK    2  A    between atoms: N1_6  and  C5_7 
ROOT
HETATM    1  C5  UNL     1      24.418   3.678  52.180  1.00  0.00     0.109 C 
HETATM    2  N2  UNL     1      23.488   4.572  52.516  1.00  0.00    -0.228 NA
HETATM    3  C6  UNL     1      22.884   5.398  51.577  1.00  0.00     0.237 C 
HETATM    4  N3  UNL     1      21.854   6.080  51.206  1.00  0.00    -0.217 NA
HETATM    5  C7  UNL     1      21.951   6.784  49.923  1.00  0.00     0.181 C 
HETATM    6  C8  UNL     1      20.886   6.881  49.122  1.00  0.00     0.141 C 
HETATM    7  N4  UNL     1      21.002   6.815  47.655  1.00  0.00    -0.391 N 
HETATM    8  C9  UNL     1      22.166   6.279  46.860  1.00  0.00     0.155 C 
HETATM    9  C10 UNL     1      23.096   5.768  47.954  1.00  0.00    -0.037 C 
HETATM   10  C11 UNL     1      22.928   4.507  48.292  1.00  0.00     0.025 C 
HETATM   11  C12 UNL     1      23.017   3.209  48.899  1.00  0.00     0.007 C 
HETATM   12 BR1  UNL     1      21.918   1.716  48.323  1.00  0.00    -0.051 Br
HETATM   13  C13 UNL     1      23.861   2.900  49.910  1.00  0.00    -0.000 C 
HETATM   14  C14 UNL     1      24.884   3.502  50.751  1.00  0.00     0.107 C 
HETATM   15  C15 UNL     1      24.059   6.785  48.533  1.00  0.00     0.213 C 
HETATM   16  O1  UNL     1      23.273   7.314  49.652  1.00  0.00    -0.329 OA
HETATM   17  H6  UNL     1      20.073   7.225  47.359  1.00  0.00     0.159 HD
ENDROOT
BRANCH   1  18
HETATM   18  N1  UNL     1      24.881   2.953  53.304  1.00  0.00    -0.344 N 
HETATM   19  H3  UNL     1      24.565   3.356  54.217  1.00  0.00     0.167 HD
BRANCH  18  20
HETATM   20  C4  UNL     1      25.699   1.798  53.264  1.00  0.00     0.035 A 
HETATM   21  C3  UNL     1      25.089   0.583  52.973  1.00  0.00     0.032 A 
HETATM   22  C2  UNL     1      25.734  -0.621  52.903  1.00  0.00     0.046 A 
HETATM   23  C1  UNL     1      27.102  -0.636  53.140  1.00  0.00     0.138 A 
HETATM   24  F1  UNL     1      27.774  -1.790  53.082  1.00  0.00    -0.204 F 
HETATM   25  C17 UNL     1      27.767   0.542  53.435  1.00  0.00     0.074 A 
HETATM   26  C16 UNL     1      27.030   1.691  53.482  1.00  0.00     0.056 A 
HETATM   27 CL1  UNL     1      29.483   0.542  53.735  1.00  0.00    -0.081 Cl
ENDBRANCH  18  20
ENDBRANCH   1  18
TORSDOF 2
ENDMDL
MODEL 6
REMARK VINA RESULT:      -8.4      3.428      4.349
REMARK  2 active torsions:
REMARK  status: ('A' for Active; 'I' for Inactive)
REMARK    1  A    between atoms: C4_5  and  N1_6 
REMARK    2  A    between atoms: N1_6  and  C5_7 
ROOT
HETATM    1  C5  UNL     1      23.625   2.403  51.953  1.00  0.00     0.109 C 
HETATM    2  N2  UNL     1      23.125   1.613  51.003  1.00  0.00    -0.228 NA
HETATM    3  C6  UNL     1      22.613   2.118  49.815  1.00  0.00     0.237 C 
HETATM    4  N3  UNL     1      22.373   1.955  48.558  1.00  0.00    -0.217 NA
HETATM    5  C7  UNL     1      21.729   3.070  47.856  1.00  0.00     0.181 C 
HETATM    6  C8  UNL     1      22.059   3.357  46.593  1.00  0.00     0.141 C 
HETATM    7  N4  UNL     1      22.129   4.742  46.098  1.00  0.00    -0.391 N 
HETATM    8  C9  UNL     1      22.225   5.998  46.927  1.00  0.00     0.155 C 
HETATM    9  C10 UNL     1      22.319   5.443  48.343  1.00  0.00    -0.037 C 
HETATM   10  C11 UNL     1      23.540   5.227  48.784  1.00  0.00     0.025 C 
HETATM   11  C12 UNL     1      24.692   4.875  49.565  1.00  0.00     0.007 C 
HETATM   12 BR1  UNL     1      26.504   5.143  48.923  1.00  0.00    -0.051 Br
HETATM   13  C13 UNL     1      24.632   4.336  50.805  1.00  0.00    -0.000 C 
HETATM   14  C14 UNL     1      23.666   3.908  51.806  1.00  0.00     0.107 C 
HETATM   15  C15 UNL     1      20.999   5.179  49.039  1.00  0.00     0.213 C 
HETATM   16  O1  UNL     1      20.757   3.781  48.665  1.00  0.00    -0.329 OA
HETATM   17  H6  UNL     1      22.101   4.586  45.052  1.00  0.00     0.159 HD
ENDROOT
BRANCH   1  18
HETATM   18  N1  UNL     1      24.088   1.660  53.065  1.00  0.00    -0.344 N 
HETATM   19  H3  UNL     1      23.403   1.626  53.856  1.00  0.00     0.167 HD
BRANCH  18  20
HETATM   20  C4  UNL     1      25.344   1.014  53.163  1.00  0.00     0.035 A 
HETATM   21  C3  UNL     1      26.414   1.751  53.658  1.00  0.00     0.032 A 
HETATM   22  C2  UNL     1      27.688   1.278  53.809  1.00  0.00     0.046 A 
HETATM   23  C1  UNL     1      27.937  -0.038  53.442  1.00  0.00     0.138 A 
HETATM   24  F1  UNL     1      29.168  -0.543  53.572  1.00  0.00    -0.204 F 
HETATM   25  C17 UNL     1      26.912  -0.823  52.942  1.00  0.00     0.074 A 
HETATM   26  C16 UNL     1      25.675  -0.255  52.830  1.00  0.00     0.056 A 
HETATM   27 CL1  UNL     1      27.205  -2.475  52.475  1.00  0.00    -0.081 Cl
ENDBRANCH  18  20
ENDBRANCH   1  18
TORSDOF 2
ENDMDL
MODEL 7
REMARK VINA RESULT:      -8.2      2.771      4.385
REMARK  2 active torsions:
REMARK  status: ('A' for Active; 'I' for Inactive)
REMARK    1  A    between atoms: C4_5  and  N1_6 
REMARK    2  A    between atoms: N1_6  and  C5_7 
ROOT
HETATM    1  C5  UNL     1      20.629   2.362  51.786  1.00  0.00     0.109 C 
HETATM    2  N2  UNL     1      19.749   3.310  52.107  1.00  0.00    -0.228 NA
HETATM    3  C6  UNL     1      18.418   3.247  51.713  1.00  0.00     0.237 C 
HETATM    4  N3  UNL     1      17.185   3.546  51.939  1.00  0.00    -0.217 NA
HETATM    5  C7  UNL     1      16.197   3.074  50.963  1.00  0.00     0.181 C 
HETATM    6  C8  UNL     1      14.989   2.668  51.364  1.00  0.00     0.141 C 
HETATM    7  N4  UNL     1      14.290   1.541  50.724  1.00  0.00    -0.391 N 
HETATM    8  C9  UNL     1      14.900   0.474  49.850  1.00  0.00     0.155 C 
HETATM    9  C10 UNL     1      16.381   0.828  49.894  1.00  0.00    -0.037 C 
HETATM   10  C11 UNL     1      17.072   0.242  50.849  1.00  0.00     0.025 C 
HETATM   11  C12 UNL     1      18.102  -0.200  51.745  1.00  0.00     0.007 C 
HETATM   12 BR1  UNL     1      17.774  -1.511  53.140  1.00  0.00    -0.051 Br
HETATM   13  C13 UNL     1      19.382   0.239  51.707  1.00  0.00    -0.000 C 
HETATM   14  C14 UNL     1      20.242   1.150  50.967  1.00  0.00     0.107 C 
HETATM   15  C15 UNL     1      16.853   1.834  48.863  1.00  0.00     0.213 C 
HETATM   16  O1  UNL     1      16.680   3.092  49.595  1.00  0.00    -0.329 OA
HETATM   17  H6  UNL     1      13.299   1.701  51.057  1.00  0.00     0.159 HD
ENDROOT
BRANCH   1  18
HETATM   18  N1  UNL     1      21.917   2.644  52.301  1.00  0.00    -0.344 N 
HETATM   19  H3  UNL     1      22.079   3.662  52.479  1.00  0.00     0.167 HD
BRANCH  18  20
HETATM   20  C4  UNL     1      22.931   1.690  52.563  1.00  0.00     0.035 A 
HETATM   21  C3  UNL     1      22.626   0.642  53.424  1.00  0.00     0.032 A 
HETATM   22  C2  UNL     1      23.491  -0.354  53.782  1.00  0.00     0.046 A 
HETATM   23  C1  UNL     1      24.773  -0.320  53.250  1.00  0.00     0.138 A 
HETATM   24  F1  UNL     1      25.653  -1.273  53.573  1.00  0.00    -0.204 F 
HETATM   25  C17 UNL     1      25.137   0.699  52.386  1.00  0.00     0.074 A 
HETATM   26  C16 UNL     1      24.198   1.647  52.092  1.00  0.00     0.056 A 
HETATM   27 CL1  UNL     1      26.741   0.759  51.709  1.00  0.00    -0.081 Cl
ENDBRANCH  18  20
ENDBRANCH   1  18
TORSDOF 2
ENDMDL
MODEL 8
REMARK VINA RESULT:      -8.1      5.792      6.720
REMARK  2 active torsions:
REMARK  status: ('A' for Active; 'I' for Inactive)
REMARK    1  A    between atoms: C4_5  and  N1_6 
REMARK    2  A    between atoms: N1_6  and  C5_7 
ROOT
HETATM    1  C5  UNL     1      26.530   4.238  49.406  1.00  0.00     0.109 C 
HETATM    2  N2  UNL     1      26.979   3.241  50.170  1.00  0.00    -0.228 NA
HETATM    3  C6  UNL     1      26.172   2.604  51.103  1.00  0.00     0.237 C 
HETATM    4  N3  UNL     1      25.886   1.538  51.771  1.00  0.00    -0.217 NA
HETATM    5  C7  UNL     1      24.743   1.616  52.686  1.00  0.00     0.181 C 
HETATM    6  C8  UNL     1      23.933   0.565  52.850  1.00  0.00     0.141 C 
HETATM    7  N4  UNL     1      22.481   0.718  53.041  1.00  0.00    -0.391 N 
HETATM    8  C9  UNL     1      21.648   1.935  52.723  1.00  0.00     0.155 C 
HETATM    9  C10 UNL     1      22.671   2.872  52.095  1.00  0.00    -0.037 C 
HETATM   10  C11 UNL     1      22.788   2.783  50.786  1.00  0.00     0.025 C 
HETATM   11  C12 UNL     1      23.171   2.947  49.413  1.00  0.00     0.007 C 
HETATM   12 BR1  UNL     1      22.316   1.966  47.972  1.00  0.00    -0.051 Br
HETATM   13  C13 UNL     1      24.144   3.787  48.991  1.00  0.00    -0.000 C 
HETATM   14  C14 UNL     1      25.109   4.747  49.505  1.00  0.00     0.107 C 
HETATM   15  C15 UNL     1      23.445   3.750  53.058  1.00  0.00     0.213 C 
HETATM   16  O1  UNL     1      24.609   2.904  53.339  1.00  0.00    -0.329 OA
HETATM   17  H6  UNL     1      22.227  -0.229  53.435  1.00  0.00     0.159 HD
ENDROOT
BRANCH   1  18
HETATM   18  N1  UNL     1      27.532   4.723  48.532  1.00  0.00    -0.344 N 
HETATM   19  H3  UNL     1      27.914   3.990  47.891  1.00  0.00     0.167 HD
BRANCH  18  20
HETATM   20  C4  UNL     1      28.018   6.052  48.489  1.00  0.00     0.035 A 
HETATM   21  C3  UNL     1      29.347   6.243  48.126  1.00  0.00     0.032 A 
HETATM   22  C2  UNL     1      29.970   7.457  48.042  1.00  0.00     0.046 A 
HETATM   23  C1  UNL     1      29.224   8.589  48.341  1.00  0.00     0.138 A 
HETATM   24  F1  UNL     1      29.792   9.797  48.272  1.00  0.00    -0.204 F 
HETATM   25  C17 UNL     1      27.895   8.464  48.709  1.00  0.00     0.074 A 
HETATM   26  C16 UNL     1      27.367   7.205  48.763  1.00  0.00     0.056 A 
HETATM   27 CL1  UNL     1      26.942   9.873  49.088  1.00  0.00    -0.081 Cl
ENDBRANCH  18  20
ENDBRANCH   1  18
TORSDOF 2
ENDMDL
MODEL 9
REMARK VINA RESULT:      -8.0      5.138      7.138
REMARK  2 active torsions:
REMARK  status: ('A' for Active; 'I' for Inactive)
REMARK    1  A    between atoms: C4_5  and  N1_6 
REMARK    2  A    between atoms: N1_6  and  C5_7 
ROOT
HETATM    1  C5  UNL     1      24.283   4.643  51.053  1.00  0.00     0.109 C 
HETATM    2  N2  UNL     1      25.350   4.059  50.506  1.00  0.00    -0.228 NA
HETATM    3  C6  UNL     1      25.915   2.907  51.037  1.00  0.00     0.237 C 
HETATM    4  N3  UNL     1      26.576   1.815  50.852  1.00  0.00    -0.217 NA
HETATM    5  C7  UNL     1      26.829   0.984  52.034  1.00  0.00     0.181 C 
HETATM    6  C8  UNL     1      26.810  -0.349  51.941  1.00  0.00     0.141 C 
HETATM    7  N4  UNL     1      26.279  -1.201  53.019  1.00  0.00    -0.391 N 
HETATM    8  C9  UNL     1      25.377  -0.775  54.150  1.00  0.00     0.155 C 
HETATM    9  C10 UNL     1      25.114   0.689  53.820  1.00  0.00    -0.037 C 
HETATM   10  C11 UNL     1      24.053   0.917  53.076  1.00  0.00     0.025 C 
HETATM   11  C12 UNL     1      23.006   1.516  52.297  1.00  0.00     0.007 C 
HETATM   12 BR1  UNL     1      21.564   0.475  51.519  1.00  0.00    -0.051 Br
HETATM   13  C13 UNL     1      22.919   2.840  52.033  1.00  0.00    -0.000 C 
HETATM   14  C14 UNL     1      23.614   4.092  52.294  1.00  0.00     0.107 C 
HETATM   15  C15 UNL     1      26.126   1.681  54.357  1.00  0.00     0.213 C 
HETATM   16  O1  UNL     1      27.074   1.751  53.240  1.00  0.00    -0.329 OA
HETATM   17  H6  UNL     1      26.693  -2.138  52.760  1.00  0.00     0.159 HD
ENDROOT
BRANCH   1  18
HETATM   18  N1  UNL     1      23.888   5.796  50.334  1.00  0.00    -0.344 N 
HETATM   19  H3  UNL     1      22.851   5.932  50.305  1.00  0.00     0.167 HD
BRANCH  18  20
HETATM   20  C4  UNL     1      24.759   6.708  49.690  1.00  0.00     0.035 A 
HETATM   21  C3  UNL     1      24.700   6.788  48.303  1.00  0.00     0.032 A 
HETATM   22  C2  UNL     1      25.474   7.610  47.532  1.00  0.00     0.046 A 
HETATM   23  C1  UNL     1      26.391   8.428  48.178  1.00  0.00     0.138 A 
HETATM   24  F1  UNL     1      27.170   9.248  47.465  1.00  0.00    -0.204 F 
HETATM   25  C17 UNL     1      26.498   8.393  49.558  1.00  0.00     0.074 A 
HETATM   26  C16 UNL     1      25.678   7.536  50.236  1.00  0.00     0.056 A 
HETATM   27 CL1  UNL     1      27.643   9.412  50.387  1.00  0.00    -0.081 Cl
ENDBRANCH  18  20
ENDBRANCH   1  18
TORSDOF 2
ENDMDL
