MODEL 1
REMARK VINA RESULT:      -7.6      0.000      0.000
REMARK  8 active torsions:
REMARK  status: ('A' for Active; 'I' for Inactive)
REMARK    1  A    between atoms: C2_2  and  C3_3 
REMARK    2  A    between atoms: C2_2  and  N1_9 
REMARK    3  A    between atoms: C3_3  and  C4_4 
REMARK    4  A    between atoms: C4_4  and  O2_6 
REMARK    5  A    between atoms: O2_6  and  C5_7 
REMARK    6  A    between atoms: N1_9  and  C7_10 
REMARK    7  A    between atoms: C11_16  and  N4_17 
REMARK    8  A    between atoms: N4_17  and  C12_18 
ROOT
HETATM    1  C7  UNL     1      24.080   0.101  53.184  1.00  0.00     0.131 A 
HETATM    2  C8  UNL     1      25.155   0.201  54.203  1.00  0.00     0.034 A 
HETATM    3  C9  UNL     1      26.149   0.920  53.713  1.00  0.00     0.070 A 
HETATM    4  N2  UNL     1      27.309   1.250  54.306  1.00  0.00    -0.241 NA
HETATM    5  C10 UNL     1      28.204   2.001  53.630  1.00  0.00     0.235 A 
HETATM    6  N3  UNL     1      27.915   2.400  52.385  1.00  0.00    -0.224 NA
HETATM    7  C11 UNL     1      26.789   2.121  51.717  1.00  0.00     0.141 A 
HETATM    8  C18 UNL     1      25.893   1.353  52.431  1.00  0.00     0.037 A 
HETATM    9  C19 UNL     1      24.680   0.891  52.078  1.00  0.00     0.020 A 
ENDROOT
BRANCH   1  10
HETATM   10  N1  UNL     1      22.836   0.653  53.641  1.00  0.00    -0.382 N 
HETATM   11  H10 UNL     1      22.725   1.684  53.747  1.00  0.00     0.160 HD
BRANCH  10  12
HETATM   12  C2  UNL     1      21.754  -0.215  53.949  1.00  0.00     0.005 C 
HETATM   13  C1  UNL     1      21.970  -1.374  54.549  1.00  0.00     0.038 C 
BRANCH  12  14
HETATM   14  C3  UNL     1      20.366   0.176  53.593  1.00  0.00     0.166 C 
BRANCH  14  15
HETATM   15  C4  UNL     1      20.394   1.163  52.456  1.00  0.00     0.264 C 
HETATM   16  O1  UNL     1      20.544   0.896  51.236  1.00  0.00    -0.265 OA
BRANCH  15  17
HETATM   17  O2  UNL     1      20.230   2.456  52.949  1.00  0.00    -0.322 OA
BRANCH  17  18
HETATM   18  C5  UNL     1      20.521   3.587  52.125  1.00  0.00     0.174 C 
HETATM   19  C6  UNL     1      21.990   3.933  52.218  1.00  0.00     0.034 C 
ENDBRANCH  17  18
ENDBRANCH  15  17
ENDBRANCH  14  15
ENDBRANCH  12  14
ENDBRANCH  10  12
ENDBRANCH   1  10
BRANCH   7  20
HETATM   20  N4  UNL     1      26.461   2.531  50.403  1.00  0.00    -0.340 N 
HETATM   21  H14 UNL     1      26.232   1.785  49.704  1.00  0.00     0.167 HD
BRANCH  20  22
HETATM   22  C12 UNL     1      26.405   3.850  49.910  1.00  0.00     0.035 A 
HETATM   23  C13 UNL     1      27.259   4.422  48.994  1.00  0.00     0.029 A 
HETATM   24  C14 UNL     1      27.186   5.714  48.524  1.00  0.00     0.004 A 
HETATM   25  C15 UNL     1      26.186   6.523  48.990  1.00  0.00     0.019 A 
HETATM   26  C16 UNL     1      25.299   6.023  49.901  1.00  0.00     0.013 A 
HETATM   27 BR1  UNL     1      23.903   7.134  50.558  1.00  0.00    -0.051 Br
HETATM   28  C17 UNL     1      25.419   4.724  50.337  1.00  0.00     0.048 A 
ENDBRANCH  20  22
ENDBRANCH   7  20
TORSDOF 8
ENDMDL
MODEL 2
REMARK VINA RESULT:      -7.3      4.941      8.997
REMARK  8 active torsions:
REMARK  status: ('A' for Active; 'I' for Inactive)
REMARK    1  A    between atoms: C2_2  and  C3_3 
REMARK    2  A    between atoms: C2_2  and  N1_9 
REMARK    3  A    between atoms: C3_3  and  C4_4 
REMARK    4  A    between atoms: C4_4  and  O2_6 
REMARK    5  A    between atoms: O2_6  and  C5_7 
REMARK    6  A    between atoms: N1_9  and  C7_10 
REMARK    7  A    between atoms: C11_16  and  N4_17 
REMARK    8  A    between atoms: N4_17  and  C12_18 
ROOT
HETATM    1  C7  UNL     1      27.341   5.411  48.597  1.00  0.00     0.131 A 
HETATM    2  C8  UNL     1      26.414   6.420  49.170  1.00  0.00     0.034 A 
HETATM    3  C9  UNL     1      25.547   5.812  49.958  1.00  0.00     0.070 A 
HETATM    4  N2  UNL     1      24.543   6.356  50.668  1.00  0.00    -0.241 NA
HETATM    5  C10 UNL     1      23.759   5.555  51.420  1.00  0.00     0.235 A 
HETATM    6  N3  UNL     1      24.000   4.238  51.442  1.00  0.00    -0.224 NA
HETATM    7  C11 UNL     1      24.974   3.610  50.771  1.00  0.00     0.141 A 
HETATM    8  C18 UNL     1      25.758   4.452  50.011  1.00  0.00     0.037 A 
HETATM    9  C19 UNL     1      26.810   4.172  49.220  1.00  0.00     0.020 A 
ENDROOT
BRANCH   1  10
HETATM   10  N1  UNL     1      28.710   5.660  48.949  1.00  0.00    -0.382 N 
HETATM   11  H10 UNL     1      29.026   5.563  49.938  1.00  0.00     0.160 HD
BRANCH  10  12
HETATM   12  C2  UNL     1      29.636   6.040  47.940  1.00  0.00     0.005 C 
HETATM   13  C1  UNL     1      29.435   7.130  47.217  1.00  0.00     0.038 C 
BRANCH  12  14
HETATM   14  C3  UNL     1      30.841   5.209  47.689  1.00  0.00     0.166 C 
BRANCH  14  15
HETATM   15  C4  UNL     1      31.869   5.474  48.758  1.00  0.00     0.264 C 
HETATM   16  O1  UNL     1      31.668   5.512  49.998  1.00  0.00    -0.265 OA
BRANCH  15  17
HETATM   17  O2  UNL     1      33.116   5.682  48.170  1.00  0.00    -0.322 OA
BRANCH  17  18
HETATM   18  C5  UNL     1      33.670   4.705  47.285  1.00  0.00     0.174 C 
HETATM   19  C6  UNL     1      34.772   3.940  47.980  1.00  0.00     0.034 C 
ENDBRANCH  17  18
ENDBRANCH  15  17
ENDBRANCH  14  15
ENDBRANCH  12  14
ENDBRANCH  10  12
ENDBRANCH   1  10
BRANCH   7  20
HETATM   20  N4  UNL     1      25.248   2.223  50.779  1.00  0.00    -0.340 N 
HETATM   21  H14 UNL     1      25.207   1.714  49.863  1.00  0.00     0.167 HD
BRANCH  20  22
HETATM   22  C12 UNL     1      25.576   1.423  51.892  1.00  0.00     0.035 A 
HETATM   23  C13 UNL     1      24.694   0.774  52.727  1.00  0.00     0.029 A 
HETATM   24  C14 UNL     1      25.037  -0.002  53.811  1.00  0.00     0.004 A 
HETATM   25  C15 UNL     1      26.362  -0.162  54.108  1.00  0.00     0.019 A 
HETATM   26  C16 UNL     1      27.296   0.452  53.321  1.00  0.00     0.013 A 
HETATM   27 BR1  UNL     1      29.143   0.239  53.719  1.00  0.00    -0.051 Br
HETATM   28  C17 UNL     1      26.898   1.218  52.250  1.00  0.00     0.048 A 
ENDBRANCH  20  22
ENDBRANCH   7  20
TORSDOF 8
ENDMDL
MODEL 3
REMARK VINA RESULT:      -7.3      3.197      5.424
REMARK  8 active torsions:
REMARK  status: ('A' for Active; 'I' for Inactive)
REMARK    1  A    between atoms: C2_2  and  C3_3 
REMARK    2  A    between atoms: C2_2  and  N1_9 
REMARK    3  A    between atoms: C3_3  and  C4_4 
REMARK    4  A    between atoms: C4_4  and  O2_6 
REMARK    5  A    between atoms: O2_6  and  C5_7 
REMARK    6  A    between atoms: N1_9  and  C7_10 
REMARK    7  A    between atoms: C11_16  and  N4_17 
REMARK    8  A    between atoms: N4_17  and  C12_18 
ROOT
HETATM    1  C7  UNL     1      23.901   1.846  52.991  1.00  0.00     0.131 A 
HETATM    2  C8  UNL     1      22.467   1.768  52.612  1.00  0.00     0.034 A 
HETATM    3  C9  UNL     1      22.082   2.939  52.139  1.00  0.00     0.070 A 
HETATM    4  N2  UNL     1      20.867   3.295  51.686  1.00  0.00    -0.241 NA
HETATM    5  C10 UNL     1      20.674   4.555  51.240  1.00  0.00     0.235 A 
HETATM    6  N3  UNL     1      21.696   5.419  51.259  1.00  0.00    -0.224 NA
HETATM    7  C11 UNL     1      22.935   5.154  51.689  1.00  0.00     0.141 A 
HETATM    8  C18 UNL     1      23.104   3.862  52.139  1.00  0.00     0.037 A 
HETATM    9  C19 UNL     1      24.199   3.257  52.635  1.00  0.00     0.020 A 
ENDROOT
BRANCH   1  10
HETATM   10  N1  UNL     1      24.713   0.912  52.263  1.00  0.00    -0.382 N 
HETATM   11  H10 UNL     1      24.510   0.706  51.262  1.00  0.00     0.160 HD
BRANCH  10  12
HETATM   12  C2  UNL     1      25.800   0.269  52.917  1.00  0.00     0.005 C 
HETATM   13  C1  UNL     1      26.051  -1.012  52.702  1.00  0.00     0.038 C 
BRANCH  12  14
HETATM   14  C3  UNL     1      26.661   1.038  53.851  1.00  0.00     0.166 C 
BRANCH  14  15
HETATM   15  C4  UNL     1      27.749   1.735  53.077  1.00  0.00     0.264 C 
HETATM   16  O1  UNL     1      27.603   2.432  52.040  1.00  0.00    -0.265 OA
BRANCH  15  17
HETATM   17  O2  UNL     1      28.983   1.498  53.681  1.00  0.00    -0.322 OA
BRANCH  17  18
HETATM   18  C5  UNL     1      29.214   0.285  54.401  1.00  0.00     0.174 C 
HETATM   19  C6  UNL     1      29.909  -0.722  53.513  1.00  0.00     0.034 C 
ENDBRANCH  17  18
ENDBRANCH  15  17
ENDBRANCH  14  15
ENDBRANCH  12  14
ENDBRANCH  10  12
ENDBRANCH   1  10
BRANCH   7  20
HETATM   20  N4  UNL     1      24.031   6.049  51.718  1.00  0.00    -0.340 N 
HETATM   21  H14 UNL     1      24.167   6.623  52.585  1.00  0.00     0.167 HD
BRANCH  20  22
HETATM   22  C12 UNL     1      24.981   6.269  50.701  1.00  0.00     0.035 A 
HETATM   23  C13 UNL     1      25.543   5.315  49.881  1.00  0.00     0.029 A 
HETATM   24  C14 UNL     1      26.471   5.551  48.893  1.00  0.00     0.004 A 
HETATM   25  C15 UNL     1      26.891   6.836  48.683  1.00  0.00     0.019 A 
HETATM   26  C16 UNL     1      26.376   7.836  49.460  1.00  0.00     0.013 A 
HETATM   27 BR1  UNL     1      26.948   9.628  49.182  1.00  0.00    -0.051 Br
HETATM   28  C17 UNL     1      25.451   7.543  50.434  1.00  0.00     0.048 A 
ENDBRANCH  20  22
ENDBRANCH   7  20
TORSDOF 8
ENDMDL
MODEL 4
REMARK VINA RESULT:      -7.3      5.068      9.236
REMARK  8 active torsions:
REMARK  status: ('A' for Active; 'I' for Inactive)
REMARK    1  A    between atoms: C2_2  and  C3_3 
REMARK    2  A    between atoms: C2_2  and  N1_9 
REMARK    3  A    between atoms: C3_3  and  C4_4 
REMARK    4  A    between atoms: C4_4  and  O2_6 
REMARK    5  A    between atoms: O2_6  and  C5_7 
REMARK    6  A    between atoms: N1_9  and  C7_10 
REMARK    7  A    between atoms: C11_16  and  N4_17 
REMARK    8  A    between atoms: N4_17  and  C12_18 
ROOT
HETATM    1  C7  UNL     1      28.802   5.818  48.180  1.00  0.00     0.131 A 
HETATM    2  C8  UNL     1      27.884   6.973  48.021  1.00  0.00     0.034 A 
HETATM    3  C9  UNL     1      26.665   6.608  48.374  1.00  0.00     0.070 A 
HETATM    4  N2  UNL     1      25.543   7.348  48.380  1.00  0.00    -0.241 NA
HETATM    5  C10 UNL     1      24.384   6.784  48.780  1.00  0.00     0.235 A 
HETATM    6  N3  UNL     1      24.379   5.500  49.163  1.00  0.00    -0.224 NA
HETATM    7  C11 UNL     1      25.444   4.690  49.191  1.00  0.00     0.141 A 
HETATM    8  C18 UNL     1      26.614   5.292  48.776  1.00  0.00     0.037 A 
HETATM    9  C19 UNL     1      27.856   4.786  48.677  1.00  0.00     0.020 A 
ENDROOT
BRANCH   1  10
HETATM   10  N1  UNL     1      29.864   6.083  49.109  1.00  0.00    -0.382 N 
HETATM   11  H10 UNL     1      29.804   5.735  50.090  1.00  0.00     0.160 HD
BRANCH  10  12
HETATM   12  C2  UNL     1      30.999   6.825  48.685  1.00  0.00     0.005 C 
HETATM   13  C1  UNL     1      31.389   7.900  49.351  1.00  0.00     0.038 C 
BRANCH  12  14
HETATM   14  C3  UNL     1      31.758   6.396  47.482  1.00  0.00     0.166 C 
BRANCH  14  15
HETATM   15  C4  UNL     1      32.635   5.222  47.831  1.00  0.00     0.264 C 
HETATM   16  O1  UNL     1      33.863   5.257  48.097  1.00  0.00    -0.265 OA
BRANCH  15  17
HETATM   17  O2  UNL     1      31.880   4.050  47.818  1.00  0.00    -0.322 OA
BRANCH  17  18
HETATM   18  C5  UNL     1      31.918   3.178  46.685  1.00  0.00     0.174 C 
HETATM   19  C6  UNL     1      32.772   1.968  46.990  1.00  0.00     0.034 C 
ENDBRANCH  17  18
ENDBRANCH  15  17
ENDBRANCH  14  15
ENDBRANCH  12  14
ENDBRANCH  10  12
ENDBRANCH   1  10
BRANCH   7  20
HETATM   20  N4  UNL     1      25.464   3.333  49.591  1.00  0.00    -0.340 N 
HETATM   21  H14 UNL     1      25.438   2.604  48.838  1.00  0.00     0.167 HD
BRANCH  20  22
HETATM   22  C12 UNL     1      25.516   2.832  50.907  1.00  0.00     0.035 A 
HETATM   23  C13 UNL     1      24.442   2.492  51.700  1.00  0.00     0.029 A 
HETATM   24  C14 UNL     1      24.516   2.004  52.985  1.00  0.00     0.004 A 
HETATM   25  C15 UNL     1      25.749   1.829  53.549  1.00  0.00     0.019 A 
HETATM   26  C16 UNL     1      26.861   2.143  52.820  1.00  0.00     0.013 A 
HETATM   27 BR1  UNL     1      28.585   1.905  53.588  1.00  0.00    -0.051 Br
HETATM   28  C17 UNL     1      26.731   2.629  51.540  1.00  0.00     0.048 A 
ENDBRANCH  20  22
ENDBRANCH   7  20
TORSDOF 8
ENDMDL
MODEL 5
REMARK VINA RESULT:      -7.1      2.976      4.721
REMARK  8 active torsions:
REMARK  status: ('A' for Active; 'I' for Inactive)
REMARK    1  A    between atoms: C2_2  and  C3_3 
REMARK    2  A    between atoms: C2_2  and  N1_9 
REMARK    3  A    between atoms: C3_3  and  C4_4 
REMARK    4  A    between atoms: C4_4  and  O2_6 
REMARK    5  A    between atoms: O2_6  and  C5_7 
REMARK    6  A    between atoms: N1_9  and  C7_10 
REMARK    7  A    between atoms: C11_16  and  N4_17 
REMARK    8  A    between atoms: N4_17  and  C12_18 
ROOT
HETATM    1  C7  UNL     1      25.150   2.003  52.580  1.00  0.00     0.131 A 
HETATM    2  C8  UNL     1      24.104   2.916  53.105  1.00  0.00     0.034 A 
HETATM    3  C9  UNL     1      23.934   3.913  52.255  1.00  0.00     0.070 A 
HETATM    4  N2  UNL     1      23.087   4.952  52.349  1.00  0.00    -0.241 NA
HETATM    5  C10 UNL     1      23.065   5.874  51.363  1.00  0.00     0.235 A 
HETATM    6  N3  UNL     1      23.887   5.732  50.316  1.00  0.00    -0.224 NA
HETATM    7  C11 UNL     1      24.760   4.733  50.138  1.00  0.00     0.141 A 
HETATM    8  C18 UNL     1      24.762   3.806  51.159  1.00  0.00     0.037 A 
HETATM    9  C19 UNL     1      25.498   2.691  51.310  1.00  0.00     0.020 A 
ENDROOT
BRANCH   1  10
HETATM   10  N1  UNL     1      24.660   0.670  52.367  1.00  0.00    -0.382 N 
HETATM   11  H10 UNL     1      24.438   0.339  51.403  1.00  0.00     0.160 HD
BRANCH  10  12
HETATM   12  C2  UNL     1      24.478  -0.197  53.478  1.00  0.00     0.005 C 
HETATM   13  C1  UNL     1      23.275  -0.655  53.785  1.00  0.00     0.038 C 
BRANCH  12  14
HETATM   14  C3  UNL     1      25.645  -0.594  54.306  1.00  0.00     0.166 C 
BRANCH  14  15
HETATM   15  C4  UNL     1      26.774  -1.034  53.411  1.00  0.00     0.264 C 
HETATM   16  O1  UNL     1      26.672  -1.470  52.235  1.00  0.00    -0.265 OA
BRANCH  15  17
HETATM   17  O2  UNL     1      27.988  -0.891  54.079  1.00  0.00    -0.322 OA
BRANCH  17  18
HETATM   18  C5  UNL     1      28.343   0.360  54.674  1.00  0.00     0.174 C 
HETATM   19  C6  UNL     1      28.772   1.340  53.607  1.00  0.00     0.034 C 
ENDBRANCH  17  18
ENDBRANCH  15  17
ENDBRANCH  14  15
ENDBRANCH  12  14
ENDBRANCH  10  12
ENDBRANCH   1  10
BRANCH   7  20
HETATM   20  N4  UNL     1      25.637   4.561  49.041  1.00  0.00    -0.340 N 
HETATM   21  H14 UNL     1      25.449   3.763  48.389  1.00  0.00     0.167 HD
BRANCH  20  22
HETATM   22  C12 UNL     1      26.757   5.350  48.712  1.00  0.00     0.035 A 
HETATM   23  C13 UNL     1      28.052   4.911  48.548  1.00  0.00     0.029 A 
HETATM   24  C14 UNL     1      29.133   5.699  48.226  1.00  0.00     0.004 A 
HETATM   25  C15 UNL     1      28.934   7.040  48.048  1.00  0.00     0.019 A 
HETATM   26  C16 UNL     1      27.674   7.548  48.194  1.00  0.00     0.013 A 
HETATM   27 BR1  UNL     1      27.380   9.411  47.948  1.00  0.00    -0.051 Br
HETATM   28  C17 UNL     1      26.629   6.715  48.516  1.00  0.00     0.048 A 
ENDBRANCH  20  22
ENDBRANCH   7  20
TORSDOF 8
ENDMDL
MODEL 6
REMARK VINA RESULT:      -7.1      3.921      7.411
REMARK  8 active torsions:
REMARK  status: ('A' for Active; 'I' for Inactive)
REMARK    1  A    between atoms: C2_2  and  C3_3 
REMARK    2  A    between atoms: C2_2  and  N1_9 
REMARK    3  A    between atoms: C3_3  and  C4_4 
REMARK    4  A    between atoms: C4_4  and  O2_6 
REMARK    5  A    between atoms: O2_6  and  C5_7 
REMARK    6  A    between atoms: N1_9  and  C7_10 
REMARK    7  A    between atoms: C11_16  and  N4_17 
REMARK    8  A    between atoms: N4_17  and  C12_18 
ROOT
HETATM    1  C7  UNL     1      25.688   2.776  51.262  1.00  0.00     0.131 A 
HETATM    2  C8  UNL     1      25.256   4.073  50.684  1.00  0.00     0.034 A 
HETATM    3  C9  UNL     1      24.042   3.940  50.181  1.00  0.00     0.070 A 
HETATM    4  N2  UNL     1      23.287   4.869  49.569  1.00  0.00    -0.241 NA
HETATM    5  C10 UNL     1      22.060   4.530  49.122  1.00  0.00     0.235 A 
HETATM    6  N3  UNL     1      21.623   3.277  49.298  1.00  0.00    -0.224 NA
HETATM    7  C11 UNL     1      22.301   2.289  49.895  1.00  0.00     0.141 A 
HETATM    8  C18 UNL     1      23.551   2.663  50.342  1.00  0.00     0.037 A 
HETATM    9  C19 UNL     1      24.493   1.941  50.977  1.00  0.00     0.020 A 
ENDROOT
BRANCH   1  10
HETATM   10  N1  UNL     1      25.972   2.866  52.666  1.00  0.00    -0.382 N 
HETATM   11  H10 UNL     1      25.658   3.696  53.214  1.00  0.00     0.160 HD
BRANCH  10  12
HETATM   12  C2  UNL     1      26.685   1.817  53.307  1.00  0.00     0.005 C 
HETATM   13  C1  UNL     1      26.099   1.068  54.227  1.00  0.00     0.038 C 
BRANCH  12  14
HETATM   14  C3  UNL     1      28.102   1.557  52.945  1.00  0.00     0.166 C 
BRANCH  14  15
HETATM   15  C4  UNL     1      28.920   1.387  54.198  1.00  0.00     0.264 C 
HETATM   16  O1  UNL     1      29.405   2.306  54.907  1.00  0.00    -0.265 OA
BRANCH  15  17
HETATM   17  O2  UNL     1      29.076   0.030  54.479  1.00  0.00    -0.322 OA
BRANCH  17  18
HETATM   18  C5  UNL     1      29.939  -0.779  53.676  1.00  0.00     0.174 C 
HETATM   19  C6  UNL     1      29.213  -2.028  53.231  1.00  0.00     0.034 C 
ENDBRANCH  17  18
ENDBRANCH  15  17
ENDBRANCH  14  15
ENDBRANCH  12  14
ENDBRANCH  10  12
ENDBRANCH   1  10
BRANCH   7  20
HETATM   20  N4  UNL     1      21.861   0.959  50.094  1.00  0.00    -0.340 N 
HETATM   21  H14 UNL     1      22.089   0.256  49.352  1.00  0.00     0.167 HD
BRANCH  20  22
HETATM   22  C12 UNL     1      21.136   0.455  51.193  1.00  0.00     0.035 A 
HETATM   23  C13 UNL     1      19.766   0.394  51.315  1.00  0.00     0.029 A 
HETATM   24  C14 UNL     1      19.078  -0.103  52.399  1.00  0.00     0.004 A 
HETATM   25  C15 UNL     1      19.791  -0.586  53.461  1.00  0.00     0.019 A 
HETATM   26  C16 UNL     1      21.156  -0.558  53.410  1.00  0.00     0.013 A 
HETATM   27 BR1  UNL     1      22.164  -1.226  54.878  1.00  0.00    -0.051 Br
HETATM   28  C17 UNL     1      21.793  -0.049  52.302  1.00  0.00     0.048 A 
ENDBRANCH  20  22
ENDBRANCH   7  20
TORSDOF 8
ENDMDL
MODEL 7
REMARK VINA RESULT:      -6.9      3.067      5.232
REMARK  8 active torsions:
REMARK  status: ('A' for Active; 'I' for Inactive)
REMARK    1  A    between atoms: C2_2  and  C3_3 
REMARK    2  A    between atoms: C2_2  and  N1_9 
REMARK    3  A    between atoms: C3_3  and  C4_4 
REMARK    4  A    between atoms: C4_4  and  O2_6 
REMARK    5  A    between atoms: O2_6  and  C5_7 
REMARK    6  A    between atoms: N1_9  and  C7_10 
REMARK    7  A    between atoms: C11_16  and  N4_17 
REMARK    8  A    between atoms: N4_17  and  C12_18 
ROOT
HETATM    1  C7  UNL     1      24.146   2.653  53.124  1.00  0.00     0.131 A 
HETATM    2  C8  UNL     1      23.356   1.598  52.441  1.00  0.00     0.034 A 
HETATM    3  C9  UNL     1      23.110   1.977  51.200  1.00  0.00     0.070 A 
HETATM    4  N2  UNL     1      22.429   1.317  50.247  1.00  0.00    -0.241 NA
HETATM    5  C10 UNL     1      22.288   1.882  49.029  1.00  0.00     0.235 A 
HETATM    6  N3  UNL     1      22.829   3.084  48.799  1.00  0.00    -0.224 NA
HETATM    7  C11 UNL     1      23.522   3.812  49.683  1.00  0.00     0.141 A 
HETATM    8  C18 UNL     1      23.650   3.212  50.919  1.00  0.00     0.037 A 
HETATM    9  C19 UNL     1      24.272   3.648  52.029  1.00  0.00     0.020 A 
ENDROOT
BRANCH   1  10
HETATM   10  N1  UNL     1      25.421   2.176  53.582  1.00  0.00    -0.382 N 
HETATM   11  H10 UNL     1      25.698   2.293  54.580  1.00  0.00     0.160 HD
BRANCH  10  12
HETATM   12  C2  UNL     1      26.304   1.543  52.666  1.00  0.00     0.005 C 
HETATM   13  C1  UNL     1      27.137   2.261  51.930  1.00  0.00     0.038 C 
BRANCH  12  14
HETATM   14  C3  UNL     1      26.295   0.065  52.530  1.00  0.00     0.166 C 
BRANCH  14  15
HETATM   15  C4  UNL     1      26.426  -0.569  53.890  1.00  0.00     0.264 C 
HETATM   16  O1  UNL     1      25.572  -0.549  54.812  1.00  0.00    -0.265 OA
BRANCH  15  17
HETATM   17  O2  UNL     1      27.663  -1.204  53.996  1.00  0.00    -0.322 OA
BRANCH  17  18
HETATM   18  C5  UNL     1      28.700  -0.928  53.051  1.00  0.00     0.174 C 
HETATM   19  C6  UNL     1      30.041  -0.893  53.748  1.00  0.00     0.034 C 
ENDBRANCH  17  18
ENDBRANCH  15  17
ENDBRANCH  14  15
ENDBRANCH  12  14
ENDBRANCH  10  12
ENDBRANCH   1  10
BRANCH   7  20
HETATM   20  N4  UNL     1      24.103   5.083  49.463  1.00  0.00    -0.340 N 
HETATM   21  H14 UNL     1      23.499   5.926  49.614  1.00  0.00     0.167 HD
BRANCH  20  22
HETATM   22  C12 UNL     1      25.424   5.359  49.057  1.00  0.00     0.035 A 
HETATM   23  C13 UNL     1      26.493   4.491  49.092  1.00  0.00     0.029 A 
HETATM   24  C14 UNL     1      27.777   4.782  48.690  1.00  0.00     0.004 A 
HETATM   25  C15 UNL     1      28.044   6.034  48.208  1.00  0.00     0.019 A 
HETATM   26  C16 UNL     1      27.030   6.948  48.143  1.00  0.00     0.013 A 
HETATM   27 BR1  UNL     1      27.384   8.694  47.475  1.00  0.00    -0.051 Br
HETATM   28  C17 UNL     1      25.765   6.605  48.560  1.00  0.00     0.048 A 
ENDBRANCH  20  22
ENDBRANCH   7  20
TORSDOF 8
ENDMDL
MODEL 8
REMARK VINA RESULT:      -6.9      2.677      6.141
REMARK  8 active torsions:
REMARK  status: ('A' for Active; 'I' for Inactive)
REMARK    1  A    between atoms: C2_2  and  C3_3 
REMARK    2  A    between atoms: C2_2  and  N1_9 
REMARK    3  A    between atoms: C3_3  and  C4_4 
REMARK    4  A    between atoms: C4_4  and  O2_6 
REMARK    5  A    between atoms: O2_6  and  C5_7 
REMARK    6  A    between atoms: N1_9  and  C7_10 
REMARK    7  A    between atoms: C11_16  and  N4_17 
REMARK    8  A    between atoms: N4_17  and  C12_18 
ROOT
HETATM    1  C7  UNL     1      26.140   2.733  51.583  1.00  0.00     0.131 A 
HETATM    2  C8  UNL     1      27.256   2.638  52.558  1.00  0.00     0.034 A 
HETATM    3  C9  UNL     1      27.102   1.546  53.285  1.00  0.00     0.070 A 
HETATM    4  N2  UNL     1      27.888   1.089  54.276  1.00  0.00    -0.241 NA
HETATM    5  C10 UNL     1      27.555  -0.059  54.902  1.00  0.00     0.235 A 
HETATM    6  N3  UNL     1      26.451  -0.715  54.523  1.00  0.00    -0.224 NA
HETATM    7  C11 UNL     1      25.613  -0.337  53.550  1.00  0.00     0.141 A 
HETATM    8  C18 UNL     1      25.976   0.839  52.928  1.00  0.00     0.037 A 
HETATM    9  C19 UNL     1      25.377   1.505  51.924  1.00  0.00     0.020 A 
ENDROOT
BRANCH   1  10
HETATM   10  N1  UNL     1      26.597   2.735  50.222  1.00  0.00    -0.382 N 
HETATM   11  H10 UNL     1      27.116   1.916  49.839  1.00  0.00     0.160 HD
BRANCH  10  12
HETATM   12  C2  UNL     1      26.338   3.863  49.397  1.00  0.00     0.005 C 
HETATM   13  C1  UNL     1      27.335   4.549  48.861  1.00  0.00     0.038 C 
BRANCH  12  14
HETATM   14  C3  UNL     1      24.938   4.280  49.131  1.00  0.00     0.166 C 
BRANCH  14  15
HETATM   15  C4  UNL     1      24.746   5.710  49.562  1.00  0.00     0.264 C 
HETATM   16  O1  UNL     1      24.809   6.729  48.827  1.00  0.00    -0.265 OA
BRANCH  15  17
HETATM   17  O2  UNL     1      24.481   5.759  50.929  1.00  0.00    -0.322 OA
BRANCH  17  18
HETATM   18  C5  UNL     1      23.228   5.299  51.440  1.00  0.00     0.174 C 
HETATM   19  C6  UNL     1      23.403   4.762  52.841  1.00  0.00     0.034 C 
ENDBRANCH  17  18
ENDBRANCH  15  17
ENDBRANCH  14  15
ENDBRANCH  12  14
ENDBRANCH  10  12
ENDBRANCH   1  10
BRANCH   7  20
HETATM   20  N4  UNL     1      24.442  -1.012  53.132  1.00  0.00    -0.340 N 
HETATM   21  H14 UNL     1      24.560  -1.866  52.535  1.00  0.00     0.167 HD
BRANCH  20  22
HETATM   22  C12 UNL     1      23.107  -0.669  53.425  1.00  0.00     0.035 A 
HETATM   23  C13 UNL     1      22.507  -0.688  54.665  1.00  0.00     0.029 A 
HETATM   24  C14 UNL     1      21.200  -0.348  54.929  1.00  0.00     0.004 A 
HETATM   25  C15 UNL     1      20.403   0.048  53.890  1.00  0.00     0.019 A 
HETATM   26  C16 UNL     1      20.932   0.092  52.631  1.00  0.00     0.013 A 
HETATM   27 BR1  UNL     1      19.839   0.641  51.174  1.00  0.00    -0.051 Br
HETATM   28  C17 UNL     1      22.245  -0.259  52.422  1.00  0.00     0.048 A 
ENDBRANCH  20  22
ENDBRANCH   7  20
TORSDOF 8
ENDMDL
MODEL 9
REMARK VINA RESULT:      -6.9      3.494      6.925
REMARK  8 active torsions:
REMARK  status: ('A' for Active; 'I' for Inactive)
REMARK    1  A    between atoms: C2_2  and  C3_3 
REMARK    2  A    between atoms: C2_2  and  N1_9 
REMARK    3  A    between atoms: C3_3  and  C4_4 
REMARK    4  A    between atoms: C4_4  and  O2_6 
REMARK    5  A    between atoms: O2_6  and  C5_7 
REMARK    6  A    between atoms: N1_9  and  C7_10 
REMARK    7  A    between atoms: C11_16  and  N4_17 
REMARK    8  A    between atoms: N4_17  and  C12_18 
ROOT
HETATM    1  C7  UNL     1      26.132   2.316  51.276  1.00  0.00     0.131 A 
HETATM    2  C8  UNL     1      26.049   3.105  50.021  1.00  0.00     0.034 A 
HETATM    3  C9  UNL     1      24.828   3.594  49.898  1.00  0.00     0.070 A 
HETATM    4  N2  UNL     1      24.334   4.361  48.911  1.00  0.00    -0.241 NA
HETATM    5  C10 UNL     1      23.046   4.761  48.970  1.00  0.00     0.235 A 
HETATM    6  N3  UNL     1      22.292   4.385  50.011  1.00  0.00    -0.224 NA
HETATM    7  C11 UNL     1      22.697   3.626  51.036  1.00  0.00     0.141 A 
HETATM    8  C18 UNL     1      24.016   3.231  50.949  1.00  0.00     0.037 A 
HETATM    9  C19 UNL     1      24.747   2.475  51.788  1.00  0.00     0.020 A 
ENDROOT
BRANCH   1  10
HETATM   10  N1  UNL     1      27.117   2.830  52.185  1.00  0.00    -0.382 N 
HETATM   11  H10 UNL     1      27.253   3.859  52.287  1.00  0.00     0.160 HD
BRANCH  10  12
HETATM   12  C2  UNL     1      27.907   1.928  52.948  1.00  0.00     0.005 C 
HETATM   13  C1  UNL     1      28.839   2.379  53.771  1.00  0.00     0.038 C 
BRANCH  12  14
HETATM   14  C3  UNL     1      27.689   0.464  52.822  1.00  0.00     0.166 C 
BRANCH  14  15
HETATM   15  C4  UNL     1      27.881  -0.193  54.163  1.00  0.00     0.264 C 
HETATM   16  O1  UNL     1      28.913  -0.789  54.566  1.00  0.00    -0.265 OA
BRANCH  15  17
HETATM   17  O2  UNL     1      26.724  -0.050  54.928  1.00  0.00    -0.322 OA
BRANCH  17  18
HETATM   18  C5  UNL     1      25.466  -0.510  54.427  1.00  0.00     0.174 C 
HETATM   19  C6  UNL     1      24.667  -1.150  55.539  1.00  0.00     0.034 C 
ENDBRANCH  17  18
ENDBRANCH  15  17
ENDBRANCH  14  15
ENDBRANCH  12  14
ENDBRANCH  10  12
ENDBRANCH   1  10
BRANCH   7  20
HETATM   20  N4  UNL     1      21.920   3.217  52.145  1.00  0.00    -0.340 N 
HETATM   21  H14 UNL     1      21.978   3.793  53.018  1.00  0.00     0.167 HD
BRANCH  20  22
HETATM   22  C12 UNL     1      21.060   2.103  52.221  1.00  0.00     0.035 A 
HETATM   23  C13 UNL     1      19.872   1.935  51.544  1.00  0.00     0.029 A 
HETATM   24  C14 UNL     1      19.046   0.837  51.633  1.00  0.00     0.004 A 
HETATM   25  C15 UNL     1      19.412  -0.192  52.455  1.00  0.00     0.019 A 
HETATM   26  C16 UNL     1      20.580  -0.095  53.158  1.00  0.00     0.013 A 
HETATM   27 BR1  UNL     1      21.104  -1.518  54.306  1.00  0.00    -0.051 Br
HETATM   28  C17 UNL     1      21.368   1.025  53.033  1.00  0.00     0.048 A 
ENDBRANCH  20  22
ENDBRANCH   7  20
TORSDOF 8
ENDMDL
