MODEL 1
REMARK VINA RESULT:      -8.3      0.000      0.000
REMARK  8 active torsions:
REMARK  status: ('A' for Active; 'I' for Inactive)
REMARK    1  A    between atoms: C5_5  and  N1_6 
REMARK    2  A    between atoms: N1_6  and  C6_7 
REMARK    3  A    between atoms: C6_7  and  C7_8 
REMARK    4  A    between atoms: C7_8  and  O1_9 
REMARK    5  A    between atoms: C9_11  and  N2_12 
REMARK    6  A    between atoms: C11_15  and  O2_16 
REMARK    7  A    between atoms: O2_16  and  C12_17 
REMARK    8  A    between atoms: C12_17  and  C13_18 
ROOT
HETATM    1  N2  UNL     1      24.980   2.826  51.957  1.00  0.00    -0.271 N 
HETATM    2  C10 UNL     1      24.084   3.808  52.160  1.00  0.00     0.221 A 
HETATM    3  N3  UNL     1      24.076   4.943  51.413  1.00  0.00    -0.218 NA
HETATM    4  C11 UNL     1      24.993   5.116  50.422  1.00  0.00     0.193 A 
HETATM    5  C19 UNL     1      25.931   4.106  50.196  1.00  0.00     0.155 A 
HETATM    6 CL1  UNL     1      27.166   4.220  48.940  1.00  0.00    -0.074 Cl
HETATM    7  C20 UNL     1      25.907   2.954  50.986  1.00  0.00     0.279 A 
HETATM    8  O3  UNL     1      26.767   2.056  50.759  1.00  0.00    -0.266 OA
ENDROOT
BRANCH   1   9
HETATM    9  C9  UNL     1      25.046   1.619  52.700  1.00  0.00     0.051 A 
HETATM   10  C2  UNL     1      23.972   0.779  52.559  1.00  0.00    -0.035 A 
HETATM   11  C1  UNL     1      22.802   1.089  51.688  1.00  0.00     0.050 C 
HETATM   12  C3  UNL     1      23.970  -0.412  53.255  1.00  0.00     0.011 A 
HETATM   13  C4  UNL     1      25.057  -0.687  54.056  1.00  0.00     0.030 A 
HETATM   14  C5  UNL     1      26.145   0.122  54.224  1.00  0.00     0.030 A 
HETATM   15  C8  UNL     1      26.109   1.302  53.513  1.00  0.00     0.059 A 
BRANCH  14  16
HETATM   16  N1  UNL     1      27.254  -0.144  55.055  1.00  0.00    -0.388 N 
HETATM   17  H6  UNL     1      27.110  -0.770  55.892  1.00  0.00     0.159 HD
BRANCH  16  18
HETATM   18  C6  UNL     1      28.617   0.324  54.940  1.00  0.00     0.146 C 
BRANCH  18  19
HETATM   19  C7  UNL     1      29.311  -0.499  53.888  1.00  0.00     0.183 C 
BRANCH  19  20
HETATM   20  O1  UNL     1      30.331   0.314  53.379  1.00  0.00    -0.399 OA
HETATM   21  H11 UNL     1      30.058   1.259  53.414  1.00  0.00     0.209 HD
ENDBRANCH  19  20
ENDBRANCH  18  19
ENDBRANCH  16  18
ENDBRANCH  14  16
ENDBRANCH   1   9
BRANCH   4  22
HETATM   22  O2  UNL     1      25.130   6.192  49.576  1.00  0.00    -0.328 OA
BRANCH  22  23
HETATM   23  C12 UNL     1      25.518   7.488  49.918  1.00  0.00     0.219 C 
BRANCH  23  24
HETATM   24  C13 UNL     1      26.697   7.917  49.087  1.00  0.00     0.005 A 
HETATM   25  C14 UNL     1      26.876   7.460  47.777  1.00  0.00     0.015 A 
HETATM   26  C15 UNL     1      27.975   7.886  47.050  1.00  0.00     0.043 A 
HETATM   27  C16 UNL     1      28.902   8.754  47.590  1.00  0.00     0.119 A 
HETATM   28  F1  UNL     1      29.980   9.167  46.868  1.00  0.00    -0.206 F 
HETATM   29  C17 UNL     1      28.712   9.195  48.880  1.00  0.00     0.085 A 
HETATM   30  C18 UNL     1      27.624   8.783  49.621  1.00  0.00     0.127 A 
HETATM   31  F2  UNL     1      27.471   9.242  50.895  1.00  0.00    -0.205 F 
ENDBRANCH  23  24
ENDBRANCH  22  23
ENDBRANCH   4  22
TORSDOF 8
ENDMDL
MODEL 2
REMARK VINA RESULT:      -8.2      3.771      5.312
REMARK  8 active torsions:
REMARK  status: ('A' for Active; 'I' for Inactive)
REMARK    1  A    between atoms: C5_5  and  N1_6 
REMARK    2  A    between atoms: N1_6  and  C6_7 
REMARK    3  A    between atoms: C6_7  and  C7_8 
REMARK    4  A    between atoms: C7_8  and  O1_9 
REMARK    5  A    between atoms: C9_11  and  N2_12 
REMARK    6  A    between atoms: C11_15  and  O2_16 
REMARK    7  A    between atoms: O2_16  and  C12_17 
REMARK    8  A    between atoms: C12_17  and  C13_18 
ROOT
HETATM    1  N2  UNL     1      22.432   1.955  51.928  1.00  0.00    -0.271 N 
HETATM    2  C10 UNL     1      22.903   3.110  52.431  1.00  0.00     0.221 A 
HETATM    3  N3  UNL     1      23.306   4.133  51.634  1.00  0.00    -0.218 NA
HETATM    4  C11 UNL     1      23.242   4.010  50.279  1.00  0.00     0.193 A 
HETATM    5  C19 UNL     1      22.756   2.818  49.739  1.00  0.00     0.155 A 
HETATM    6 CL1  UNL     1      22.628   2.546  47.999  1.00  0.00    -0.074 Cl
HETATM    7  C20 UNL     1      22.351   1.789  50.592  1.00  0.00     0.279 A 
HETATM    8  O3  UNL     1      21.915   0.721  50.076  1.00  0.00    -0.266 OA
ENDROOT
BRANCH   1   9
HETATM    9  C9  UNL     1      21.997   0.849  52.702  1.00  0.00     0.051 A 
HETATM   10  C2  UNL     1      22.992   0.059  53.216  1.00  0.00    -0.035 A 
HETATM   11  C1  UNL     1      24.441   0.323  52.992  1.00  0.00     0.050 C 
HETATM   12  C3  UNL     1      22.638  -1.035  53.978  1.00  0.00     0.011 A 
HETATM   13  C4  UNL     1      21.294  -1.269  54.178  1.00  0.00     0.030 A 
HETATM   14  C5  UNL     1      20.273  -0.508  53.684  1.00  0.00     0.030 A 
HETATM   15  C8  UNL     1      20.667   0.575  52.929  1.00  0.00     0.059 A 
BRANCH  14  16
HETATM   16  N1  UNL     1      18.895  -0.750  53.870  1.00  0.00    -0.388 N 
HETATM   17  H6  UNL     1      18.324  -0.015  54.367  1.00  0.00     0.159 HD
BRANCH  16  18
HETATM   18  C6  UNL     1      18.106  -1.893  53.472  1.00  0.00     0.146 C 
BRANCH  18  19
HETATM   19  C7  UNL     1      16.969  -1.407  52.613  1.00  0.00     0.183 C 
BRANCH  19  20
HETATM   20  O1  UNL     1      16.122  -0.692  53.469  1.00  0.00    -0.399 OA
HETATM   21  H11 UNL     1      16.039  -1.162  54.330  1.00  0.00     0.209 HD
ENDBRANCH  19  20
ENDBRANCH  18  19
ENDBRANCH  16  18
ENDBRANCH  14  16
ENDBRANCH   1   9
BRANCH   4  22
HETATM   22  O2  UNL     1      23.606   4.936  49.329  1.00  0.00    -0.328 OA
BRANCH  22  23
HETATM   23  C12 UNL     1      24.312   6.122  49.536  1.00  0.00     0.219 C 
BRANCH  23  24
HETATM   24  C13 UNL     1      25.732   5.974  49.060  1.00  0.00     0.005 A 
HETATM   25  C14 UNL     1      26.427   4.767  49.189  1.00  0.00     0.015 A 
HETATM   26  C15 UNL     1      27.731   4.678  48.733  1.00  0.00     0.043 A 
HETATM   27  C16 UNL     1      28.366   5.758  48.152  1.00  0.00     0.119 A 
HETATM   28  F1  UNL     1      29.648   5.661  47.707  1.00  0.00    -0.206 F 
HETATM   29  C17 UNL     1      27.668   6.938  48.032  1.00  0.00     0.085 A 
HETATM   30  C18 UNL     1      26.368   7.048  48.479  1.00  0.00     0.127 A 
HETATM   31  F2  UNL     1      25.712   8.234  48.343  1.00  0.00    -0.205 F 
ENDBRANCH  23  24
ENDBRANCH  22  23
ENDBRANCH   4  22
TORSDOF 8
ENDMDL
MODEL 3
REMARK VINA RESULT:      -8.0      4.593      8.622
REMARK  8 active torsions:
REMARK  status: ('A' for Active; 'I' for Inactive)
REMARK    1  A    between atoms: C5_5  and  N1_6 
REMARK    2  A    between atoms: N1_6  and  C6_7 
REMARK    3  A    between atoms: C6_7  and  C7_8 
REMARK    4  A    between atoms: C7_8  and  O1_9 
REMARK    5  A    between atoms: C9_11  and  N2_12 
REMARK    6  A    between atoms: C11_15  and  O2_16 
REMARK    7  A    between atoms: O2_16  and  C12_17 
REMARK    8  A    between atoms: C12_17  and  C13_18 
ROOT
HETATM    1  N2  UNL     1      24.121   4.506  50.448  1.00  0.00    -0.271 N 
HETATM    2  C10 UNL     1      23.995   4.406  51.783  1.00  0.00     0.221 A 
HETATM    3  N3  UNL     1      22.863   3.935  52.367  1.00  0.00    -0.218 NA
HETATM    4  C11 UNL     1      21.808   3.545  51.599  1.00  0.00     0.193 A 
HETATM    5  C19 UNL     1      21.921   3.641  50.211  1.00  0.00     0.155 A 
HETATM    6 CL1  UNL     1      20.620   3.166  49.117  1.00  0.00    -0.074 Cl
HETATM    7  C20 UNL     1      23.102   4.131  49.648  1.00  0.00     0.279 A 
HETATM    8  O3  UNL     1      23.177   4.207  48.389  1.00  0.00    -0.266 OA
ENDROOT
BRANCH   1   9
HETATM    9  C9  UNL     1      25.272   4.989  49.774  1.00  0.00     0.051 A 
HETATM   10  C2  UNL     1      26.264   4.068  49.562  1.00  0.00    -0.035 A 
HETATM   11  C1  UNL     1      26.165   2.646  49.999  1.00  0.00     0.050 C 
HETATM   12  C3  UNL     1      27.413   4.472  48.913  1.00  0.00     0.011 A 
HETATM   13  C4  UNL     1      27.493   5.789  48.514  1.00  0.00     0.030 A 
HETATM   14  C5  UNL     1      26.528   6.737  48.705  1.00  0.00     0.030 A 
HETATM   15  C8  UNL     1      25.398   6.295  49.357  1.00  0.00     0.059 A 
BRANCH  14  16
HETATM   16  N1  UNL     1      26.610   8.091  48.315  1.00  0.00    -0.388 N 
HETATM   17  H6  UNL     1      26.053   8.401  47.474  1.00  0.00     0.159 HD
BRANCH  16  18
HETATM   18  C6  UNL     1      27.367   9.169  48.907  1.00  0.00     0.146 C 
BRANCH  18  19
HETATM   19  C7  UNL     1      26.701   9.561  50.200  1.00  0.00     0.183 C 
BRANCH  19  20
HETATM   20  O1  UNL     1      27.711   9.551  51.169  1.00  0.00    -0.399 OA
HETATM   21  H11 UNL     1      28.421  10.187  50.922  1.00  0.00     0.209 HD
ENDBRANCH  19  20
ENDBRANCH  18  19
ENDBRANCH  16  18
ENDBRANCH  14  16
ENDBRANCH   1   9
BRANCH   4  22
HETATM   22  O2  UNL     1      20.596   3.049  52.019  1.00  0.00    -0.328 OA
BRANCH  22  23
HETATM   23  C12 UNL     1      20.145   1.732  51.917  1.00  0.00     0.219 C 
BRANCH  23  24
HETATM   24  C13 UNL     1      20.945   0.834  52.821  1.00  0.00     0.005 A 
HETATM   25  C14 UNL     1      20.577   0.617  54.153  1.00  0.00     0.015 A 
HETATM   26  C15 UNL     1      21.343  -0.221  54.945  1.00  0.00     0.043 A 
HETATM   27  C16 UNL     1      22.467  -0.850  54.450  1.00  0.00     0.119 A 
HETATM   28  F1  UNL     1      23.215  -1.672  55.236  1.00  0.00    -0.206 F 
HETATM   29  C17 UNL     1      22.816  -0.627  53.137  1.00  0.00     0.085 A 
HETATM   30  C18 UNL     1      22.067   0.203  52.331  1.00  0.00     0.127 A 
HETATM   31  F2  UNL     1      22.446   0.400  51.037  1.00  0.00    -0.205 F 
ENDBRANCH  23  24
ENDBRANCH  22  23
ENDBRANCH   4  22
TORSDOF 8
ENDMDL
MODEL 4
REMARK VINA RESULT:      -7.9      2.189      2.720
REMARK  8 active torsions:
REMARK  status: ('A' for Active; 'I' for Inactive)
REMARK    1  A    between atoms: C5_5  and  N1_6 
REMARK    2  A    between atoms: N1_6  and  C6_7 
REMARK    3  A    between atoms: C6_7  and  C7_8 
REMARK    4  A    between atoms: C7_8  and  O1_9 
REMARK    5  A    between atoms: C9_11  and  N2_12 
REMARK    6  A    between atoms: C11_15  and  O2_16 
REMARK    7  A    between atoms: O2_16  and  C12_17 
REMARK    8  A    between atoms: C12_17  and  C13_18 
ROOT
HETATM    1  N2  UNL     1      23.834   2.001  51.757  1.00  0.00    -0.271 N 
HETATM    2  C10 UNL     1      23.386   1.760  50.512  1.00  0.00     0.221 A 
HETATM    3  N3  UNL     1      23.009   2.761  49.675  1.00  0.00    -0.218 NA
HETATM    4  C11 UNL     1      23.076   4.058  50.086  1.00  0.00     0.193 A 
HETATM    5  C19 UNL     1      23.538   4.327  51.375  1.00  0.00     0.155 A 
HETATM    6 CL1  UNL     1      23.667   5.967  52.015  1.00  0.00    -0.074 Cl
HETATM    7  C20 UNL     1      23.917   3.269  52.206  1.00  0.00     0.279 A 
HETATM    8  O3  UNL     1      24.332   3.542  53.368  1.00  0.00    -0.266 OA
ENDROOT
BRANCH   1   9
HETATM    9  C9  UNL     1      24.242   1.004  52.680  1.00  0.00     0.051 A 
HETATM   10  C2  UNL     1      23.228   0.344  53.324  1.00  0.00    -0.035 A 
HETATM   11  C1  UNL     1      21.785   0.633  53.085  1.00  0.00     0.050 C 
HETATM   12  C3  UNL     1      23.554  -0.638  54.237  1.00  0.00     0.011 A 
HETATM   13  C4  UNL     1      24.892  -0.896  54.448  1.00  0.00     0.030 A 
HETATM   14  C5  UNL     1      25.931  -0.262  53.829  1.00  0.00     0.030 A 
HETATM   15  C8  UNL     1      25.564   0.711  52.925  1.00  0.00     0.059 A 
BRANCH  14  16
HETATM   16  N1  UNL     1      27.302  -0.508  54.052  1.00  0.00    -0.388 N 
HETATM   17  H6  UNL     1      27.746  -1.331  53.562  1.00  0.00     0.159 HD
BRANCH  16  18
HETATM   18  C6  UNL     1      28.239   0.216  54.881  1.00  0.00     0.146 C 
BRANCH  18  19
HETATM   19  C7  UNL     1      29.047   1.127  53.996  1.00  0.00     0.183 C 
BRANCH  19  20
HETATM   20  O1  UNL     1      28.682   2.430  54.352  1.00  0.00    -0.399 OA
HETATM   21  H11 UNL     1      29.218   3.081  53.844  1.00  0.00     0.209 HD
ENDBRANCH  19  20
ENDBRANCH  18  19
ENDBRANCH  16  18
ENDBRANCH  14  16
ENDBRANCH   1   9
BRANCH   4  22
HETATM   22  O2  UNL     1      22.737   5.187  49.377  1.00  0.00    -0.328 OA
BRANCH  22  23
HETATM   23  C12 UNL     1      23.415   5.731  48.285  1.00  0.00     0.219 C 
BRANCH  23  24
HETATM   24  C13 UNL     1      24.464   6.702  48.753  1.00  0.00     0.005 A 
HETATM   25  C14 UNL     1      24.151   8.031  49.057  1.00  0.00     0.015 A 
HETATM   26  C15 UNL     1      25.149   8.888  49.488  1.00  0.00     0.043 A 
HETATM   27  C16 UNL     1      26.455   8.460  49.624  1.00  0.00     0.119 A 
HETATM   28  F1  UNL     1      27.430   9.309  50.047  1.00  0.00    -0.206 F 
HETATM   29  C17 UNL     1      26.748   7.149  49.321  1.00  0.00     0.085 A 
HETATM   30  C18 UNL     1      25.767   6.280  48.891  1.00  0.00     0.127 A 
HETATM   31  F2  UNL     1      26.098   4.990  48.601  1.00  0.00    -0.205 F 
ENDBRANCH  23  24
ENDBRANCH  22  23
ENDBRANCH   4  22
TORSDOF 8
ENDMDL
MODEL 5
REMARK VINA RESULT:      -7.9      3.332      4.096
REMARK  8 active torsions:
REMARK  status: ('A' for Active; 'I' for Inactive)
REMARK    1  A    between atoms: C5_5  and  N1_6 
REMARK    2  A    between atoms: N1_6  and  C6_7 
REMARK    3  A    between atoms: C6_7  and  C7_8 
REMARK    4  A    between atoms: C7_8  and  O1_9 
REMARK    5  A    between atoms: C9_11  and  N2_12 
REMARK    6  A    between atoms: C11_15  and  O2_16 
REMARK    7  A    between atoms: O2_16  and  C12_17 
REMARK    8  A    between atoms: C12_17  and  C13_18 
ROOT
HETATM    1  N2  UNL     1      24.217   3.493  50.154  1.00  0.00    -0.271 N 
HETATM    2  C10 UNL     1      25.431   3.303  49.608  1.00  0.00     0.221 A 
HETATM    3  N3  UNL     1      26.252   4.340  49.297  1.00  0.00    -0.218 NA
HETATM    4  C11 UNL     1      25.856   5.621  49.535  1.00  0.00     0.193 A 
HETATM    5  C19 UNL     1      24.599   5.837  50.102  1.00  0.00     0.155 A 
HETATM    6 CL1  UNL     1      23.981   7.453  50.455  1.00  0.00    -0.074 Cl
HETATM    7  C20 UNL     1      23.784   4.745  50.408  1.00  0.00     0.279 A 
HETATM    8  O3  UNL     1      22.651   4.970  50.920  1.00  0.00    -0.266 OA
ENDROOT
BRANCH   1   9
HETATM    9  C9  UNL     1      23.311   2.458  50.502  1.00  0.00     0.051 A 
HETATM   10  C2  UNL     1      22.493   2.024  49.491  1.00  0.00    -0.035 A 
HETATM   11  C1  UNL     1      22.534   2.585  48.110  1.00  0.00     0.050 C 
HETATM   12  C3  UNL     1      21.587   1.020  49.761  1.00  0.00     0.011 A 
HETATM   13  C4  UNL     1      21.558   0.509  51.040  1.00  0.00     0.030 A 
HETATM   14  C5  UNL     1      22.355   0.913  52.075  1.00  0.00     0.030 A 
HETATM   15  C8  UNL     1      23.246   1.917  51.765  1.00  0.00     0.059 A 
BRANCH  14  16
HETATM   16  N1  UNL     1      22.321   0.407  53.392  1.00  0.00    -0.388 N 
HETATM   17  H6  UNL     1      21.652   0.849  54.077  1.00  0.00     0.159 HD
BRANCH  16  18
HETATM   18  C6  UNL     1      23.090  -0.666  53.979  1.00  0.00     0.146 C 
BRANCH  18  19
HETATM   19  C7  UNL     1      22.245  -1.330  55.034  1.00  0.00     0.183 C 
BRANCH  19  20
HETATM   20  O1  UNL     1      23.146  -1.889  55.949  1.00  0.00    -0.399 OA
HETATM   21  H11 UNL     1      23.165  -1.351  56.774  1.00  0.00     0.209 HD
ENDBRANCH  19  20
ENDBRANCH  18  19
ENDBRANCH  16  18
ENDBRANCH  14  16
ENDBRANCH   1   9
BRANCH   4  22
HETATM   22  O2  UNL     1      26.553   6.780  49.284  1.00  0.00    -0.328 OA
BRANCH  22  23
HETATM   23  C12 UNL     1      27.258   7.104  48.125  1.00  0.00     0.219 C 
BRANCH  23  24
HETATM   24  C13 UNL     1      28.725   7.243  48.427  1.00  0.00     0.005 A 
HETATM   25  C14 UNL     1      29.279   8.462  48.832  1.00  0.00     0.015 A 
HETATM   26  C15 UNL     1      30.634   8.542  49.102  1.00  0.00     0.043 A 
HETATM   27  C16 UNL     1      31.457   7.440  48.982  1.00  0.00     0.119 A 
HETATM   28  F1  UNL     1      32.789   7.526  49.250  1.00  0.00    -0.206 F 
HETATM   29  C17 UNL     1      30.898   6.247  48.583  1.00  0.00     0.085 A 
HETATM   30  C18 UNL     1      29.550   6.147  48.309  1.00  0.00     0.127 A 
HETATM   31  F2  UNL     1      29.035   4.949  47.917  1.00  0.00    -0.205 F 
ENDBRANCH  23  24
ENDBRANCH  22  23
ENDBRANCH   4  22
TORSDOF 8
ENDMDL
MODEL 6
REMARK VINA RESULT:      -7.9      3.870      8.435
REMARK  8 active torsions:
REMARK  status: ('A' for Active; 'I' for Inactive)
REMARK    1  A    between atoms: C5_5  and  N1_6 
REMARK    2  A    between atoms: N1_6  and  C6_7 
REMARK    3  A    between atoms: C6_7  and  C7_8 
REMARK    4  A    between atoms: C7_8  and  O1_9 
REMARK    5  A    between atoms: C9_11  and  N2_12 
REMARK    6  A    between atoms: C11_15  and  O2_16 
REMARK    7  A    between atoms: O2_16  and  C12_17 
REMARK    8  A    between atoms: C12_17  and  C13_18 
ROOT
HETATM    1  N2  UNL     1      25.109   6.793  50.256  1.00  0.00    -0.271 N 
HETATM    2  C10 UNL     1      24.190   6.665  51.230  1.00  0.00     0.221 A 
HETATM    3  N3  UNL     1      23.839   5.454  51.735  1.00  0.00    -0.218 NA
HETATM    4  C11 UNL     1      24.421   4.318  51.258  1.00  0.00     0.193 A 
HETATM    5  C19 UNL     1      25.377   4.433  50.247  1.00  0.00     0.155 A 
HETATM    6 CL1  UNL     1      26.196   3.031  49.552  1.00  0.00    -0.074 Cl
HETATM    7  C20 UNL     1      25.711   5.696  49.754  1.00  0.00     0.279 A 
HETATM    8  O3  UNL     1      26.580   5.770  48.839  1.00  0.00    -0.266 OA
ENDROOT
BRANCH   1   9
HETATM    9  C9  UNL     1      25.520   8.024  49.684  1.00  0.00     0.051 A 
HETATM   10  C2  UNL     1      24.630   8.598  48.813  1.00  0.00    -0.035 A 
HETATM   11  C1  UNL     1      23.311   7.990  48.475  1.00  0.00     0.050 C 
HETATM   12  C3  UNL     1      24.967   9.796  48.220  1.00  0.00     0.011 A 
HETATM   13  C4  UNL     1      26.188  10.349  48.540  1.00  0.00     0.030 A 
HETATM   14  C5  UNL     1      27.102   9.810  49.401  1.00  0.00     0.030 A 
HETATM   15  C8  UNL     1      26.729   8.614  49.974  1.00  0.00     0.059 A 
BRANCH  14  16
HETATM   16  N1  UNL     1      28.361  10.361  49.722  1.00  0.00    -0.388 N 
HETATM   17  H6  UNL     1      28.664  10.356  50.733  1.00  0.00     0.159 HD
BRANCH  16  18
HETATM   18  C6  UNL     1      29.347  10.957  48.850  1.00  0.00     0.146 C 
BRANCH  18  19
HETATM   19  C7  UNL     1      30.665  10.266  49.084  1.00  0.00     0.183 C 
BRANCH  19  20
HETATM   20  O1  UNL     1      30.649   9.857  50.423  1.00  0.00    -0.399 OA
HETATM   21  H11 UNL     1      31.231   9.072  50.542  1.00  0.00     0.209 HD
ENDBRANCH  19  20
ENDBRANCH  18  19
ENDBRANCH  16  18
ENDBRANCH  14  16
ENDBRANCH   1   9
BRANCH   4  22
HETATM   22  O2  UNL     1      24.187   3.021  51.650  1.00  0.00    -0.328 OA
BRANCH  22  23
HETATM   23  C12 UNL     1      24.352   2.485  52.927  1.00  0.00     0.219 C 
BRANCH  23  24
HETATM   24  C13 UNL     1      25.529   1.547  52.953  1.00  0.00     0.005 A 
HETATM   25  C14 UNL     1      26.842   2.021  53.040  1.00  0.00     0.015 A 
HETATM   26  C15 UNL     1      27.893   1.120  53.064  1.00  0.00     0.043 A 
HETATM   27  C16 UNL     1      27.675  -0.242  53.003  1.00  0.00     0.119 A 
HETATM   28  F1  UNL     1      28.714  -1.121  53.027  1.00  0.00    -0.206 F 
HETATM   29  C17 UNL     1      26.376  -0.692  52.919  1.00  0.00     0.085 A 
HETATM   30  C18 UNL     1      25.316   0.188  52.894  1.00  0.00     0.127 A 
HETATM   31  F2  UNL     1      24.046  -0.297  52.808  1.00  0.00    -0.205 F 
ENDBRANCH  23  24
ENDBRANCH  22  23
ENDBRANCH   4  22
TORSDOF 8
ENDMDL
MODEL 7
REMARK VINA RESULT:      -7.9      2.174      2.493
REMARK  8 active torsions:
REMARK  status: ('A' for Active; 'I' for Inactive)
REMARK    1  A    between atoms: C5_5  and  N1_6 
REMARK    2  A    between atoms: N1_6  and  C6_7 
REMARK    3  A    between atoms: C6_7  and  C7_8 
REMARK    4  A    between atoms: C7_8  and  O1_9 
REMARK    5  A    between atoms: C9_11  and  N2_12 
REMARK    6  A    between atoms: C11_15  and  O2_16 
REMARK    7  A    between atoms: O2_16  and  C12_17 
REMARK    8  A    between atoms: C12_17  and  C13_18 
ROOT
HETATM    1  N2  UNL     1      23.492   2.663  52.086  1.00  0.00    -0.271 N 
HETATM    2  C10 UNL     1      23.762   3.868  52.618  1.00  0.00     0.221 A 
HETATM    3  N3  UNL     1      23.777   5.000  51.868  1.00  0.00    -0.218 NA
HETATM    4  C11 UNL     1      23.515   4.940  50.533  1.00  0.00     0.193 A 
HETATM    5  C19 UNL     1      23.232   3.697  49.964  1.00  0.00     0.155 A 
HETATM    6 CL1  UNL     1      22.877   3.498  48.246  1.00  0.00    -0.074 Cl
HETATM    7  C20 UNL     1      23.226   2.555  50.769  1.00  0.00     0.279 A 
HETATM    8  O3  UNL     1      22.967   1.444  50.227  1.00  0.00    -0.266 OA
ENDROOT
BRANCH   1   9
HETATM    9  C9  UNL     1      23.461   1.443  52.811  1.00  0.00     0.051 A 
HETATM   10  C2  UNL     1      22.224   1.047  53.249  1.00  0.00    -0.035 A 
HETATM   11  C1  UNL     1      20.980   1.826  52.994  1.00  0.00     0.050 C 
HETATM   12  C3  UNL     1      22.123  -0.130  53.961  1.00  0.00     0.011 A 
HETATM   13  C4  UNL     1      23.281  -0.842  54.191  1.00  0.00     0.030 A 
HETATM   14  C5  UNL     1      24.531  -0.482  53.772  1.00  0.00     0.030 A 
HETATM   15  C8  UNL     1      24.590   0.699  53.064  1.00  0.00     0.059 A 
BRANCH  14  16
HETATM   16  N1  UNL     1      25.723  -1.196  54.016  1.00  0.00    -0.388 N 
HETATM   17  H6  UNL     1      25.741  -1.871  54.827  1.00  0.00     0.159 HD
BRANCH  16  18
HETATM   18  C6  UNL     1      26.980  -1.149  53.304  1.00  0.00     0.146 C 
BRANCH  18  19
HETATM   19  C7  UNL     1      27.054  -2.349  52.398  1.00  0.00     0.183 C 
BRANCH  19  20
HETATM   20  O1  UNL     1      28.133  -3.112  52.862  1.00  0.00    -0.399 OA
HETATM   21  H11 UNL     1      28.833  -2.522  53.223  1.00  0.00     0.209 HD
ENDBRANCH  19  20
ENDBRANCH  18  19
ENDBRANCH  16  18
ENDBRANCH  14  16
ENDBRANCH   1   9
BRANCH   4  22
HETATM   22  O2  UNL     1      23.488   5.977  49.630  1.00  0.00    -0.328 OA
BRANCH  22  23
HETATM   23  C12 UNL     1      24.336   7.085  49.595  1.00  0.00     0.219 C 
BRANCH  23  24
HETATM   24  C13 UNL     1      25.705   6.681  49.123  1.00  0.00     0.005 A 
HETATM   25  C14 UNL     1      26.109   5.342  49.103  1.00  0.00     0.015 A 
HETATM   26  C15 UNL     1      27.379   5.017  48.657  1.00  0.00     0.043 A 
HETATM   27  C16 UNL     1      28.261   5.989  48.230  1.00  0.00     0.119 A 
HETATM   28  F1  UNL     1      29.508   5.661  47.794  1.00  0.00    -0.206 F 
HETATM   29  C17 UNL     1      27.849   7.302  48.256  1.00  0.00     0.085 A 
HETATM   30  C18 UNL     1      26.589   7.646  48.696  1.00  0.00     0.127 A 
HETATM   31  F2  UNL     1      26.219   8.958  48.706  1.00  0.00    -0.205 F 
ENDBRANCH  23  24
ENDBRANCH  22  23
ENDBRANCH   4  22
TORSDOF 8
ENDMDL
MODEL 8
REMARK VINA RESULT:      -7.8      5.059      8.904
REMARK  8 active torsions:
REMARK  status: ('A' for Active; 'I' for Inactive)
REMARK    1  A    between atoms: C5_5  and  N1_6 
REMARK    2  A    between atoms: N1_6  and  C6_7 
REMARK    3  A    between atoms: C6_7  and  C7_8 
REMARK    4  A    between atoms: C7_8  and  O1_9 
REMARK    5  A    between atoms: C9_11  and  N2_12 
REMARK    6  A    between atoms: C11_15  and  O2_16 
REMARK    7  A    between atoms: O2_16  and  C12_17 
REMARK    8  A    between atoms: C12_17  and  C13_18 
ROOT
HETATM    1  N2  UNL     1      24.105   4.234  49.486  1.00  0.00    -0.271 N 
HETATM    2  C10 UNL     1      23.488   3.341  48.693  1.00  0.00     0.221 A 
HETATM    3  N3  UNL     1      22.373   2.673  49.090  1.00  0.00    -0.218 NA
HETATM    4  C11 UNL     1      21.845   2.898  50.325  1.00  0.00     0.193 A 
HETATM    5  C19 UNL     1      22.473   3.823  51.161  1.00  0.00     0.155 A 
HETATM    6 CL1  UNL     1      21.878   4.195  52.781  1.00  0.00    -0.074 Cl
HETATM    7  C20 UNL     1      23.617   4.489  50.716  1.00  0.00     0.279 A 
HETATM    8  O3  UNL     1      24.165   5.320  51.495  1.00  0.00    -0.266 OA
ENDROOT
BRANCH   1   9
HETATM    9  C9  UNL     1      25.271   4.963  49.135  1.00  0.00     0.051 A 
HETATM   10  C2  UNL     1      26.448   4.263  49.202  1.00  0.00    -0.035 A 
HETATM   11  C1  UNL     1      26.525   2.833  49.612  1.00  0.00     0.050 C 
HETATM   12  C3  UNL     1      27.620   4.913  48.875  1.00  0.00     0.011 A 
HETATM   13  C4  UNL     1      27.536   6.235  48.497  1.00  0.00     0.030 A 
HETATM   14  C5  UNL     1      26.385   6.967  48.417  1.00  0.00     0.030 A 
HETATM   15  C8  UNL     1      25.236   6.284  48.751  1.00  0.00     0.059 A 
BRANCH  14  16
HETATM   16  N1  UNL     1      26.293   8.326  48.048  1.00  0.00    -0.388 N 
HETATM   17  H6  UNL     1      25.933   8.556  47.083  1.00  0.00     0.159 HD
BRANCH  16  18
HETATM   18  C6  UNL     1      26.626   9.506  48.812  1.00  0.00     0.146 C 
BRANCH  18  19
HETATM   19  C7  UNL     1      26.221   9.272  50.243  1.00  0.00     0.183 C 
BRANCH  19  20
HETATM   20  O1  UNL     1      27.343   9.594  51.016  1.00  0.00    -0.399 OA
HETATM   21  H11 UNL     1      28.151   9.194  50.619  1.00  0.00     0.209 HD
ENDBRANCH  19  20
ENDBRANCH  18  19
ENDBRANCH  16  18
ENDBRANCH  14  16
ENDBRANCH   1   9
BRANCH   4  22
HETATM   22  O2  UNL     1      20.731   2.316  50.886  1.00  0.00    -0.328 OA
BRANCH  22  23
HETATM   23  C12 UNL     1      20.441   0.954  50.960  1.00  0.00     0.219 C 
BRANCH  23  24
HETATM   24  C13 UNL     1      21.089   0.346  52.174  1.00  0.00     0.005 A 
HETATM   25  C14 UNL     1      22.475   0.373  52.356  1.00  0.00     0.015 A 
HETATM   26  C15 UNL     1      23.027  -0.196  53.492  1.00  0.00     0.043 A 
HETATM   27  C16 UNL     1      22.236  -0.793  54.453  1.00  0.00     0.119 A 
HETATM   28  F1  UNL     1      22.786  -1.350  55.567  1.00  0.00    -0.206 F 
HETATM   29  C17 UNL     1      20.873  -0.811  54.260  1.00  0.00     0.085 A 
HETATM   30  C18 UNL     1      20.305  -0.249  53.136  1.00  0.00     0.127 A 
HETATM   31  F2  UNL     1      18.952  -0.288  52.981  1.00  0.00    -0.205 F 
ENDBRANCH  23  24
ENDBRANCH  22  23
ENDBRANCH   4  22
TORSDOF 8
ENDMDL
MODEL 9
REMARK VINA RESULT:      -7.7      4.010      8.123
REMARK  8 active torsions:
REMARK  status: ('A' for Active; 'I' for Inactive)
REMARK    1  A    between atoms: C5_5  and  N1_6 
REMARK    2  A    between atoms: N1_6  and  C6_7 
REMARK    3  A    between atoms: C6_7  and  C7_8 
REMARK    4  A    between atoms: C7_8  and  O1_9 
REMARK    5  A    between atoms: C9_11  and  N2_12 
REMARK    6  A    between atoms: C11_15  and  O2_16 
REMARK    7  A    between atoms: O2_16  and  C12_17 
REMARK    8  A    between atoms: C12_17  and  C13_18 
ROOT
HETATM    1  N2  UNL     1      23.707   2.778  51.216  1.00  0.00    -0.271 N 
HETATM    2  C10 UNL     1      24.902   2.169  51.117  1.00  0.00     0.221 A 
HETATM    3  N3  UNL     1      25.199   1.044  51.818  1.00  0.00    -0.218 NA
HETATM    4  C11 UNL     1      24.274   0.494  52.653  1.00  0.00     0.193 A 
HETATM    5  C19 UNL     1      23.028   1.113  52.768  1.00  0.00     0.155 A 
HETATM    6 CL1  UNL     1      21.753   0.491  53.820  1.00  0.00    -0.074 Cl
HETATM    7  C20 UNL     1      22.761   2.269  52.031  1.00  0.00     0.279 A 
HETATM    8  O3  UNL     1      21.625   2.807  52.155  1.00  0.00    -0.266 OA
ENDROOT
BRANCH   1   9
HETATM    9  C9  UNL     1      23.334   3.954  50.517  1.00  0.00     0.051 A 
HETATM   10  C2  UNL     1      22.718   3.753  49.309  1.00  0.00    -0.035 A 
HETATM   11  C1  UNL     1      22.445   2.399  48.747  1.00  0.00     0.050 C 
HETATM   12  C3  UNL     1      22.329   4.854  48.575  1.00  0.00     0.011 A 
HETATM   13  C4  UNL     1      22.586   6.100  49.105  1.00  0.00     0.030 A 
HETATM   14  C5  UNL     1      23.197   6.343  50.303  1.00  0.00     0.030 A 
HETATM   15  C8  UNL     1      23.570   5.218  51.006  1.00  0.00     0.059 A 
BRANCH  14  16
HETATM   16  N1  UNL     1      23.479   7.616  50.845  1.00  0.00    -0.388 N 
HETATM   17  H6  UNL     1      22.859   7.975  51.619  1.00  0.00     0.159 HD
BRANCH  16  18
HETATM   18  C6  UNL     1      24.526   8.547  50.494  1.00  0.00     0.146 C 
BRANCH  18  19
HETATM   19  C7  UNL     1      25.733   7.759  50.057  1.00  0.00     0.183 C 
BRANCH  19  20
HETATM   20  O1  UNL     1      26.826   8.340  50.711  1.00  0.00    -0.399 OA
HETATM   21  H11 UNL     1      27.636   8.251  50.158  1.00  0.00     0.209 HD
ENDBRANCH  19  20
ENDBRANCH  18  19
ENDBRANCH  16  18
ENDBRANCH  14  16
ENDBRANCH   1   9
BRANCH   4  22
HETATM   22  O2  UNL     1      24.403  -0.632  53.432  1.00  0.00    -0.328 OA
BRANCH  22  23
HETATM   23  C12 UNL     1      25.165  -0.770  54.593  1.00  0.00     0.219 C 
BRANCH  23  24
HETATM   24  C13 UNL     1      26.623  -0.562  54.289  1.00  0.00     0.005 A 
HETATM   25  C14 UNL     1      27.362   0.456  54.901  1.00  0.00     0.015 A 
HETATM   26  C15 UNL     1      28.703   0.608  54.592  1.00  0.00     0.043 A 
HETATM   27  C16 UNL     1      29.332  -0.226  53.689  1.00  0.00     0.119 A 
HETATM   28  F1  UNL     1      30.651  -0.070  53.391  1.00  0.00    -0.206 F 
HETATM   29  C17 UNL     1      28.592  -1.223  53.095  1.00  0.00     0.085 A 
HETATM   30  C18 UNL     1      27.255  -1.391  53.390  1.00  0.00     0.127 A 
HETATM   31  F2  UNL     1      26.557  -2.390  52.780  1.00  0.00    -0.205 F 
ENDBRANCH  23  24
ENDBRANCH  22  23
ENDBRANCH   4  22
TORSDOF 8
ENDMDL
