MODEL 1
REMARK VINA RESULT:      -8.1      0.000      0.000
REMARK  5 active torsions:
REMARK  status: ('A' for Active; 'I' for Inactive)
REMARK    1  A    between atoms: C7_7  and  C8_8 
REMARK    2  A    between atoms: C11_13  and  O1_14 
REMARK    3  A    between atoms: O1_14  and  C12_15 
REMARK    4  A    between atoms: C12_15  and  C14_17 
REMARK    5  A    between atoms: C14_17  and  O2_18 
ROOT
HETATM    1  C1  UNL     1      18.848  -0.633  53.038  1.00  0.00     0.018 C 
HETATM    2  C2  UNL     1      20.007  -0.646  53.369  1.00  0.00    -0.078 C 
HETATM    3  C3  UNL     1      21.389  -0.659  53.740  1.00  0.00     0.017 A 
HETATM    4  C4  UNL     1      21.784  -1.358  54.868  1.00  0.00     0.020 A 
HETATM    5  C5  UNL     1      23.106  -1.422  55.326  1.00  0.00     0.002 A 
HETATM    6  C6  UNL     1      23.972  -0.719  54.541  1.00  0.00     0.013 A 
HETATM    7  C7  UNL     1      23.710   0.006  53.410  1.00  0.00    -0.009 A 
HETATM    8  C21 UNL     1      22.375  -0.001  53.054  1.00  0.00     0.034 A 
ENDROOT
BRANCH   7   9
HETATM    9  C8  UNL     1      24.591   0.775  52.561  1.00  0.00     0.059 C 
HETATM   10  N1  UNL     1      25.903   0.513  52.586  1.00  0.00    -0.234 NA
HETATM   11  C9  UNL     1      26.608   1.389  51.660  1.00  0.00     0.292 C 
HETATM   12  N2  UNL     1      26.756   2.291  50.930  1.00  0.00    -0.435 NA
HETATM   13  C10 UNL     1      26.708   3.385  50.137  1.00  0.00     0.286 C 
HETATM   14  C11 UNL     1      25.349   3.948  49.855  1.00  0.00     0.112 C 
HETATM   15  C16 UNL     1      24.054   3.782  50.150  1.00  0.00     0.130 C 
HETATM   16  O3  UNL     1      23.072   4.576  49.620  1.00  0.00    -0.344 OA
HETATM   17  C19 UNL     1      23.408   2.778  51.054  1.00  0.00     0.093 C 
HETATM   18  C17 UNL     1      21.837   4.013  49.197  1.00  0.00     0.202 C 
HETATM   19  C18 UNL     1      21.151   3.257  50.287  1.00  0.00     0.202 C 
HETATM   20  O4  UNL     1      22.057   2.740  51.249  1.00  0.00    -0.350 OA
HETATM   21  C20 UNL     1      23.758   1.815  51.806  1.00  0.00     0.115 C 
BRANCH  14  22
HETATM   22  O1  UNL     1      25.577   5.015  48.971  1.00  0.00    -0.343 OA
BRANCH  22  23
HETATM   23  C12 UNL     1      26.307   6.168  49.308  1.00  0.00     0.148 C 
HETATM   24  C13 UNL     1      27.259   6.499  48.187  1.00  0.00     0.042 C 
BRANCH  23  25
HETATM   25  C14 UNL     1      25.394   7.354  49.529  1.00  0.00     0.199 C 
BRANCH  25  26
HETATM   26  O2  UNL     1      24.823   7.298  50.793  1.00  0.00    -0.393 OA
HETATM   27  C15 UNL     1      23.560   7.874  50.750  1.00  0.00     0.201 C 
ENDBRANCH  25  26
ENDBRANCH  23  25
ENDBRANCH  22  23
ENDBRANCH  14  22
ENDBRANCH   7   9
TORSDOF 5
ENDMDL
MODEL 2
REMARK VINA RESULT:      -8.0      3.431      6.631
REMARK  5 active torsions:
REMARK  status: ('A' for Active; 'I' for Inactive)
REMARK    1  A    between atoms: C7_7  and  C8_8 
REMARK    2  A    between atoms: C11_13  and  O1_14 
REMARK    3  A    between atoms: O1_14  and  C12_15 
REMARK    4  A    between atoms: C12_15  and  C14_17 
REMARK    5  A    between atoms: C14_17  and  O2_18 
ROOT
HETATM    1  C1  UNL     1      28.656  -2.800  53.077  1.00  0.00     0.018 C 
HETATM    2  C2  UNL     1      28.362  -1.631  53.078  1.00  0.00    -0.078 C 
HETATM    3  C3  UNL     1      28.002  -0.247  53.060  1.00  0.00     0.017 A 
HETATM    4  C4  UNL     1      28.895   0.696  53.539  1.00  0.00     0.020 A 
HETATM    5  C5  UNL     1      28.636   2.071  53.580  1.00  0.00     0.002 A 
HETATM    6  C6  UNL     1      27.401   2.391  53.095  1.00  0.00     0.013 A 
HETATM    7  C7  UNL     1      26.435   1.561  52.595  1.00  0.00    -0.009 A 
HETATM    8  C21 UNL     1      26.800   0.229  52.605  1.00  0.00     0.034 A 
ENDROOT
BRANCH   7   9
HETATM    9  C8  UNL     1      25.113   1.854  52.089  1.00  0.00     0.059 C 
HETATM   10  N1  UNL     1      24.990   2.698  51.057  1.00  0.00    -0.234 NA
HETATM   11  C9  UNL     1      23.587   2.852  50.698  1.00  0.00     0.292 C 
HETATM   12  N2  UNL     1      22.427   2.757  50.818  1.00  0.00    -0.435 NA
HETATM   13  C10 UNL     1      21.135   2.544  51.156  1.00  0.00     0.286 C 
HETATM   14  C11 UNL     1      20.887   1.593  52.287  1.00  0.00     0.112 C 
HETATM   15  C16 UNL     1      21.522   0.838  53.192  1.00  0.00     0.130 C 
HETATM   16  O3  UNL     1      20.854   0.059  54.097  1.00  0.00    -0.344 OA
HETATM   17  C19 UNL     1      22.992   0.671  53.424  1.00  0.00     0.093 C 
HETATM   18  C17 UNL     1      21.322  -1.246  54.413  1.00  0.00     0.202 C 
HETATM   19  C18 UNL     1      22.733  -1.242  54.901  1.00  0.00     0.202 C 
HETATM   20  O4  UNL     1      23.484  -0.148  54.399  1.00  0.00    -0.350 OA
HETATM   21  C20 UNL     1      24.085   1.106  52.941  1.00  0.00     0.115 C 
BRANCH  14  22
HETATM   22  O1  UNL     1      19.489   1.505  52.383  1.00  0.00    -0.343 OA
BRANCH  22  23
HETATM   23  C12 UNL     1      18.644   1.255  51.290  1.00  0.00     0.148 C 
HETATM   24  C13 UNL     1      18.257  -0.201  51.281  1.00  0.00     0.042 C 
BRANCH  23  25
HETATM   25  C14 UNL     1      17.382   2.087  51.367  1.00  0.00     0.199 C 
BRANCH  25  26
HETATM   26  O2  UNL     1      17.653   3.331  51.918  1.00  0.00    -0.393 OA
HETATM   27  C15 UNL     1      16.662   4.226  51.537  1.00  0.00     0.201 C 
ENDBRANCH  25  26
ENDBRANCH  23  25
ENDBRANCH  22  23
ENDBRANCH  14  22
ENDBRANCH   7   9
TORSDOF 5
ENDMDL
MODEL 3
REMARK VINA RESULT:      -8.0      1.851      7.747
REMARK  5 active torsions:
REMARK  status: ('A' for Active; 'I' for Inactive)
REMARK    1  A    between atoms: C7_7  and  C8_8 
REMARK    2  A    between atoms: C11_13  and  O1_14 
REMARK    3  A    between atoms: O1_14  and  C12_15 
REMARK    4  A    between atoms: C12_15  and  C14_17 
REMARK    5  A    between atoms: C14_17  and  O2_18 
ROOT
HETATM    1  C1  UNL     1      30.724   5.593  47.667  1.00  0.00     0.018 C 
HETATM    2  C2  UNL     1      29.563   5.588  47.989  1.00  0.00    -0.078 C 
HETATM    3  C3  UNL     1      28.185   5.558  48.371  1.00  0.00     0.017 A 
HETATM    4  C4  UNL     1      27.333   6.553  47.923  1.00  0.00     0.020 A 
HETATM    5  C5  UNL     1      25.973   6.626  48.250  1.00  0.00     0.002 A 
HETATM    6  C6  UNL     1      25.570   5.607  49.063  1.00  0.00     0.013 A 
HETATM    7  C7  UNL     1      26.306   4.571  49.569  1.00  0.00    -0.009 A 
HETATM    8  C21 UNL     1      27.632   4.602  49.182  1.00  0.00     0.034 A 
ENDROOT
BRANCH   7   9
HETATM    9  C8  UNL     1      25.924   3.484  50.442  1.00  0.00     0.059 C 
HETATM   10  N1  UNL     1      26.876   2.845  51.132  1.00  0.00    -0.234 NA
HETATM   11  C9  UNL     1      26.284   1.796  51.951  1.00  0.00     0.292 C 
HETATM   12  N2  UNL     1      25.454   1.067  52.335  1.00  0.00    -0.435 NA
HETATM   13  C10 UNL     1      24.361   0.321  52.615  1.00  0.00     0.286 C 
HETATM   14  C11 UNL     1      23.065   0.780  52.018  1.00  0.00     0.112 C 
HETATM   15  C16 UNL     1      22.546   1.711  51.210  1.00  0.00     0.130 C 
HETATM   16  O3  UNL     1      21.208   1.771  50.923  1.00  0.00    -0.344 OA
HETATM   17  C19 UNL     1      23.232   2.823  50.478  1.00  0.00     0.093 C 
HETATM   18  C17 UNL     1      20.538   3.024  50.857  1.00  0.00     0.202 C 
HETATM   19  C18 UNL     1      21.168   3.956  49.875  1.00  0.00     0.202 C 
HETATM   20  O4  UNL     1      22.550   3.699  49.684  1.00  0.00    -0.350 OA
HETATM   21  C20 UNL     1      24.411   3.279  50.334  1.00  0.00     0.115 C 
BRANCH  14  22
HETATM   22  O1  UNL     1      22.104  -0.115  52.514  1.00  0.00    -0.343 OA
BRANCH  22  23
HETATM   23  C12 UNL     1      21.790  -0.251  53.876  1.00  0.00     0.148 C 
HETATM   24  C13 UNL     1      20.701   0.726  54.238  1.00  0.00     0.042 C 
BRANCH  23  25
HETATM   25  C14 UNL     1      21.305  -1.649  54.194  1.00  0.00     0.199 C 
BRANCH  25  26
HETATM   26  O2  UNL     1      22.071  -2.210  55.206  1.00  0.00    -0.393 OA
HETATM   27  C15 UNL     1      23.150  -1.380  55.478  1.00  0.00     0.201 C 
ENDBRANCH  25  26
ENDBRANCH  23  25
ENDBRANCH  22  23
ENDBRANCH  14  22
ENDBRANCH   7   9
TORSDOF 5
ENDMDL
MODEL 4
REMARK VINA RESULT:      -7.8      2.481      8.100
REMARK  5 active torsions:
REMARK  status: ('A' for Active; 'I' for Inactive)
REMARK    1  A    between atoms: C7_7  and  C8_8 
REMARK    2  A    between atoms: C11_13  and  O1_14 
REMARK    3  A    between atoms: O1_14  and  C12_15 
REMARK    4  A    between atoms: C12_15  and  C14_17 
REMARK    5  A    between atoms: C14_17  and  O2_18 
ROOT
HETATM    1  C1  UNL     1      26.296   9.354  47.146  1.00  0.00     0.018 C 
HETATM    2  C2  UNL     1      26.460   8.244  47.584  1.00  0.00    -0.078 C 
HETATM    3  C3  UNL     1      26.640   6.930  48.121  1.00  0.00     0.017 A 
HETATM    4  C4  UNL     1      27.882   6.324  48.037  1.00  0.00     0.020 A 
HETATM    5  C5  UNL     1      28.160   5.038  48.516  1.00  0.00     0.002 A 
HETATM    6  C6  UNL     1      27.073   4.436  49.079  1.00  0.00     0.013 A 
HETATM    7  C7  UNL     1      25.802   4.924  49.223  1.00  0.00    -0.009 A 
HETATM    8  C21 UNL     1      25.644   6.198  48.714  1.00  0.00     0.034 A 
ENDROOT
BRANCH   7   9
HETATM    9  C8  UNL     1      24.621   4.317  49.795  1.00  0.00     0.059 C 
HETATM   10  N1  UNL     1      23.418   4.755  49.407  1.00  0.00    -0.234 NA
HETATM   11  C9  UNL     1      22.368   4.013  50.093  1.00  0.00     0.292 C 
HETATM   12  N2  UNL     1      21.901   3.289  50.884  1.00  0.00    -0.435 NA
HETATM   13  C10 UNL     1      21.576   2.432  51.878  1.00  0.00     0.286 C 
HETATM   14  C11 UNL     1      22.711   1.711  52.538  1.00  0.00     0.112 C 
HETATM   15  C16 UNL     1      24.046   1.618  52.539  1.00  0.00     0.130 C 
HETATM   16  O3  UNL     1      24.722   0.756  53.361  1.00  0.00    -0.344 OA
HETATM   17  C19 UNL     1      25.050   2.367  51.718  1.00  0.00     0.093 C 
HETATM   18  C17 UNL     1      25.846   0.031  52.880  1.00  0.00     0.202 C 
HETATM   19  C18 UNL     1      26.908   0.925  52.330  1.00  0.00     0.202 C 
HETATM   20  O4  UNL     1      26.392   2.152  51.840  1.00  0.00    -0.350 OA
HETATM   21  C20 UNL     1      25.059   3.265  50.818  1.00  0.00     0.115 C 
BRANCH  14  22
HETATM   22  O1  UNL     1      22.101   0.852  53.466  1.00  0.00    -0.343 OA
BRANCH  22  23
HETATM   23  C12 UNL     1      21.414  -0.321  53.113  1.00  0.00     0.148 C 
HETATM   24  C13 UNL     1      22.038  -1.497  53.821  1.00  0.00     0.042 C 
BRANCH  23  25
HETATM   25  C14 UNL     1      19.954  -0.246  53.504  1.00  0.00     0.199 C 
BRANCH  25  26
HETATM   26  O2  UNL     1      19.148  -0.263  52.375  1.00  0.00    -0.393 OA
HETATM   27  C15 UNL     1      17.961  -0.922  52.669  1.00  0.00     0.201 C 
ENDBRANCH  25  26
ENDBRANCH  23  25
ENDBRANCH  22  23
ENDBRANCH  14  22
ENDBRANCH   7   9
TORSDOF 5
ENDMDL
MODEL 5
REMARK VINA RESULT:      -7.7      3.147      7.324
REMARK  5 active torsions:
REMARK  status: ('A' for Active; 'I' for Inactive)
REMARK    1  A    between atoms: C7_7  and  C8_8 
REMARK    2  A    between atoms: C11_13  and  O1_14 
REMARK    3  A    between atoms: O1_14  and  C12_15 
REMARK    4  A    between atoms: C12_15  and  C14_17 
REMARK    5  A    between atoms: C14_17  and  O2_18 
ROOT
HETATM    1  C1  UNL     1      26.686   3.277  50.288  1.00  0.00     0.018 C 
HETATM    2  C2  UNL     1      26.379   2.360  51.007  1.00  0.00    -0.078 C 
HETATM    3  C3  UNL     1      25.997   1.284  51.869  1.00  0.00     0.017 A 
HETATM    4  C4  UNL     1      26.975   0.486  52.437  1.00  0.00     0.020 A 
HETATM    5  C5  UNL     1      26.709  -0.600  53.280  1.00  0.00     0.002 A 
HETATM    6  C6  UNL     1      25.374  -0.793  53.487  1.00  0.00     0.013 A 
HETATM    7  C7  UNL     1      24.317  -0.080  52.989  1.00  0.00    -0.009 A 
HETATM    8  C21 UNL     1      24.699   0.964  52.170  1.00  0.00     0.034 A 
ENDROOT
BRANCH   7   9
HETATM    9  C8  UNL     1      22.894  -0.260  53.169  1.00  0.00     0.059 C 
HETATM   10  N1  UNL     1      22.453  -0.842  54.291  1.00  0.00    -0.234 NA
HETATM   11  C9  UNL     1      20.999  -0.921  54.278  1.00  0.00     0.292 C 
HETATM   12  N2  UNL     1      19.920  -0.867  53.829  1.00  0.00    -0.435 NA
HETATM   13  C10 UNL     1      18.780  -0.750  53.112  1.00  0.00     0.286 C 
HETATM   14  C11 UNL     1      18.895  -0.089  51.772  1.00  0.00     0.112 C 
HETATM   15  C16 UNL     1      19.790   0.441  50.929  1.00  0.00     0.130 C 
HETATM   16  O3  UNL     1      19.432   0.983  49.724  1.00  0.00    -0.344 OA
HETATM   17  C19 UNL     1      21.275   0.563  51.074  1.00  0.00     0.093 C 
HETATM   18  C17 UNL     1      20.038   2.183  49.262  1.00  0.00     0.202 C 
HETATM   19  C18 UNL     1      21.527   2.078  49.191  1.00  0.00     0.202 C 
HETATM   20  O4  UNL     1      22.054   1.137  50.112  1.00  0.00    -0.350 OA
HETATM   21  C20 UNL     1      22.173   0.261  51.923  1.00  0.00     0.115 C 
BRANCH  14  22
HETATM   22  O1  UNL     1      17.581  -0.038  51.281  1.00  0.00    -0.343 OA
BRANCH  22  23
HETATM   23  C12 UNL     1      16.588   0.815  51.791  1.00  0.00     0.148 C 
HETATM   24  C13 UNL     1      16.206   1.822  50.736  1.00  0.00     0.042 C 
BRANCH  23  25
HETATM   25  C14 UNL     1      15.349   0.043  52.188  1.00  0.00     0.199 C 
BRANCH  25  26
HETATM   26  O2  UNL     1      14.907   0.447  53.440  1.00  0.00    -0.393 OA
HETATM   27  C15 UNL     1      13.518   0.445  53.459  1.00  0.00     0.201 C 
ENDBRANCH  25  26
ENDBRANCH  23  25
ENDBRANCH  22  23
ENDBRANCH  14  22
ENDBRANCH   7   9
TORSDOF 5
ENDMDL
MODEL 6
REMARK VINA RESULT:      -7.5      2.588      5.885
REMARK  5 active torsions:
REMARK  status: ('A' for Active; 'I' for Inactive)
REMARK    1  A    between atoms: C7_7  and  C8_8 
REMARK    2  A    between atoms: C11_13  and  O1_14 
REMARK    3  A    between atoms: O1_14  and  C12_15 
REMARK    4  A    between atoms: C12_15  and  C14_17 
REMARK    5  A    between atoms: C14_17  and  O2_18 
ROOT
HETATM    1  C1  UNL     1      29.760   2.117  54.581  1.00  0.00     0.018 C 
HETATM    2  C2  UNL     1      28.977   1.294  54.178  1.00  0.00    -0.078 C 
HETATM    3  C3  UNL     1      28.033   0.324  53.715  1.00  0.00     0.017 A 
HETATM    4  C4  UNL     1      28.485  -0.895  53.241  1.00  0.00     0.020 A 
HETATM    5  C5  UNL     1      27.648  -1.905  52.751  1.00  0.00     0.002 A 
HETATM    6  C6  UNL     1      26.328  -1.563  52.790  1.00  0.00     0.013 A 
HETATM    7  C7  UNL     1      25.756  -0.401  53.233  1.00  0.00    -0.009 A 
HETATM    8  C21 UNL     1      26.677   0.522  53.691  1.00  0.00     0.034 A 
ENDROOT
BRANCH   7   9
HETATM    9  C8  UNL     1      24.371   0.008  53.277  1.00  0.00     0.059 C 
HETATM   10  N1  UNL     1      23.512  -0.701  54.019  1.00  0.00    -0.234 NA
HETATM   11  C9  UNL     1      22.177  -0.123  53.933  1.00  0.00     0.292 C 
HETATM   12  N2  UNL     1      21.325   0.566  53.523  1.00  0.00    -0.435 NA
HETATM   13  C10 UNL     1      20.499   1.434  52.898  1.00  0.00     0.286 C 
HETATM   14  C11 UNL     1      21.143   2.433  51.985  1.00  0.00     0.112 C 
HETATM   15  C16 UNL     1      22.330   2.794  51.483  1.00  0.00     0.130 C 
HETATM   16  O3  UNL     1      22.474   3.853  50.627  1.00  0.00    -0.344 OA
HETATM   17  C19 UNL     1      23.680   2.187  51.709  1.00  0.00     0.093 C 
HETATM   18  C17 UNL     1      23.578   4.740  50.753  1.00  0.00     0.202 C 
HETATM   19  C18 UNL     1      24.890   4.029  50.685  1.00  0.00     0.202 C 
HETATM   20  O4  UNL     1      24.806   2.680  51.116  1.00  0.00    -0.350 OA
HETATM   21  C20 UNL     1      24.189   1.223  52.364  1.00  0.00     0.115 C 
BRANCH  14  22
HETATM   22  O1  UNL     1      20.087   3.238  51.529  1.00  0.00    -0.343 OA
BRANCH  22  23
HETATM   23  C12 UNL     1      18.831   2.739  51.145  1.00  0.00     0.148 C 
HETATM   24  C13 UNL     1      17.774   3.773  51.436  1.00  0.00     0.042 C 
BRANCH  23  25
HETATM   25  C14 UNL     1      18.794   2.418  49.667  1.00  0.00     0.199 C 
BRANCH  25  26
HETATM   26  O2  UNL     1      19.651   3.256  48.966  1.00  0.00    -0.393 OA
HETATM   27  C15 UNL     1      20.405   2.500  48.079  1.00  0.00     0.201 C 
ENDBRANCH  25  26
ENDBRANCH  23  25
ENDBRANCH  22  23
ENDBRANCH  14  22
ENDBRANCH   7   9
TORSDOF 5
ENDMDL
MODEL 7
REMARK VINA RESULT:      -7.5      2.421      4.172
REMARK  5 active torsions:
REMARK  status: ('A' for Active; 'I' for Inactive)
REMARK    1  A    between atoms: C7_7  and  C8_8 
REMARK    2  A    between atoms: C11_13  and  O1_14 
REMARK    3  A    between atoms: O1_14  and  C12_15 
REMARK    4  A    between atoms: C12_15  and  C14_17 
REMARK    5  A    between atoms: C14_17  and  O2_18 
ROOT
HETATM    1  C1  UNL     1      29.791  -1.054  53.673  1.00  0.00     0.018 C 
HETATM    2  C2  UNL     1      28.683  -0.657  53.414  1.00  0.00    -0.078 C 
HETATM    3  C3  UNL     1      27.375  -0.165  53.107  1.00  0.00     0.017 A 
HETATM    4  C4  UNL     1      26.265  -0.817  53.615  1.00  0.00     0.020 A 
HETATM    5  C5  UNL     1      24.944  -0.427  53.363  1.00  0.00     0.002 A 
HETATM    6  C6  UNL     1      24.861   0.671  52.558  1.00  0.00     0.013 A 
HETATM    7  C7  UNL     1      25.873   1.402  51.997  1.00  0.00    -0.009 A 
HETATM    8  C21 UNL     1      27.131   0.925  52.313  1.00  0.00     0.034 A 
ENDROOT
BRANCH   7   9
HETATM    9  C8  UNL     1      25.830   2.557  51.130  1.00  0.00     0.059 C 
HETATM   10  N1  UNL     1      26.884   2.816  50.346  1.00  0.00    -0.234 NA
HETATM   11  C9  UNL     1      26.637   4.011  49.551  1.00  0.00     0.292 C 
HETATM   12  N2  UNL     1      26.092   4.991  49.219  1.00  0.00    -0.435 NA
HETATM   13  C10 UNL     1      25.318   6.081  49.011  1.00  0.00     0.286 C 
HETATM   14  C11 UNL     1      24.002   6.115  49.726  1.00  0.00     0.112 C 
HETATM   15  C16 UNL     1      23.256   5.428  50.599  1.00  0.00     0.130 C 
HETATM   16  O3  UNL     1      22.016   5.850  50.998  1.00  0.00    -0.344 OA
HETATM   17  C19 UNL     1      23.561   4.140  51.301  1.00  0.00     0.093 C 
HETATM   18  C17 UNL     1      20.952   4.921  51.154  1.00  0.00     0.202 C 
HETATM   19  C18 UNL     1      21.290   3.820  52.105  1.00  0.00     0.202 C 
HETATM   20  O4  UNL     1      22.683   3.563  52.173  1.00  0.00    -0.350 OA
HETATM   21  C20 UNL     1      24.506   3.292  51.358  1.00  0.00     0.115 C 
BRANCH  14  22
HETATM   22  O1  UNL     1      23.384   7.297  49.288  1.00  0.00    -0.343 OA
BRANCH  22  23
HETATM   23  C12 UNL     1      23.683   7.932  48.071  1.00  0.00     0.148 C 
HETATM   24  C13 UNL     1      22.556   7.699  47.098  1.00  0.00     0.042 C 
BRANCH  23  25
HETATM   25  C14 UNL     1      23.857   9.424  48.255  1.00  0.00     0.199 C 
BRANCH  25  26
HETATM   26  O2  UNL     1      25.204   9.759  48.252  1.00  0.00    -0.393 OA
HETATM   27  C15 UNL     1      25.804   9.234  47.115  1.00  0.00     0.201 C 
ENDBRANCH  25  26
ENDBRANCH  23  25
ENDBRANCH  22  23
ENDBRANCH  14  22
ENDBRANCH   7   9
TORSDOF 5
ENDMDL
MODEL 8
REMARK VINA RESULT:      -7.3      2.712      7.115
REMARK  5 active torsions:
REMARK  status: ('A' for Active; 'I' for Inactive)
REMARK    1  A    between atoms: C7_7  and  C8_8 
REMARK    2  A    between atoms: C11_13  and  O1_14 
REMARK    3  A    between atoms: O1_14  and  C12_15 
REMARK    4  A    between atoms: C12_15  and  C14_17 
REMARK    5  A    between atoms: C14_17  and  O2_18 
ROOT
HETATM    1  C1  UNL     1      26.741   3.573  49.647  1.00  0.00     0.018 C 
HETATM    2  C2  UNL     1      26.667   2.928  50.663  1.00  0.00    -0.078 C 
HETATM    3  C3  UNL     1      26.559   2.170  51.871  1.00  0.00     0.017 A 
HETATM    4  C4  UNL     1      27.670   2.019  52.683  1.00  0.00     0.020 A 
HETATM    5  C5  UNL     1      27.675   1.286  53.875  1.00  0.00     0.002 A 
HETATM    6  C6  UNL     1      26.462   0.730  54.160  1.00  0.00     0.013 A 
HETATM    7  C7  UNL     1      25.296   0.805  53.447  1.00  0.00    -0.009 A 
HETATM    8  C21 UNL     1      25.410   1.551  52.290  1.00  0.00     0.034 A 
ENDROOT
BRANCH   7   9
HETATM    9  C8  UNL     1      23.999   0.222  53.702  1.00  0.00     0.059 C 
HETATM   10  N1  UNL     1      23.926  -0.898  54.431  1.00  0.00    -0.234 NA
HETATM   11  C9  UNL     1      22.538  -1.315  54.576  1.00  0.00     0.292 C 
HETATM   12  N2  UNL     1      21.388  -1.326  54.363  1.00  0.00    -0.435 NA
HETATM   13  C10 UNL     1      20.106  -1.176  53.960  1.00  0.00     0.286 C 
HETATM   14  C11 UNL     1      19.803   0.032  53.127  1.00  0.00     0.112 C 
HETATM   15  C16 UNL     1      20.384   1.090  52.549  1.00  0.00     0.130 C 
HETATM   16  O3  UNL     1      19.675   2.019  51.835  1.00  0.00    -0.344 OA
HETATM   17  C19 UNL     1      21.827   1.490  52.535  1.00  0.00     0.093 C 
HETATM   18  C17 UNL     1      19.972   3.404  51.957  1.00  0.00     0.202 C 
HETATM   19  C18 UNL     1      21.399   3.711  51.645  1.00  0.00     0.202 C 
HETATM   20  O4  UNL     1      22.263   2.613  51.893  1.00  0.00    -0.350 OA
HETATM   21  C20 UNL     1      22.935   1.062  52.991  1.00  0.00     0.115 C 
BRANCH  14  22
HETATM   22  O1  UNL     1      18.417  -0.020  52.908  1.00  0.00    -0.343 OA
BRANCH  22  23
HETATM   23  C12 UNL     1      17.801  -0.893  51.997  1.00  0.00     0.148 C 
HETATM   24  C13 UNL     1      16.663  -1.606  52.682  1.00  0.00     0.042 C 
BRANCH  23  25
HETATM   25  C14 UNL     1      17.248  -0.146  50.802  1.00  0.00     0.199 C 
BRANCH  25  26
HETATM   26  O2  UNL     1      16.010   0.404  51.104  1.00  0.00    -0.393 OA
HETATM   27  C15 UNL     1      16.086   1.786  51.002  1.00  0.00     0.201 C 
ENDBRANCH  25  26
ENDBRANCH  23  25
ENDBRANCH  22  23
ENDBRANCH  14  22
ENDBRANCH   7   9
TORSDOF 5
ENDMDL
MODEL 9
REMARK VINA RESULT:      -7.1      3.801      8.161
REMARK  5 active torsions:
REMARK  status: ('A' for Active; 'I' for Inactive)
REMARK    1  A    between atoms: C7_7  and  C8_8 
REMARK    2  A    between atoms: C11_13  and  O1_14 
REMARK    3  A    between atoms: O1_14  and  C12_15 
REMARK    4  A    between atoms: C12_15  and  C14_17 
REMARK    5  A    between atoms: C14_17  and  O2_18 
ROOT
HETATM    1  C1  UNL     1      27.704  -2.037  52.749  1.00  0.00     0.018 C 
HETATM    2  C2  UNL     1      26.839  -1.200  52.803  1.00  0.00    -0.078 C 
HETATM    3  C3  UNL     1      25.797  -0.220  52.856  1.00  0.00     0.017 A 
HETATM    4  C4  UNL     1      26.121   1.123  52.778  1.00  0.00     0.020 A 
HETATM    5  C5  UNL     1      25.182   2.160  52.836  1.00  0.00     0.002 A 
HETATM    6  C6  UNL     1      23.903   1.708  52.978  1.00  0.00     0.013 A 
HETATM    7  C7  UNL     1      23.454   0.417  53.065  1.00  0.00    -0.009 A 
HETATM    8  C21 UNL     1      24.467  -0.519  52.999  1.00  0.00     0.034 A 
ENDROOT
BRANCH   7   9
HETATM    9  C8  UNL     1      22.116  -0.103  53.232  1.00  0.00     0.059 C 
HETATM   10  N1  UNL     1      21.874  -0.951  54.238  1.00  0.00    -0.234 NA
HETATM   11  C9  UNL     1      20.473  -1.350  54.234  1.00  0.00     0.292 C 
HETATM   12  N2  UNL     1      19.386  -1.462  53.818  1.00  0.00    -0.435 NA
HETATM   13  C10 UNL     1      18.210  -1.483  53.151  1.00  0.00     0.286 C 
HETATM   14  C11 UNL     1      18.106  -0.595  51.949  1.00  0.00     0.112 C 
HETATM   15  C16 UNL     1      18.817   0.257  51.200  1.00  0.00     0.130 C 
HETATM   16  O3  UNL     1      18.284   0.903  50.116  1.00  0.00    -0.344 OA
HETATM   17  C19 UNL     1      20.246   0.681  51.342  1.00  0.00     0.093 C 
HETATM   18  C17 UNL     1      18.590   2.269  49.866  1.00  0.00     0.202 C 
HETATM   19  C18 UNL     1      20.059   2.513  49.756  1.00  0.00     0.202 C 
HETATM   20  O4  UNL     1      20.828   1.570  50.486  1.00  0.00    -0.350 OA
HETATM   21  C20 UNL     1      21.233   0.448  52.109  1.00  0.00     0.115 C 
BRANCH  14  22
HETATM   22  O1  UNL     1      16.787  -0.755  51.495  1.00  0.00    -0.343 OA
BRANCH  22  23
HETATM   23  C12 UNL     1      15.679  -0.898  52.346  1.00  0.00     0.148 C 
HETATM   24  C13 UNL     1      15.113   0.463  52.660  1.00  0.00     0.042 C 
BRANCH  23  25
HETATM   25  C14 UNL     1      14.592  -1.732  51.702  1.00  0.00     0.199 C 
BRANCH  25  26
HETATM   26  O2  UNL     1      14.092  -2.658  52.606  1.00  0.00    -0.393 OA
HETATM   27  C15 UNL     1      15.031  -3.662  52.801  1.00  0.00     0.201 C 
ENDBRANCH  25  26
ENDBRANCH  23  25
ENDBRANCH  22  23
ENDBRANCH  14  22
ENDBRANCH   7   9
TORSDOF 5
ENDMDL
