MODEL 1
REMARK VINA RESULT:      -8.8      0.000      0.000
REMARK  4 active torsions:
REMARK  status: ('A' for Active; 'I' for Inactive)
REMARK    1  A    between atoms: C2_2  and  N1_3 
REMARK    2  A    between atoms: C5_6  and  C6_7 
REMARK    3  A    between atoms: C6_7  and  O1_8 
REMARK    4  A    between atoms: O1_8  and  C7_9 
ROOT
HETATM    1  C7  UNL     1      24.832   2.962  52.087  1.00  0.00     0.357 C 
HETATM    2  C8  UNL     1      23.811   3.733  52.896  1.00  0.00     0.075 C 
HETATM    3  C9  UNL     1      22.650   4.141  52.186  1.00  0.00    -0.007 A 
HETATM    4  C10 UNL     1      21.327   3.868  51.808  1.00  0.00     0.044 A 
HETATM    5  C11 UNL     1      20.939   5.105  50.944  1.00  0.00     0.102 A 
HETATM    6  N2  UNL     1      20.039   5.730  50.225  1.00  0.00    -0.268 NA
HETATM    7  C12 UNL     1      20.408   6.958  49.709  1.00  0.00     0.222 A 
HETATM    8  N3  UNL     1      21.606   6.864  50.258  1.00  0.00    -0.266 NA
HETATM    9  C13 UNL     1      22.170   5.925  51.007  1.00  0.00     0.118 A 
HETATM   10  C14 UNL     1      21.756   4.638  51.541  1.00  0.00     0.038 A 
HETATM   11  C15 UNL     1      23.528   6.589  51.205  1.00  0.00     0.214 A 
HETATM   12  C16 UNL     1      24.217   6.863  49.919  1.00  0.00     0.036 A 
HETATM   13  C17 UNL     1      25.308   6.284  49.352  1.00  0.00     0.187 A 
HETATM   14  F1  UNL     1      24.598   6.140  50.468  1.00  0.00    -0.374 F 
HETATM   15  C18 UNL     1      26.417   5.368  49.017  1.00  0.00     0.052 A 
HETATM   16 CL1  UNL     1      26.476   6.756  47.991  1.00  0.00    -0.134 Cl
HETATM   17  C19 UNL     1      26.973   4.228  49.327  1.00  0.00     0.026 C 
HETATM   18  C20 UNL     1      26.542   3.261  50.375  1.00  0.00     0.302 C 
HETATM   19  N4  UNL     1      25.310   3.795  50.971  1.00  0.00     0.115 N 
HETATM   20  H22 UNL     1      24.540   3.651  50.204  1.00  0.00     0.319 HD
ENDROOT
BRANCH   1  21
HETATM   21  O1  UNL     1      24.319   1.787  51.621  1.00  0.00    -0.355 OA
BRANCH  21  22
HETATM   22  C6  UNL     1      23.985   0.773  52.421  1.00  0.00     0.206 C 
BRANCH  22  23
HETATM   23  C5  UNL     1      24.987   0.022  53.217  1.00  0.00     0.247 C 
HETATM   24  C4  UNL     1      26.154  -0.307  52.280  1.00  0.00     0.057 C 
HETATM   25  C3  UNL     1      27.380   0.485  52.636  1.00  0.00     0.126 C 
HETATM   26  N1  UNL     1      27.776   0.085  53.967  1.00  0.00    -0.369 N 
HETATM   27  C21 UNL     1      26.690   0.006  54.894  1.00  0.00     0.394 C 
HETATM   28  N5  UNL     1      25.467   0.651  54.403  1.00  0.00     0.107 N 
HETATM   29  H23 UNL     1      24.793   0.518  55.186  1.00  0.00     0.318 HD
BRANCH  26  30
HETATM   30  C2  UNL     1      29.118  -0.196  54.308  1.00  0.00     0.060 C 
HETATM   31  C1  UNL     1      29.973  -0.882  53.574  1.00  0.00     0.049 C 
ENDBRANCH  26  30
ENDBRANCH  22  23
ENDBRANCH  21  22
ENDBRANCH   1  21
TORSDOF 4
ENDMDL
MODEL 2
REMARK VINA RESULT:      -8.7      4.079      5.732
REMARK  4 active torsions:
REMARK  status: ('A' for Active; 'I' for Inactive)
REMARK    1  A    between atoms: C2_2  and  N1_3 
REMARK    2  A    between atoms: C5_6  and  C6_7 
REMARK    3  A    between atoms: C6_7  and  O1_8 
REMARK    4  A    between atoms: O1_8  and  C7_9 
ROOT
HETATM    1  C7  UNL     1      22.863   0.847  52.157  1.00  0.00     0.357 C 
HETATM    2  C8  UNL     1      22.312   1.556  50.938  1.00  0.00     0.075 C 
HETATM    3  C9  UNL     1      21.225   2.438  51.183  1.00  0.00    -0.007 A 
HETATM    4  C10 UNL     1      20.787   3.742  51.455  1.00  0.00     0.044 A 
HETATM    5  C11 UNL     1      19.238   3.590  51.534  1.00  0.00     0.102 A 
HETATM    6  N2  UNL     1      18.067   4.149  51.718  1.00  0.00    -0.268 NA
HETATM    7  C12 UNL     1      16.966   3.320  51.609  1.00  0.00     0.222 A 
HETATM    8  N3  UNL     1      17.737   2.278  51.352  1.00  0.00    -0.266 NA
HETATM    9  C13 UNL     1      19.054   2.149  51.251  1.00  0.00     0.118 A 
HETATM   10  C14 UNL     1      20.195   3.043  51.367  1.00  0.00     0.038 A 
HETATM   11  C15 UNL     1      19.105   0.656  50.946  1.00  0.00     0.214 A 
HETATM   12  C16 UNL     1      18.476  -0.162  52.013  1.00  0.00     0.036 A 
HETATM   13  C17 UNL     1      19.023  -0.991  52.939  1.00  0.00     0.187 A 
HETATM   14  F1  UNL     1      19.457  -0.213  51.951  1.00  0.00    -0.374 F 
HETATM   15  C18 UNL     1      19.961  -1.699  53.835  1.00  0.00     0.052 A 
HETATM   16 CL1  UNL     1      18.368  -2.331  54.041  1.00  0.00    -0.134 Cl
HETATM   17  C19 UNL     1      21.210  -1.773  54.208  1.00  0.00     0.026 C 
HETATM   18  C20 UNL     1      22.354  -0.951  53.722  1.00  0.00     0.302 C 
HETATM   19  N4  UNL     1      21.807   0.028  52.773  1.00  0.00     0.115 N 
HETATM   20  H22 UNL     1      21.262   0.749  53.394  1.00  0.00     0.319 HD
ENDROOT
BRANCH   1  21
HETATM   21  O1  UNL     1      23.373   1.731  53.063  1.00  0.00    -0.355 OA
BRANCH  21  22
HETATM   22  C6  UNL     1      24.487   2.432  52.845  1.00  0.00     0.206 C 
BRANCH  22  23
HETATM   23  C5  UNL     1      25.742   2.192  53.601  1.00  0.00     0.247 C 
HETATM   24  C4  UNL     1      25.808   0.692  53.902  1.00  0.00     0.057 C 
HETATM   25  C3  UNL     1      26.891   0.022  53.105  1.00  0.00     0.126 C 
HETATM   26  N1  UNL     1      28.148   0.597  53.525  1.00  0.00    -0.369 N 
HETATM   27  C21 UNL     1      28.124   2.023  53.631  1.00  0.00     0.394 C 
HETATM   28  N5  UNL     1      26.953   2.628  52.989  1.00  0.00     0.107 N 
HETATM   29  H23 UNL     1      27.093   3.649  53.142  1.00  0.00     0.318 HD
BRANCH  26  30
HETATM   30  C2  UNL     1      29.289  -0.189  53.800  1.00  0.00     0.060 C 
HETATM   31  C1  UNL     1      29.476  -1.439  53.418  1.00  0.00     0.049 C 
ENDBRANCH  26  30
ENDBRANCH  22  23
ENDBRANCH  21  22
ENDBRANCH   1  21
TORSDOF 4
ENDMDL
MODEL 3
REMARK VINA RESULT:      -8.7      3.384      7.139
REMARK  4 active torsions:
REMARK  status: ('A' for Active; 'I' for Inactive)
REMARK    1  A    between atoms: C2_2  and  N1_3 
REMARK    2  A    between atoms: C5_6  and  C6_7 
REMARK    3  A    between atoms: C6_7  and  O1_8 
REMARK    4  A    between atoms: O1_8  and  C7_9 
ROOT
HETATM    1  C7  UNL     1      23.007   0.328  52.623  1.00  0.00     0.357 C 
HETATM    2  C8  UNL     1      24.074  -0.732  52.799  1.00  0.00     0.075 C 
HETATM    3  C9  UNL     1      25.177  -0.360  53.614  1.00  0.00    -0.007 A 
HETATM    4  C10 UNL     1      25.765  -0.343  54.887  1.00  0.00     0.044 A 
HETATM    5  C11 UNL     1      27.127   0.374  54.642  1.00  0.00     0.102 A 
HETATM    6  N2  UNL     1      28.259   0.821  55.128  1.00  0.00    -0.268 NA
HETATM    7  C12 UNL     1      29.129   1.403  54.224  1.00  0.00     0.222 A 
HETATM    8  N3  UNL     1      28.286   1.191  53.228  1.00  0.00    -0.266 NA
HETATM    9  C13 UNL     1      27.084   0.630  53.185  1.00  0.00     0.118 A 
HETATM   10  C14 UNL     1      26.189   0.019  54.155  1.00  0.00     0.038 A 
HETATM   11  C15 UNL     1      26.822   0.791  51.692  1.00  0.00     0.214 A 
HETATM   12  C16 UNL     1      26.866   2.210  51.259  1.00  0.00     0.036 A 
HETATM   13  C17 UNL     1      25.875   3.052  50.865  1.00  0.00     0.187 A 
HETATM   14  F1  UNL     1      25.975   1.789  51.273  1.00  0.00    -0.374 F 
HETATM   15  C18 UNL     1      24.563   3.680  50.607  1.00  0.00     0.052 A 
HETATM   16 CL1  UNL     1      25.821   4.668  49.957  1.00  0.00    -0.134 Cl
HETATM   17  C19 UNL     1      23.276   3.541  50.778  1.00  0.00     0.026 C 
HETATM   18  C20 UNL     1      22.565   2.427  51.466  1.00  0.00     0.302 C 
HETATM   19  N4  UNL     1      23.595   1.520  51.991  1.00  0.00     0.115 N 
HETATM   20  H22 UNL     1      24.039   2.057  52.837  1.00  0.00     0.319 HD
ENDROOT
BRANCH   1  21
HETATM   21  O1  UNL     1      22.424   0.654  53.812  1.00  0.00    -0.355 OA
BRANCH  21  22
HETATM   22  C6  UNL     1      21.590  -0.161  54.459  1.00  0.00     0.206 C 
BRANCH  22  23
HETATM   23  C5  UNL     1      20.128  -0.174  54.204  1.00  0.00     0.247 C 
HETATM   24  C4  UNL     1      19.857   0.830  53.078  1.00  0.00     0.057 C 
HETATM   25  C3  UNL     1      19.458   0.133  51.809  1.00  0.00     0.126 C 
HETATM   26  N1  UNL     1      18.216  -0.557  52.072  1.00  0.00    -0.369 N 
HETATM   27  C21 UNL     1      18.206  -1.276  53.309  1.00  0.00     0.394 C 
HETATM   28  N5  UNL     1      19.542  -1.436  53.893  1.00  0.00     0.107 N 
HETATM   29  H23 UNL     1      19.362  -1.980  54.763  1.00  0.00     0.318 HD
BRANCH  26  30
HETATM   30  C2  UNL     1      17.122  -0.519  51.179  1.00  0.00     0.060 C 
HETATM   31  C1  UNL     1      17.132   0.003  49.968  1.00  0.00     0.049 C 
ENDBRANCH  26  30
ENDBRANCH  22  23
ENDBRANCH  21  22
ENDBRANCH   1  21
TORSDOF 4
ENDMDL
MODEL 4
REMARK VINA RESULT:      -8.7      3.535      7.507
REMARK  4 active torsions:
REMARK  status: ('A' for Active; 'I' for Inactive)
REMARK    1  A    between atoms: C2_2  and  N1_3 
REMARK    2  A    between atoms: C5_6  and  C6_7 
REMARK    3  A    between atoms: C6_7  and  O1_8 
REMARK    4  A    between atoms: O1_8  and  C7_9 
ROOT
HETATM    1  C7  UNL     1      23.503   3.192  52.423  1.00  0.00     0.357 C 
HETATM    2  C8  UNL     1      24.885   3.037  53.021  1.00  0.00     0.075 C 
HETATM    3  C9  UNL     1      25.632   1.924  52.553  1.00  0.00    -0.007 A 
HETATM    4  C10 UNL     1      26.573   1.416  51.644  1.00  0.00     0.044 A 
HETATM    5  C11 UNL     1      26.697  -0.082  52.056  1.00  0.00     0.102 A 
HETATM    6  N2  UNL     1      27.245  -1.255  51.856  1.00  0.00    -0.268 NA
HETATM    7  C12 UNL     1      26.867  -2.266  52.721  1.00  0.00     0.222 A 
HETATM    8  N3  UNL     1      26.060  -1.448  53.374  1.00  0.00    -0.266 NA
HETATM    9  C13 UNL     1      25.773  -0.163  53.210  1.00  0.00     0.118 A 
HETATM   10  C14 UNL     1      26.190   0.883  52.290  1.00  0.00     0.038 A 
HETATM   11  C15 UNL     1      24.777  -0.013  54.355  1.00  0.00     0.214 A 
HETATM   12  C16 UNL     1      23.621  -0.935  54.224  1.00  0.00     0.036 A 
HETATM   13  C17 UNL     1      22.320  -0.693  53.920  1.00  0.00     0.187 A 
HETATM   14  F1  UNL     1      23.434   0.019  54.064  1.00  0.00    -0.374 F 
HETATM   15  C18 UNL     1      21.058  -0.072  53.467  1.00  0.00     0.052 A 
HETATM   16 CL1  UNL     1      20.740  -1.648  54.095  1.00  0.00    -0.134 Cl
HETATM   17  C19 UNL     1      20.545   1.003  52.933  1.00  0.00     0.026 C 
HETATM   18  C20 UNL     1      21.262   2.237  52.504  1.00  0.00     0.302 C 
HETATM   19  N4  UNL     1      22.694   2.002  52.732  1.00  0.00     0.115 N 
HETATM   20  H22 UNL     1      22.990   1.290  51.953  1.00  0.00     0.319 HD
ENDROOT
BRANCH   1  21
HETATM   21  O1  UNL     1      23.560   3.395  51.075  1.00  0.00    -0.355 OA
BRANCH  21  22
HETATM   22  C6  UNL     1      24.009   4.527  50.530  1.00  0.00     0.206 C 
BRANCH  22  23
HETATM   23  C5  UNL     1      25.053   4.545  49.475  1.00  0.00     0.247 C 
HETATM   24  C4  UNL     1      24.952   5.899  48.764  1.00  0.00     0.057 C 
HETATM   25  C3  UNL     1      26.133   6.771  49.078  1.00  0.00     0.126 C 
HETATM   26  N1  UNL     1      27.307   6.104  48.562  1.00  0.00    -0.369 N 
HETATM   27  C21 UNL     1      27.357   4.707  48.863  1.00  0.00     0.394 C 
HETATM   28  N5  UNL     1      26.394   4.305  49.894  1.00  0.00     0.107 N 
HETATM   29  H23 UNL     1      26.567   3.284  50.001  1.00  0.00     0.318 HD
BRANCH  26  30
HETATM   30  C2  UNL     1      28.307   6.783  47.831  1.00  0.00     0.060 C 
HETATM   31  C1  UNL     1      29.584   6.457  47.783  1.00  0.00     0.049 C 
ENDBRANCH  26  30
ENDBRANCH  22  23
ENDBRANCH  21  22
ENDBRANCH   1  21
TORSDOF 4
ENDMDL
MODEL 5
REMARK VINA RESULT:      -8.4      2.478      4.062
REMARK  4 active torsions:
REMARK  status: ('A' for Active; 'I' for Inactive)
REMARK    1  A    between atoms: C2_2  and  N1_3 
REMARK    2  A    between atoms: C5_6  and  C6_7 
REMARK    3  A    between atoms: C6_7  and  O1_8 
REMARK    4  A    between atoms: O1_8  and  C7_9 
ROOT
HETATM    1  C7  UNL     1      24.587   3.238  51.916  1.00  0.00     0.357 C 
HETATM    2  C8  UNL     1      23.777   4.221  52.734  1.00  0.00     0.075 C 
HETATM    3  C9  UNL     1      22.780   4.937  52.020  1.00  0.00    -0.007 A 
HETATM    4  C10 UNL     1      21.442   5.027  51.608  1.00  0.00     0.044 A 
HETATM    5  C11 UNL     1      21.410   6.349  50.783  1.00  0.00     0.102 A 
HETATM    6  N2  UNL     1      20.721   7.207  50.071  1.00  0.00    -0.268 NA
HETATM    7  C12 UNL     1      21.408   8.314  49.608  1.00  0.00     0.222 A 
HETATM    8  N3  UNL     1      22.526   7.896  50.175  1.00  0.00    -0.266 NA
HETATM    9  C13 UNL     1      22.809   6.820  50.899  1.00  0.00     0.118 A 
HETATM   10  C14 UNL     1      22.062   5.668  51.377  1.00  0.00     0.038 A 
HETATM   11  C15 UNL     1      24.286   7.104  51.146  1.00  0.00     0.214 A 
HETATM   12  C16 UNL     1      25.057   7.230  49.884  1.00  0.00     0.036 A 
HETATM   13  C17 UNL     1      25.976   6.407  49.316  1.00  0.00     0.187 A 
HETATM   14  F1  UNL     1      25.224   6.416  50.413  1.00  0.00    -0.374 F 
HETATM   15  C18 UNL     1      26.820   5.246  48.967  1.00  0.00     0.052 A 
HETATM   16 CL1  UNL     1      27.263   6.603  47.995  1.00  0.00    -0.134 Cl
HETATM   17  C19 UNL     1      27.056   3.992  49.245  1.00  0.00     0.026 C 
HETATM   18  C20 UNL     1      26.361   3.138  50.248  1.00  0.00     0.302 C 
HETATM   19  N4  UNL     1      25.293   3.953  50.841  1.00  0.00     0.115 N 
HETATM   20  H22 UNL     1      24.533   4.037  50.056  1.00  0.00     0.319 HD
ENDROOT
BRANCH   1  21
HETATM   21  O1  UNL     1      23.800   2.250  51.398  1.00  0.00    -0.355 OA
BRANCH  21  22
HETATM   22  C6  UNL     1      23.649   1.061  51.982  1.00  0.00     0.206 C 
BRANCH  22  23
HETATM   23  C5  UNL     1      22.531   0.765  52.913  1.00  0.00     0.247 C 
HETATM   24  C4  UNL     1      21.257   1.339  52.284  1.00  0.00     0.057 C 
HETATM   25  C3  UNL     1      20.338   0.247  51.818  1.00  0.00     0.126 C 
HETATM   26  N1  UNL     1      19.937  -0.503  52.986  1.00  0.00    -0.369 N 
HETATM   27  C21 UNL     1      21.016  -0.815  53.871  1.00  0.00     0.394 C 
HETATM   28  N5  UNL     1      22.336  -0.602  53.267  1.00  0.00     0.107 N 
HETATM   29  H23 UNL     1      22.996  -0.882  54.022  1.00  0.00     0.318 HD
BRANCH  26  30
HETATM   30  C2  UNL     1      18.598  -0.889  53.219  1.00  0.00     0.060 C 
HETATM   31  C1  UNL     1      17.607  -0.800  52.351  1.00  0.00     0.049 C 
ENDBRANCH  26  30
ENDBRANCH  22  23
ENDBRANCH  21  22
ENDBRANCH   1  21
TORSDOF 4
ENDMDL
MODEL 6
REMARK VINA RESULT:      -8.0      4.801      8.050
REMARK  4 active torsions:
REMARK  status: ('A' for Active; 'I' for Inactive)
REMARK    1  A    between atoms: C2_2  and  N1_3 
REMARK    2  A    between atoms: C5_6  and  C6_7 
REMARK    3  A    between atoms: C6_7  and  O1_8 
REMARK    4  A    between atoms: O1_8  and  C7_9 
ROOT
HETATM    1  C7  UNL     1      26.775   8.761  48.274  1.00  0.00     0.357 C 
HETATM    2  C8  UNL     1      27.035   7.596  47.344  1.00  0.00     0.075 C 
HETATM    3  C9  UNL     1      28.098   6.734  47.725  1.00  0.00    -0.007 A 
HETATM    4  C10 UNL     1      28.508   5.573  48.396  1.00  0.00     0.044 A 
HETATM    5  C11 UNL     1      30.048   5.548  48.159  1.00  0.00     0.102 A 
HETATM    6  N2  UNL     1      31.200   4.950  48.348  1.00  0.00    -0.268 NA
HETATM    7  C12 UNL     1      32.302   5.539  47.754  1.00  0.00     0.222 A 
HETATM    8  N3  UNL     1      31.554   6.505  47.251  1.00  0.00    -0.266 NA
HETATM    9  C13 UNL     1      30.252   6.753  47.324  1.00  0.00     0.118 A 
HETATM   10  C14 UNL     1      29.109   6.112  47.954  1.00  0.00     0.038 A 
HETATM   11  C15 UNL     1      30.225   8.027  46.488  1.00  0.00     0.214 A 
HETATM   12  C16 UNL     1      31.097   9.090  47.047  1.00  0.00     0.036 A 
HETATM   13  C17 UNL     1      30.790  10.261  47.665  1.00  0.00     0.187 A 
HETATM   14  F1  UNL     1      30.127   9.238  47.130  1.00  0.00    -0.374 F 
HETATM   15  C18 UNL     1      30.088  11.356  48.364  1.00  0.00     0.052 A 
HETATM   16 CL1  UNL     1      31.724  11.815  48.053  1.00  0.00    -0.134 Cl
HETATM   17  C19 UNL     1      28.944  11.717  48.879  1.00  0.00     0.026 C 
HETATM   18  C20 UNL     1      27.683  10.925  48.934  1.00  0.00     0.302 C 
HETATM   19  N4  UNL     1      27.976   9.609  48.353  1.00  0.00     0.115 N 
HETATM   20  H22 UNL     1      28.592   9.099  49.103  1.00  0.00     0.319 HD
ENDROOT
BRANCH   1  21
HETATM   21  O1  UNL     1      26.406   8.337  49.518  1.00  0.00    -0.355 OA
BRANCH  21  22
HETATM   22  C6  UNL     1      25.198   8.567  50.034  1.00  0.00     0.206 C 
BRANCH  22  23
HETATM   23  C5  UNL     1      24.281   7.472  50.437  1.00  0.00     0.247 C 
HETATM   24  C4  UNL     1      24.461   6.337  49.424  1.00  0.00     0.057 C 
HETATM   25  C3  UNL     1      25.146   5.154  50.046  1.00  0.00     0.126 C 
HETATM   26  N1  UNL     1      24.280   4.659  51.092  1.00  0.00    -0.369 N 
HETATM   27  C21 UNL     1      23.740   5.686  51.928  1.00  0.00     0.394 C 
HETATM   28  N5  UNL     1      24.418   6.976  51.766  1.00  0.00     0.107 N 
HETATM   29  H23 UNL     1      23.922   7.596  52.441  1.00  0.00     0.318 HD
BRANCH  26  30
HETATM   30  C2  UNL     1      24.004   3.284  51.263  1.00  0.00     0.060 C 
HETATM   31  C1  UNL     1      23.498   2.479  50.348  1.00  0.00     0.049 C 
ENDBRANCH  26  30
ENDBRANCH  22  23
ENDBRANCH  21  22
ENDBRANCH   1  21
TORSDOF 4
ENDMDL
MODEL 7
REMARK VINA RESULT:      -7.7      3.431      6.301
REMARK  4 active torsions:
REMARK  status: ('A' for Active; 'I' for Inactive)
REMARK    1  A    between atoms: C2_2  and  N1_3 
REMARK    2  A    between atoms: C5_6  and  C6_7 
REMARK    3  A    between atoms: C6_7  and  O1_8 
REMARK    4  A    between atoms: O1_8  and  C7_9 
ROOT
HETATM    1  C7  UNL     1      25.509   3.526  49.760  1.00  0.00     0.357 C 
HETATM    2  C8  UNL     1      24.239   3.446  48.941  1.00  0.00     0.075 C 
HETATM    3  C9  UNL     1      23.046   3.804  49.625  1.00  0.00    -0.007 A 
HETATM    4  C10 UNL     1      22.115   4.800  49.954  1.00  0.00     0.044 A 
HETATM    5  C11 UNL     1      21.080   4.042  50.840  1.00  0.00     0.102 A 
HETATM    6  N2  UNL     1      19.977   4.075  51.548  1.00  0.00    -0.268 NA
HETATM    7  C12 UNL     1      19.571   2.878  52.108  1.00  0.00     0.222 A 
HETATM    8  N3  UNL     1      20.613   2.248  51.594  1.00  0.00    -0.266 NA
HETATM    9  C13 UNL     1      21.620   2.664  50.838  1.00  0.00     0.118 A 
HETATM   10  C14 UNL     1      22.023   3.934  50.255  1.00  0.00     0.038 A 
HETATM   11  C15 UNL     1      22.355   1.336  50.700  1.00  0.00     0.214 A 
HETATM   12  C16 UNL     1      22.751   0.769  52.014  1.00  0.00     0.036 A 
HETATM   13  C17 UNL     1      23.971   0.643  52.598  1.00  0.00     0.187 A 
HETATM   14  F1  UNL     1      23.483   1.122  51.457  1.00  0.00    -0.374 F 
HETATM   15  C18 UNL     1      25.401   0.773  52.942  1.00  0.00     0.052 A 
HETATM   16 CL1  UNL     1      24.645  -0.357  54.007  1.00  0.00    -0.134 Cl
HETATM   17  C19 UNL     1      26.513   1.376  52.618  1.00  0.00     0.026 C 
HETATM   18  C20 UNL     1      26.723   2.372  51.531  1.00  0.00     0.302 C 
HETATM   19  N4  UNL     1      25.414   2.615  50.912  1.00  0.00     0.115 N 
HETATM   20  H22 UNL     1      24.857   3.205  51.650  1.00  0.00     0.319 HD
ENDROOT
BRANCH   1  21
HETATM   21  O1  UNL     1      25.757   4.801  50.177  1.00  0.00    -0.355 OA
BRANCH  21  22
HETATM   22  C6  UNL     1      26.002   5.806  49.334  1.00  0.00     0.206 C 
BRANCH  22  23
HETATM   23  C5  UNL     1      27.211   5.849  48.473  1.00  0.00     0.247 C 
HETATM   24  C4  UNL     1      27.334   7.280  47.940  1.00  0.00     0.057 C 
HETATM   25  C3  UNL     1      28.504   7.993  48.555  1.00  0.00     0.126 C 
HETATM   26  N1  UNL     1      29.697   7.284  48.152  1.00  0.00    -0.369 N 
HETATM   27  C21 UNL     1      29.591   5.862  48.270  1.00  0.00     0.394 C 
HETATM   28  N5  UNL     1      28.437   5.436  49.069  1.00  0.00     0.107 N 
HETATM   29  H23 UNL     1      28.513   4.397  49.067  1.00  0.00     0.318 HD
BRANCH  26  30
HETATM   30  C2  UNL     1      30.855   7.947  47.689  1.00  0.00     0.060 C 
HETATM   31  C1  UNL     1      30.928   9.214  47.330  1.00  0.00     0.049 C 
ENDBRANCH  26  30
ENDBRANCH  22  23
ENDBRANCH  21  22
ENDBRANCH   1  21
TORSDOF 4
ENDMDL
MODEL 8
REMARK VINA RESULT:      -7.5      3.165      4.574
REMARK  4 active torsions:
REMARK  status: ('A' for Active; 'I' for Inactive)
REMARK    1  A    between atoms: C2_2  and  N1_3 
REMARK    2  A    between atoms: C5_6  and  C6_7 
REMARK    3  A    between atoms: C6_7  and  O1_8 
REMARK    4  A    between atoms: O1_8  and  C7_9 
ROOT
HETATM    1  C7  UNL     1      24.219   5.255  50.739  1.00  0.00     0.357 C 
HETATM    2  C8  UNL     1      23.842   6.624  51.265  1.00  0.00     0.075 C 
HETATM    3  C9  UNL     1      23.555   7.602  50.276  1.00  0.00    -0.007 A 
HETATM    4  C10 UNL     1      22.595   8.251  49.485  1.00  0.00     0.044 A 
HETATM    5  C11 UNL     1      23.439   9.274  48.666  1.00  0.00     0.102 A 
HETATM    6  N2  UNL     1      23.477  10.228  47.768  1.00  0.00    -0.268 NA
HETATM    7  C12 UNL     1      24.718  10.780  47.510  1.00  0.00     0.222 A 
HETATM    8  N3  UNL     1      25.293   9.978  48.389  1.00  0.00    -0.266 NA
HETATM    9  C13 UNL     1      24.805   9.032  49.182  1.00  0.00     0.118 A 
HETATM   10  C14 UNL     1      23.488   8.471  49.438  1.00  0.00     0.038 A 
HETATM   11  C15 UNL     1      26.109   8.612  49.850  1.00  0.00     0.214 A 
HETATM   12  C16 UNL     1      27.123   8.147  48.870  1.00  0.00     0.036 A 
HETATM   13  C17 UNL     1      27.610   6.905  48.613  1.00  0.00     0.187 A 
HETATM   14  F1  UNL     1      26.720   7.451  49.438  1.00  0.00    -0.374 F 
HETATM   15  C18 UNL     1      27.809   5.443  48.549  1.00  0.00     0.052 A 
HETATM   16 CL1  UNL     1      29.100   6.245  47.728  1.00  0.00    -0.134 Cl
HETATM   17  C19 UNL     1      27.303   4.293  48.904  1.00  0.00     0.026 C 
HETATM   18  C20 UNL     1      26.050   4.050  49.672  1.00  0.00     0.302 C 
HETATM   19  N4  UNL     1      25.430   5.361  49.909  1.00  0.00     0.115 N 
HETATM   20  H22 UNL     1      25.038   5.668  48.933  1.00  0.00     0.319 HD
ENDROOT
BRANCH   1  21
HETATM   21  O1  UNL     1      23.199   4.694  50.028  1.00  0.00    -0.355 OA
BRANCH  21  22
HETATM   22  C6  UNL     1      22.591   3.566  50.399  1.00  0.00     0.206 C 
BRANCH  22  23
HETATM   23  C5  UNL     1      22.767   2.970  51.747  1.00  0.00     0.247 C 
HETATM   24  C4  UNL     1      21.375   2.869  52.380  1.00  0.00     0.057 C 
HETATM   25  C3  UNL     1      20.927   1.439  52.487  1.00  0.00     0.126 C 
HETATM   26  N1  UNL     1      21.849   0.767  53.374  1.00  0.00    -0.369 N 
HETATM   27  C21 UNL     1      23.223   1.061  53.109  1.00  0.00     0.394 C 
HETATM   28  N5  UNL     1      23.433   1.712  51.811  1.00  0.00     0.107 N 
HETATM   29  H23 UNL     1      24.465   1.842  51.770  1.00  0.00     0.318 HD
BRANCH  26  30
HETATM   30  C2  UNL     1      21.418  -0.100  54.402  1.00  0.00     0.060 C 
HETATM   31  C1  UNL     1      21.128  -1.380  54.261  1.00  0.00     0.049 C 
ENDBRANCH  26  30
ENDBRANCH  22  23
ENDBRANCH  21  22
ENDBRANCH   1  21
TORSDOF 4
ENDMDL
MODEL 9
REMARK VINA RESULT:      -7.5      3.574      5.510
REMARK  4 active torsions:
REMARK  status: ('A' for Active; 'I' for Inactive)
REMARK    1  A    between atoms: C2_2  and  N1_3 
REMARK    2  A    between atoms: C5_6  and  C6_7 
REMARK    3  A    between atoms: C6_7  and  O1_8 
REMARK    4  A    between atoms: O1_8  and  C7_9 
ROOT
HETATM    1  C7  UNL     1      25.894   5.857  49.640  1.00  0.00     0.357 C 
HETATM    2  C8  UNL     1      25.343   7.029  50.423  1.00  0.00     0.075 C 
HETATM    3  C9  UNL     1      25.145   8.223  49.680  1.00  0.00    -0.007 A 
HETATM    4  C10 UNL     1      24.276   9.029  48.928  1.00  0.00     0.044 A 
HETATM    5  C11 UNL     1      25.163  10.254  48.550  1.00  0.00     0.102 A 
HETATM    6  N2  UNL     1      25.273  11.410  47.942  1.00  0.00    -0.268 NA
HETATM    7  C12 UNL     1      26.497  12.046  48.047  1.00  0.00     0.222 A 
HETATM    8  N3  UNL     1      26.982  11.058  48.779  1.00  0.00    -0.266 NA
HETATM    9  C13 UNL     1      26.445   9.924  49.212  1.00  0.00     0.118 A 
HETATM   10  C14 UNL     1      25.148   9.279  49.090  1.00  0.00     0.038 A 
HETATM   11  C15 UNL     1      27.655   9.382  49.963  1.00  0.00     0.214 A 
HETATM   12  C16 UNL     1      28.841   9.218  49.085  1.00  0.00     0.036 A 
HETATM   13  C17 UNL     1      29.449   8.101  48.608  1.00  0.00     0.187 A 
HETATM   14  F1  UNL     1      28.404   8.387  49.381  1.00  0.00    -0.374 F 
HETATM   15  C18 UNL     1      29.760   6.713  48.211  1.00  0.00     0.052 A 
HETATM   16 CL1  UNL     1      31.102   7.737  47.852  1.00  0.00    -0.134 Cl
HETATM   17  C19 UNL     1      29.288   5.496  48.173  1.00  0.00     0.026 C 
HETATM   18  C20 UNL     1      27.950   5.025  48.630  1.00  0.00     0.302 C 
HETATM   19  N4  UNL     1      27.209   6.210  49.082  1.00  0.00     0.115 N 
HETATM   20  H22 UNL     1      26.953   6.750  48.163  1.00  0.00     0.319 HD
ENDROOT
BRANCH   1  21
HETATM   21  O1  UNL     1      25.040   5.472  48.648  1.00  0.00    -0.355 OA
BRANCH  21  22
HETATM   22  C6  UNL     1      23.868   4.883  48.887  1.00  0.00     0.206 C 
BRANCH  22  23
HETATM   23  C5  UNL     1      23.754   3.446  49.241  1.00  0.00     0.247 C 
HETATM   24  C4  UNL     1      24.900   3.126  50.206  1.00  0.00     0.057 C 
HETATM   25  C3  UNL     1      24.389   2.870  51.595  1.00  0.00     0.126 C 
HETATM   26  N1  UNL     1      23.546   1.698  51.531  1.00  0.00    -0.369 N 
HETATM   27  C21 UNL     1      22.634   1.702  50.430  1.00  0.00     0.394 C 
HETATM   28  N5  UNL     1      22.511   3.016  49.789  1.00  0.00     0.107 N 
HETATM   29  H23 UNL     1      21.814   2.852  49.032  1.00  0.00     0.318 HD
BRANCH  26  30
HETATM   30  C2  UNL     1      23.624   0.654  52.479  1.00  0.00     0.060 C 
HETATM   31  C1  UNL     1      22.604   0.109  53.114  1.00  0.00     0.049 C 
ENDBRANCH  26  30
ENDBRANCH  22  23
ENDBRANCH  21  22
ENDBRANCH   1  21
TORSDOF 4
ENDMDL
