MODEL 1
REMARK VINA RESULT:      -8.9      0.000      0.000
REMARK  2 active torsions:
REMARK  status: ('A' for Active; 'I' for Inactive)
REMARK    1  A    between atoms: O1_2  and  C2_3 
REMARK    2  A    between atoms: C5_6  and  C6_7 
ROOT
HETATM    1  C6  UNL     1      24.135   1.148  53.031  1.00  0.00     0.147 C 
HETATM    2  N1  UNL     1      23.896   1.677  51.696  1.00  0.00    -0.379 N 
HETATM    3  C7  UNL     1      22.585   2.081  51.347  1.00  0.00     0.025 C 
HETATM    4  C8  UNL     1      22.529   1.892  50.007  1.00  0.00     0.026 C 
HETATM    5  C9  UNL     1      21.353   1.505  49.175  1.00  0.00    -0.001 C 
HETATM    6  C10 UNL     1      20.112   1.115  49.551  1.00  0.00    -0.011 C 
HETATM    7  C11 UNL     1      19.198   1.190  50.718  1.00  0.00     0.137 C 
HETATM    8  N2  UNL     1      19.687   0.427  51.894  1.00  0.00    -0.234 NA
HETATM    9  N3  UNL     1      20.813   1.174  52.369  1.00  0.00    -0.303 N 
HETATM   10  C12 UNL     1      21.452   2.534  52.299  1.00  0.00     0.200 C 
HETATM   11  C13 UNL     1      21.497   0.121  53.082  1.00  0.00     0.097 C 
HETATM   12  P1  UNL     1      23.051  -0.194  53.404  1.00  0.00    -0.032 P 
HETATM   13  C14 UNL     1      23.027  -0.775  55.059  1.00  0.00     0.117 C 
HETATM   14  N4  UNL     1      22.042  -1.577  55.228  1.00  0.00    -0.293 NA
HETATM   15  C15 UNL     1      21.078  -1.985  54.279  1.00  0.00     0.233 C 
HETATM   16  C16 UNL     1      20.440  -0.816  53.559  1.00  0.00     0.197 C 
HETATM   17  O2  UNL     1      19.214  -0.538  53.322  1.00  0.00    -0.289 OA
HETATM   18  H7  UNL     1      24.442   1.866  50.832  1.00  0.00     0.160 HD
HETATM   19  H13 UNL     1      20.209  -0.354  51.344  1.00  0.00     0.147 HD
HETATM   20  H16 UNL     1      23.457  -1.300  52.588  1.00  0.00     0.067 HD
ENDROOT
BRANCH   1  21
HETATM   21  C5  UNL     1      25.576   0.773  53.120  1.00  0.00    -0.031 A 
HETATM   22  C4  UNL     1      26.439   1.718  53.632  1.00  0.00     0.012 A 
HETATM   23  C3  UNL     1      27.778   1.517  53.772  1.00  0.00     0.037 A 
HETATM   24  C2  UNL     1      28.349   0.321  53.396  1.00  0.00     0.068 A 
HETATM   25  C18 UNL     1      27.489  -0.650  52.873  1.00  0.00     0.037 A 
HETATM   26  C17 UNL     1      26.134  -0.422  52.742  1.00  0.00     0.012 A 
BRANCH  24  27
HETATM   27  O1  UNL     1      29.665  -0.081  53.453  1.00  0.00    -0.356 OA
HETATM   28  C1  UNL     1      30.099  -1.393  53.756  1.00  0.00     0.210 C 
ENDBRANCH  24  27
ENDBRANCH   1  21
TORSDOF 2
ENDMDL
MODEL 2
REMARK VINA RESULT:      -8.4      2.228      2.915
REMARK  2 active torsions:
REMARK  status: ('A' for Active; 'I' for Inactive)
REMARK    1  A    between atoms: O1_2  and  C2_3 
REMARK    2  A    between atoms: C5_6  and  C6_7 
ROOT
HETATM    1  C6  UNL     1      24.502   2.303  52.857  1.00  0.00     0.147 C 
HETATM    2  N1  UNL     1      24.986   3.288  51.901  1.00  0.00    -0.379 N 
HETATM    3  C7  UNL     1      24.099   4.297  51.454  1.00  0.00     0.025 C 
HETATM    4  C8  UNL     1      24.546   4.601  50.213  1.00  0.00     0.026 C 
HETATM    5  C9  UNL     1      23.755   5.043  49.027  1.00  0.00    -0.001 C 
HETATM    6  C10 UNL     1      22.414   5.114  48.853  1.00  0.00    -0.011 C 
HETATM    7  C11 UNL     1      21.163   5.181  49.648  1.00  0.00     0.137 C 
HETATM    8  N2  UNL     1      20.898   3.944  50.426  1.00  0.00    -0.234 NA
HETATM    9  N3  UNL     1      21.890   3.945  51.459  1.00  0.00    -0.303 N 
HETATM   10  C12 UNL     1      22.850   4.847  52.184  1.00  0.00     0.200 C 
HETATM   11  C13 UNL     1      21.902   2.532  51.759  1.00  0.00     0.097 C 
HETATM   12  P1  UNL     1      23.036   1.504  52.284  1.00  0.00    -0.032 P 
HETATM   13  C14 UNL     1      22.178   0.481  53.423  1.00  0.00     0.117 C 
HETATM   14  N4  UNL     1      21.031   0.162  52.949  1.00  0.00    -0.293 NA
HETATM   15  C15 UNL     1      20.468   0.537  51.708  1.00  0.00     0.233 C 
HETATM   16  C16 UNL     1      20.529   2.030  51.468  1.00  0.00     0.197 C 
HETATM   17  O2  UNL     1      19.636   2.860  51.080  1.00  0.00    -0.289 OA
HETATM   18  H7  UNL     1      25.866   3.501  51.391  1.00  0.00     0.160 HD
HETATM   19  H13 UNL     1      21.361   3.243  49.733  1.00  0.00     0.147 HD
HETATM   20  H16 UNL     1      23.417   0.664  51.187  1.00  0.00     0.067 HD
ENDROOT
BRANCH   1  21
HETATM   21  C5  UNL     1      25.616   1.348  53.128  1.00  0.00    -0.031 A 
HETATM   22  C4  UNL     1      25.748   0.279  52.267  1.00  0.00     0.012 A 
HETATM   23  C3  UNL     1      26.715  -0.671  52.390  1.00  0.00     0.037 A 
HETATM   24  C2  UNL     1      27.635  -0.604  53.413  1.00  0.00     0.068 A 
HETATM   25  C18 UNL     1      27.517   0.474  54.297  1.00  0.00     0.037 A 
HETATM   26  C17 UNL     1      26.528   1.424  54.150  1.00  0.00     0.012 A 
BRANCH  24  27
HETATM   27  O1  UNL     1      28.680  -1.451  53.713  1.00  0.00    -0.356 OA
HETATM   28  C1  UNL     1      30.043  -1.076  53.745  1.00  0.00     0.210 C 
ENDBRANCH  24  27
ENDBRANCH   1  21
TORSDOF 2
ENDMDL
MODEL 3
REMARK VINA RESULT:      -8.0      3.310      5.010
REMARK  2 active torsions:
REMARK  status: ('A' for Active; 'I' for Inactive)
REMARK    1  A    between atoms: O1_2  and  C2_3 
REMARK    2  A    between atoms: C5_6  and  C6_7 
ROOT
HETATM    1  C6  UNL     1      25.160   1.805  50.938  1.00  0.00     0.147 C 
HETATM    2  N1  UNL     1      23.902   1.654  51.655  1.00  0.00    -0.379 N 
HETATM    3  C7  UNL     1      22.712   2.125  51.051  1.00  0.00     0.025 C 
HETATM    4  C8  UNL     1      21.917   2.447  52.099  1.00  0.00     0.026 C 
HETATM    5  C9  UNL     1      20.892   3.529  52.186  1.00  0.00    -0.001 C 
HETATM    6  C10 UNL     1      20.604   4.525  51.315  1.00  0.00    -0.011 C 
HETATM    7  C11 UNL     1      20.779   4.875  49.884  1.00  0.00     0.137 C 
HETATM    8  N2  UNL     1      22.198   5.086  49.503  1.00  0.00    -0.234 NA
HETATM    9  N3  UNL     1      22.784   3.780  49.548  1.00  0.00    -0.303 N 
HETATM   10  C12 UNL     1      22.432   2.318  49.541  1.00  0.00     0.200 C 
HETATM   11  C13 UNL     1      24.167   4.161  49.720  1.00  0.00     0.097 C 
HETATM   12  P1  UNL     1      25.438   3.480  50.456  1.00  0.00    -0.032 P 
HETATM   13  C14 UNL     1      26.772   3.793  49.361  1.00  0.00     0.117 C 
HETATM   14  N4  UNL     1      26.708   4.995  48.922  1.00  0.00    -0.293 NA
HETATM   15  C15 UNL     1      25.742   5.981  49.225  1.00  0.00     0.233 C 
HETATM   16  C16 UNL     1      24.324   5.482  49.047  1.00  0.00     0.197 C 
HETATM   17  O2  UNL     1      23.318   5.994  48.446  1.00  0.00    -0.289 OA
HETATM   18  H7  UNL     1      23.574   1.273  52.565  1.00  0.00     0.160 HD
HETATM   19  H13 UNL     1      22.543   5.471  50.461  1.00  0.00     0.147 HD
HETATM   20  H16 UNL     1      25.708   4.222  51.652  1.00  0.00     0.067 HD
ENDROOT
BRANCH   1  21
HETATM   21  C5  UNL     1      26.246   1.263  51.805  1.00  0.00    -0.031 A 
HETATM   22  C4  UNL     1      27.049   2.179  52.451  1.00  0.00     0.012 A 
HETATM   23  C3  UNL     1      28.077   1.832  53.272  1.00  0.00     0.037 A 
HETATM   24  C2  UNL     1      28.370   0.506  53.503  1.00  0.00     0.068 A 
HETATM   25  C18 UNL     1      27.566  -0.439  52.857  1.00  0.00     0.037 A 
HETATM   26  C17 UNL     1      26.529  -0.061  52.029  1.00  0.00     0.012 A 
BRANCH  24  27
HETATM   27  O1  UNL     1      29.354  -0.053  54.289  1.00  0.00    -0.356 OA
HETATM   28  C1  UNL     1      30.169  -1.146  53.911  1.00  0.00     0.210 C 
ENDBRANCH  24  27
ENDBRANCH   1  21
TORSDOF 2
ENDMDL
MODEL 4
REMARK VINA RESULT:      -8.0      2.515      4.121
REMARK  2 active torsions:
REMARK  status: ('A' for Active; 'I' for Inactive)
REMARK    1  A    between atoms: O1_2  and  C2_3 
REMARK    2  A    between atoms: C5_6  and  C6_7 
ROOT
HETATM    1  C6  UNL     1      23.211   1.381  51.297  1.00  0.00     0.147 C 
HETATM    2  N1  UNL     1      22.093   0.468  51.486  1.00  0.00    -0.379 N 
HETATM    3  C7  UNL     1      20.893   0.704  50.773  1.00  0.00     0.025 C 
HETATM    4  C8  UNL     1      19.930   0.183  51.570  1.00  0.00     0.026 C 
HETATM    5  C9  UNL     1      18.521   0.644  51.741  1.00  0.00    -0.001 C 
HETATM    6  C10 UNL     1      17.905   1.753  51.268  1.00  0.00    -0.011 C 
HETATM    7  C11 UNL     1      18.055   2.773  50.200  1.00  0.00     0.137 C 
HETATM    8  N2  UNL     1      19.252   3.633  50.377  1.00  0.00    -0.234 NA
HETATM    9  N3  UNL     1      20.362   2.772  50.103  1.00  0.00    -0.303 N 
HETATM   10  C12 UNL     1      20.722   1.471  49.439  1.00  0.00     0.200 C 
HETATM   11  C13 UNL     1      21.389   3.495  50.817  1.00  0.00     0.097 C 
HETATM   12  P1  UNL     1      22.741   3.057  51.591  1.00  0.00    -0.032 P 
HETATM   13  C14 UNL     1      23.895   4.306  51.156  1.00  0.00     0.117 C 
HETATM   14  N4  UNL     1      23.334   5.457  51.206  1.00  0.00    -0.293 NA
HETATM   15  C15 UNL     1      21.998   5.760  51.549  1.00  0.00     0.233 C 
HETATM   16  C16 UNL     1      20.996   4.932  50.774  1.00  0.00     0.197 C 
HETATM   17  O2  UNL     1      19.939   5.265  50.135  1.00  0.00    -0.289 OA
HETATM   18  H7  UNL     1      21.879  -0.385  52.039  1.00  0.00     0.160 HD
HETATM   19  H13 UNL     1      19.275   3.615  51.466  1.00  0.00     0.147 HD
HETATM   20  H16 UNL     1      22.509   3.187  52.999  1.00  0.00     0.067 HD
ENDROOT
BRANCH   1  21
HETATM   21  C5  UNL     1      24.323   0.926  52.182  1.00  0.00    -0.031 A 
HETATM   22  C4  UNL     1      23.982   0.140  53.263  1.00  0.00     0.012 A 
HETATM   23  C3  UNL     1      24.887  -0.347  54.154  1.00  0.00     0.037 A 
HETATM   24  C2  UNL     1      26.229  -0.068  54.012  1.00  0.00     0.068 A 
HETATM   25  C18 UNL     1      26.594   0.729  52.922  1.00  0.00     0.037 A 
HETATM   26  C17 UNL     1      25.656   1.211  52.032  1.00  0.00     0.012 A 
BRANCH  24  27
HETATM   27  O1  UNL     1      27.295  -0.457  54.793  1.00  0.00    -0.356 OA
HETATM   28  C1  UNL     1      28.600   0.084  54.710  1.00  0.00     0.210 C 
ENDBRANCH  24  27
ENDBRANCH   1  21
TORSDOF 2
ENDMDL
MODEL 5
REMARK VINA RESULT:      -8.0      2.633      6.629
REMARK  2 active torsions:
REMARK  status: ('A' for Active; 'I' for Inactive)
REMARK    1  A    between atoms: O1_2  and  C2_3 
REMARK    2  A    between atoms: C5_6  and  C6_7 
ROOT
HETATM    1  C6  UNL     1      24.089   1.632  51.390  1.00  0.00     0.147 C 
HETATM    2  N1  UNL     1      25.402   2.258  51.449  1.00  0.00    -0.379 N 
HETATM    3  C7  UNL     1      26.503   1.492  51.900  1.00  0.00     0.025 C 
HETATM    4  C8  UNL     1      27.338   2.407  52.447  1.00  0.00     0.026 C 
HETATM    5  C9  UNL     1      28.271   2.238  53.599  1.00  0.00    -0.001 C 
HETATM    6  C10 UNL     1      28.413   1.201  54.458  1.00  0.00    -0.011 C 
HETATM    7  C11 UNL     1      28.110  -0.249  54.555  1.00  0.00     0.137 C 
HETATM    8  N2  UNL     1      26.655  -0.541  54.598  1.00  0.00    -0.234 NA
HETATM    9  N3  UNL     1      26.186  -0.242  53.278  1.00  0.00    -0.303 N 
HETATM   10  C12 UNL     1      26.660  -0.047  51.864  1.00  0.00     0.200 C 
HETATM   11  C13 UNL     1      24.791  -0.019  53.580  1.00  0.00     0.097 C 
HETATM   12  P1  UNL     1      23.637   0.916  52.939  1.00  0.00    -0.032 P 
HETATM   13  C14 UNL     1      22.208  -0.101  52.971  1.00  0.00     0.117 C 
HETATM   14  N4  UNL     1      22.140  -0.727  54.087  1.00  0.00    -0.293 NA
HETATM   15  C15 UNL     1      23.037  -0.664  55.176  1.00  0.00     0.233 C 
HETATM   16  C16 UNL     1      24.477  -0.876  54.758  1.00  0.00     0.197 C 
HETATM   17  O2  UNL     1      25.392  -1.632  55.237  1.00  0.00    -0.289 OA
HETATM   18  H7  UNL     1      25.823   3.187  51.248  1.00  0.00     0.160 HD
HETATM   19  H13 UNL     1      26.347   0.370  55.108  1.00  0.00     0.147 HD
HETATM   20  H16 UNL     1      23.389   1.999  53.845  1.00  0.00     0.067 HD
ENDROOT
BRANCH   1  21
HETATM   21  C5  UNL     1      23.116   2.661  50.920  1.00  0.00    -0.031 A 
HETATM   22  C4  UNL     1      22.716   3.610  51.836  1.00  0.00     0.012 A 
HETATM   23  C3  UNL     1      21.835   4.607  51.550  1.00  0.00     0.037 A 
HETATM   24  C2  UNL     1      21.286   4.716  50.292  1.00  0.00     0.068 A 
HETATM   25  C18 UNL     1      21.679   3.761  49.348  1.00  0.00     0.037 A 
HETATM   26  C17 UNL     1      22.575   2.760  49.663  1.00  0.00     0.012 A 
BRANCH  24  27
HETATM   27  O1  UNL     1      20.387   5.638  49.801  1.00  0.00    -0.356 OA
HETATM   28  C1  UNL     1      18.999   5.415  49.649  1.00  0.00     0.210 C 
ENDBRANCH  24  27
ENDBRANCH   1  21
TORSDOF 2
ENDMDL
MODEL 6
REMARK VINA RESULT:      -7.7      3.641      8.281
REMARK  2 active torsions:
REMARK  status: ('A' for Active; 'I' for Inactive)
REMARK    1  A    between atoms: O1_2  and  C2_3 
REMARK    2  A    between atoms: C5_6  and  C6_7 
ROOT
HETATM    1  C6  UNL     1      18.299  -0.927  53.304  1.00  0.00     0.147 C 
HETATM    2  N1  UNL     1      19.507  -1.494  53.885  1.00  0.00    -0.379 N 
HETATM    3  C7  UNL     1      20.608  -0.641  54.136  1.00  0.00     0.025 C 
HETATM    4  C8  UNL     1      21.685  -1.454  54.032  1.00  0.00     0.026 C 
HETATM    5  C9  UNL     1      23.057  -1.117  53.550  1.00  0.00    -0.001 C 
HETATM    6  C10 UNL     1      23.523   0.018  52.979  1.00  0.00    -0.011 C 
HETATM    7  C11 UNL     1      23.181   1.457  52.857  1.00  0.00     0.137 C 
HETATM    8  N2  UNL     1      21.934   1.699  52.088  1.00  0.00    -0.234 NA
HETATM    9  N3  UNL     1      20.885   1.231  52.942  1.00  0.00    -0.303 N 
HETATM   10  C12 UNL     1      20.582   0.888  54.375  1.00  0.00     0.200 C 
HETATM   11  C13 UNL     1      19.870   0.995  51.942  1.00  0.00     0.097 C 
HETATM   12  P1  UNL     1      18.642  -0.051  51.810  1.00  0.00    -0.032 P 
HETATM   13  C14 UNL     1      17.345   0.910  51.124  1.00  0.00     0.117 C 
HETATM   14  N4  UNL     1      17.802   1.661  50.190  1.00  0.00    -0.293 NA
HETATM   15  C15 UNL     1      19.133   1.758  49.725  1.00  0.00     0.233 C 
HETATM   16  C16 UNL     1      20.127   1.972  50.846  1.00  0.00     0.197 C 
HETATM   17  O2  UNL     1      21.084   2.811  50.977  1.00  0.00    -0.289 OA
HETATM   18  H7  UNL     1      19.849  -2.424  54.200  1.00  0.00     0.160 HD
HETATM   19  H13 UNL     1      22.017   0.844  51.419  1.00  0.00     0.147 HD
HETATM   20  H16 UNL     1      18.994  -1.028  50.823  1.00  0.00     0.067 HD
ENDROOT
BRANCH   1  21
HETATM   21  C5  UNL     1      17.321  -2.038  53.114  1.00  0.00    -0.031 A 
HETATM   22  C4  UNL     1      17.657  -3.265  53.646  1.00  0.00     0.012 A 
HETATM   23  C3  UNL     1      16.865  -4.368  53.551  1.00  0.00     0.037 A 
HETATM   24  C2  UNL     1      15.654  -4.306  52.897  1.00  0.00     0.068 A 
HETATM   25  C18 UNL     1      15.297  -3.069  52.350  1.00  0.00     0.037 A 
HETATM   26  C17 UNL     1      16.117  -1.965  52.461  1.00  0.00     0.012 A 
BRANCH  24  27
HETATM   27  O1  UNL     1      14.715  -5.292  52.690  1.00  0.00    -0.356 OA
HETATM   28  C1  UNL     1      14.174  -5.644  51.432  1.00  0.00     0.210 C 
ENDBRANCH  24  27
ENDBRANCH   1  21
TORSDOF 2
ENDMDL
MODEL 7
REMARK VINA RESULT:      -7.6      4.261      6.564
REMARK  2 active torsions:
REMARK  status: ('A' for Active; 'I' for Inactive)
REMARK    1  A    between atoms: O1_2  and  C2_3 
REMARK    2  A    between atoms: C5_6  and  C6_7 
ROOT
HETATM    1  C6  UNL     1      25.491   3.473  50.457  1.00  0.00     0.147 C 
HETATM    2  N1  UNL     1      26.693   3.251  51.247  1.00  0.00    -0.379 N 
HETATM    3  C7  UNL     1      26.919   1.966  51.797  1.00  0.00     0.025 C 
HETATM    4  C8  UNL     1      27.647   2.209  52.912  1.00  0.00     0.026 C 
HETATM    5  C9  UNL     1      27.648   1.456  54.200  1.00  0.00    -0.001 C 
HETATM    6  C10 UNL     1      26.842   0.452  54.621  1.00  0.00    -0.011 C 
HETATM    7  C11 UNL     1      25.928  -0.582  54.075  1.00  0.00     0.137 C 
HETATM    8  N2  UNL     1      24.718  -0.011  53.432  1.00  0.00    -0.234 NA
HETATM    9  N3  UNL     1      25.199   0.602  52.231  1.00  0.00    -0.303 N 
HETATM   10  C12 UNL     1      26.370   0.611  51.288  1.00  0.00     0.200 C 
HETATM   11  C13 UNL     1      24.124   1.543  52.014  1.00  0.00     0.097 C 
HETATM   12  P1  UNL     1      24.034   3.012  51.341  1.00  0.00    -0.032 P 
HETATM   13  C14 UNL     1      22.527   2.970  50.445  1.00  0.00     0.117 C 
HETATM   14  N4  UNL     1      21.616   2.403  51.145  1.00  0.00    -0.293 NA
HETATM   15  C15 UNL     1      21.727   1.866  52.447  1.00  0.00     0.233 C 
HETATM   16  C16 UNL     1      22.899   0.918  52.587  1.00  0.00     0.197 C 
HETATM   17  O2  UNL     1      22.980  -0.255  53.091  1.00  0.00    -0.289 OA
HETATM   18  H7  UNL     1      27.517   3.796  51.569  1.00  0.00     0.160 HD
HETATM   19  H13 UNL     1      24.629   0.871  54.063  1.00  0.00     0.147 HD
HETATM   20  H16 UNL     1      23.860   3.971  52.391  1.00  0.00     0.067 HD
ENDROOT
BRANCH   1  21
HETATM   21  C5  UNL     1      25.484   4.904  50.033  1.00  0.00    -0.031 A 
HETATM   22  C4  UNL     1      24.729   5.777  50.787  1.00  0.00     0.012 A 
HETATM   23  C3  UNL     1      24.628   7.108  50.520  1.00  0.00     0.037 A 
HETATM   24  C2  UNL     1      25.298   7.660  49.451  1.00  0.00     0.068 A 
HETATM   25  C18 UNL     1      26.070   6.789  48.674  1.00  0.00     0.037 A 
HETATM   26  C17 UNL     1      26.156   5.443  48.965  1.00  0.00     0.012 A 
BRANCH  24  27
HETATM   27  O1  UNL     1      25.331   8.965  49.012  1.00  0.00    -0.356 OA
HETATM   28  C1  UNL     1      26.503   9.670  48.650  1.00  0.00     0.210 C 
ENDBRANCH  24  27
ENDBRANCH   1  21
TORSDOF 2
ENDMDL
MODEL 8
REMARK VINA RESULT:      -7.6      3.451      4.766
REMARK  2 active torsions:
REMARK  status: ('A' for Active; 'I' for Inactive)
REMARK    1  A    between atoms: O1_2  and  C2_3 
REMARK    2  A    between atoms: C5_6  and  C6_7 
ROOT
HETATM    1  C6  UNL     1      23.463   2.708  51.912  1.00  0.00     0.147 C 
HETATM    2  N1  UNL     1      24.101   4.003  52.094  1.00  0.00    -0.379 N 
HETATM    3  C7  UNL     1      23.375   5.173  51.765  1.00  0.00     0.025 C 
HETATM    4  C8  UNL     1      24.332   6.066  51.414  1.00  0.00     0.026 C 
HETATM    5  C9  UNL     1      24.248   7.164  50.407  1.00  0.00    -0.001 C 
HETATM    6  C10 UNL     1      23.274   7.451  49.512  1.00  0.00    -0.011 C 
HETATM    7  C11 UNL     1      21.832   7.192  49.273  1.00  0.00     0.137 C 
HETATM    8  N2  UNL     1      21.534   5.765  48.991  1.00  0.00    -0.234 NA
HETATM    9  N3  UNL     1      21.738   5.097  50.242  1.00  0.00    -0.303 N 
HETATM   10  C12 UNL     1      21.838   5.350  51.722  1.00  0.00     0.200 C 
HETATM   11  C13 UNL     1      21.971   3.760  49.748  1.00  0.00     0.097 C 
HETATM   12  P1  UNL     1      22.853   2.507  50.268  1.00  0.00    -0.032 P 
HETATM   13  C14 UNL     1      21.830   1.117  49.952  1.00  0.00     0.117 C 
HETATM   14  N4  UNL     1      21.282   1.228  48.799  1.00  0.00    -0.293 NA
HETATM   15  C15 UNL     1      21.426   2.278  47.865  1.00  0.00     0.233 C 
HETATM   16  C16 UNL     1      21.195   3.641  48.481  1.00  0.00     0.197 C 
HETATM   17  O2  UNL     1      20.481   4.631  48.097  1.00  0.00    -0.289 OA
HETATM   18  H7  UNL     1      25.016   4.374  52.419  1.00  0.00     0.160 HD
HETATM   19  H13 UNL     1      22.476   5.521  48.502  1.00  0.00     0.147 HD
HETATM   20  H16 UNL     1      23.993   2.379  49.410  1.00  0.00     0.067 HD
ENDROOT
BRANCH   1  21
HETATM   21  C5  UNL     1      24.450   1.657  52.297  1.00  0.00    -0.031 A 
HETATM   22  C4  UNL     1      25.704   1.737  51.730  1.00  0.00     0.012 A 
HETATM   23  C3  UNL     1      26.704   0.851  51.987  1.00  0.00     0.037 A 
HETATM   24  C2  UNL     1      26.502  -0.200  52.854  1.00  0.00     0.068 A 
HETATM   25  C18 UNL     1      25.235  -0.298  53.440  1.00  0.00     0.037 A 
HETATM   26  C17 UNL     1      24.238   0.614  53.163  1.00  0.00     0.012 A 
BRANCH  24  27
HETATM   27  O1  UNL     1      27.369  -1.195  53.247  1.00  0.00    -0.356 OA
HETATM   28  C1  UNL     1      28.768  -1.041  53.392  1.00  0.00     0.210 C 
ENDBRANCH  24  27
ENDBRANCH   1  21
TORSDOF 2
ENDMDL
MODEL 9
REMARK VINA RESULT:      -7.3      9.452     12.228
REMARK  2 active torsions:
REMARK  status: ('A' for Active; 'I' for Inactive)
REMARK    1  A    between atoms: O1_2  and  C2_3 
REMARK    2  A    between atoms: C5_6  and  C6_7 
ROOT
HETATM    1  C6  UNL     1      29.059   7.007  47.532  1.00  0.00     0.147 C 
HETATM    2  N1  UNL     1      28.740   8.425  47.616  1.00  0.00    -0.379 N 
HETATM    3  C7  UNL     1      29.622   9.358  47.020  1.00  0.00     0.025 C 
HETATM    4  C8  UNL     1      29.465  10.480  47.763  1.00  0.00     0.026 C 
HETATM    5  C9  UNL     1      30.479  11.525  48.086  1.00  0.00    -0.001 C 
HETATM    6  C10 UNL     1      31.811  11.547  47.847  1.00  0.00    -0.011 C 
HETATM    7  C11 UNL     1      32.823  10.910  46.968  1.00  0.00     0.137 C 
HETATM    8  N2  UNL     1      32.994   9.459  47.231  1.00  0.00    -0.234 NA
HETATM    9  N3  UNL     1      31.786   8.858  46.752  1.00  0.00    -0.303 N 
HETATM   10  C12 UNL     1      30.608   9.113  45.852  1.00  0.00     0.200 C 
HETATM   11  C13 UNL     1      31.818   7.640  47.527  1.00  0.00     0.097 C 
HETATM   12  P1  UNL     1      30.681   6.666  48.139  1.00  0.00    -0.032 P 
HETATM   13  C14 UNL     1      31.319   5.055  47.870  1.00  0.00     0.117 C 
HETATM   14  N4  UNL     1      32.569   5.026  48.151  1.00  0.00    -0.293 NA
HETATM   15  C15 UNL     1      33.383   6.085  48.611  1.00  0.00     0.233 C 
HETATM   16  C16 UNL     1      33.258   7.329  47.757  1.00  0.00     0.197 C 
HETATM   17  O2  UNL     1      34.146   8.092  47.243  1.00  0.00    -0.289 OA
HETATM   18  H7  UNL     1      27.995   9.026  48.022  1.00  0.00     0.160 HD
HETATM   19  H13 UNL     1      32.773   9.484  48.296  1.00  0.00     0.147 HD
HETATM   20  H16 UNL     1      30.647   6.861  49.559  1.00  0.00     0.067 HD
ENDROOT
BRANCH   1  21
HETATM   21  C5  UNL     1      27.995   6.259  48.264  1.00  0.00    -0.031 A 
HETATM   22  C4  UNL     1      26.937   6.994  48.755  1.00  0.00     0.012 A 
HETATM   23  C3  UNL     1      25.896   6.449  49.442  1.00  0.00     0.037 A 
HETATM   24  C2  UNL     1      25.852   5.093  49.685  1.00  0.00     0.068 A 
HETATM   25  C18 UNL     1      26.918   4.330  49.194  1.00  0.00     0.037 A 
HETATM   26  C17 UNL     1      27.961   4.908  48.500  1.00  0.00     0.012 A 
BRANCH  24  27
HETATM   27  O1  UNL     1      24.903   4.350  50.351  1.00  0.00    -0.356 OA
HETATM   28  C1  UNL     1      25.071   3.009  50.769  1.00  0.00     0.210 C 
ENDBRANCH  24  27
ENDBRANCH   1  21
TORSDOF 2
ENDMDL
