MODEL 1
REMARK VINA RESULT:      -9.6      0.000      0.000
REMARK  4 active torsions:
REMARK  status: ('A' for Active; 'I' for Inactive)
REMARK    1  A    between atoms: C7_7  and  C8_8 
REMARK    2  A    between atoms: C8_8  and  C9_9 
REMARK    3  A    between atoms: C14_17  and  N3_18 
REMARK    4  A    between atoms: N3_18  and  C15_19 
ROOT
HETATM    1  C9  UNL     1      22.672  -1.021  54.676  1.00  0.00     0.031 A 
HETATM    2  C10 UNL     1      23.303  -0.351  53.729  1.00  0.00     0.046 A 
HETATM    3  C11 UNL     1      24.739  -0.133  53.705  1.00  0.00     0.059 A 
HETATM    4  C12 UNL     1      25.409  -0.689  54.768  1.00  0.00     0.159 A 
HETATM    5  N1  UNL     1      26.734  -0.572  54.882  1.00  0.00    -0.202 NA
HETATM    6  C13 UNL     1      27.398   0.101  53.933  1.00  0.00     0.201 A 
HETATM    7 BR1  UNL     1      29.302   0.278  54.077  1.00  0.00    -0.006 Br
HETATM    8  N2  UNL     1      26.711   0.625  52.919  1.00  0.00    -0.204 NA
HETATM    9  C14 UNL     1      25.412   0.561  52.725  1.00  0.00     0.145 A 
HETATM   10  N4  UNL     1      24.772  -1.413  55.803  1.00  0.00    -0.283 N 
HETATM   11  N5  UNL     1      23.369  -1.593  55.774  1.00  0.00    -0.303 N 
HETATM   12  H17 UNL     1      25.309  -1.834  56.614  1.00  0.00     0.188 HD
HETATM   13  H18 UNL     1      22.916  -2.126  56.538  1.00  0.00     0.186 HD
ENDROOT
BRANCH   1  14
HETATM   14  C8  UNL     1      21.204  -1.244  54.701  1.00  0.00     0.097 C 
BRANCH  14  15
HETATM   15  C7  UNL     1      20.524  -0.320  53.780  1.00  0.00    -0.047 A 
HETATM   16  C2  UNL     1      19.311  -0.720  53.209  1.00  0.00    -0.055 A 
HETATM   17  C1  UNL     1      18.666  -2.021  53.484  1.00  0.00     0.049 C 
HETATM   18  C3  UNL     1      18.746   0.199  52.354  1.00  0.00     0.007 A 
HETATM   19  C4  UNL     1      19.213   1.443  51.997  1.00  0.00     0.001 A 
HETATM   20  C5  UNL     1      20.429   1.807  52.588  1.00  0.00     0.001 A 
HETATM   21  C6  UNL     1      21.054   0.915  53.467  1.00  0.00     0.008 A 
ENDBRANCH  14  15
ENDBRANCH   1  14
BRANCH   9  22
HETATM   22  N3  UNL     1      24.685   1.118  51.660  1.00  0.00    -0.340 N 
HETATM   23  H11 UNL     1      24.575   0.630  50.772  1.00  0.00     0.167 HD
BRANCH  22  24
HETATM   24  C15 UNL     1      24.003   2.362  51.581  1.00  0.00     0.033 A 
HETATM   25  C16 UNL     1      23.307   2.835  50.490  1.00  0.00     0.029 A 
HETATM   26  C17 UNL     1      22.663   4.048  50.452  1.00  0.00     0.002 A 
HETATM   27  C18 UNL     1      22.685   4.881  51.549  1.00  0.00     0.000 A 
HETATM   28  C19 UNL     1      23.373   4.435  52.653  1.00  0.00     0.002 A 
HETATM   29  C20 UNL     1      24.011   3.213  52.664  1.00  0.00     0.029 A 
ENDBRANCH  22  24
ENDBRANCH   9  22
TORSDOF 4
ENDMDL
MODEL 2
REMARK VINA RESULT:      -9.5      3.167      5.513
REMARK  4 active torsions:
REMARK  status: ('A' for Active; 'I' for Inactive)
REMARK    1  A    between atoms: C7_7  and  C8_8 
REMARK    2  A    between atoms: C8_8  and  C9_9 
REMARK    3  A    between atoms: C14_17  and  N3_18 
REMARK    4  A    between atoms: N3_18  and  C15_19 
ROOT
HETATM    1  C9  UNL     1      23.418  -0.766  54.162  1.00  0.00     0.031 A 
HETATM    2  C10 UNL     1      22.933  -0.210  53.068  1.00  0.00     0.046 A 
HETATM    3  C11 UNL     1      21.521  -0.185  52.724  1.00  0.00     0.059 A 
HETATM    4  C12 UNL     1      20.708  -0.798  53.647  1.00  0.00     0.159 A 
HETATM    5  N1  UNL     1      19.386  -0.853  53.469  1.00  0.00    -0.202 NA
HETATM    6  C13 UNL     1      18.868  -0.294  52.366  1.00  0.00     0.201 A 
HETATM    7 BR1  UNL     1      16.972  -0.361  52.093  1.00  0.00    -0.006 Br
HETATM    8  N2  UNL     1      19.691   0.291  51.497  1.00  0.00    -0.204 NA
HETATM    9  C14 UNL     1      20.999   0.393  51.588  1.00  0.00     0.145 A 
HETATM   10  N4  UNL     1      21.187  -1.405  54.831  1.00  0.00    -0.283 N 
HETATM   11  N5  UNL     1      22.574  -1.399  55.113  1.00  0.00    -0.303 N 
HETATM   12  H17 UNL     1      20.541  -1.873  55.530  1.00  0.00     0.188 HD
HETATM   13  H18 UNL     1      22.910  -1.848  55.984  1.00  0.00     0.186 HD
ENDROOT
BRANCH   1  14
HETATM   14  C8  UNL     1      24.861  -0.792  54.513  1.00  0.00     0.097 C 
BRANCH  14  15
HETATM   15  C7  UNL     1      25.612   0.167  53.687  1.00  0.00    -0.047 A 
HETATM   16  C2  UNL     1      26.445  -0.331  52.680  1.00  0.00    -0.055 A 
HETATM   17  C1  UNL     1      26.610  -1.772  52.391  1.00  0.00     0.049 C 
HETATM   18  C3  UNL     1      27.117   0.631  51.960  1.00  0.00     0.007 A 
HETATM   19  C4  UNL     1      27.073   1.999  52.101  1.00  0.00     0.001 A 
HETATM   20  C5  UNL     1      26.229   2.459  53.119  1.00  0.00     0.001 A 
HETATM   21  C6  UNL     1      25.519   1.529  53.887  1.00  0.00     0.008 A 
ENDBRANCH  14  15
ENDBRANCH   1  14
BRANCH   9  22
HETATM   22  N3  UNL     1      21.868   1.003  50.670  1.00  0.00    -0.340 N 
HETATM   23  H11 UNL     1      22.049   0.600  49.751  1.00  0.00     0.167 HD
BRANCH  22  24
HETATM   24  C15 UNL     1      22.621   2.201  50.795  1.00  0.00     0.033 A 
HETATM   25  C16 UNL     1      22.443   3.173  51.757  1.00  0.00     0.029 A 
HETATM   26  C17 UNL     1      23.190   4.322  51.841  1.00  0.00     0.002 A 
HETATM   27  C18 UNL     1      24.196   4.565  50.931  1.00  0.00     0.000 A 
HETATM   28  C19 UNL     1      24.397   3.612  49.959  1.00  0.00     0.002 A 
HETATM   29  C20 UNL     1      23.631   2.468  49.897  1.00  0.00     0.029 A 
ENDBRANCH  22  24
ENDBRANCH   9  22
TORSDOF 4
ENDMDL
MODEL 3
REMARK VINA RESULT:      -9.2      3.976      6.809
REMARK  4 active torsions:
REMARK  status: ('A' for Active; 'I' for Inactive)
REMARK    1  A    between atoms: C7_7  and  C8_8 
REMARK    2  A    between atoms: C8_8  and  C9_9 
REMARK    3  A    between atoms: C14_17  and  N3_18 
REMARK    4  A    between atoms: N3_18  and  C15_19 
ROOT
HETATM    1  C9  UNL     1      25.520   1.474  53.101  1.00  0.00     0.031 A 
HETATM    2  C10 UNL     1      25.797   2.176  52.017  1.00  0.00     0.046 A 
HETATM    3  C11 UNL     1      24.842   2.445  50.956  1.00  0.00     0.059 A 
HETATM    4  C12 UNL     1      23.598   1.902  51.168  1.00  0.00     0.159 A 
HETATM    5  N1  UNL     1      22.616   2.066  50.279  1.00  0.00    -0.202 NA
HETATM    6  C13 UNL     1      22.870   2.776  49.172  1.00  0.00     0.201 A 
HETATM    7 BR1  UNL     1      21.472   3.025  47.884  1.00  0.00    -0.006 Br
HETATM    8  N2  UNL     1      24.090   3.286  49.004  1.00  0.00    -0.204 NA
HETATM    9  C14 UNL     1      25.115   3.176  49.821  1.00  0.00     0.145 A 
HETATM   10  N4  UNL     1      23.260   1.145  52.314  1.00  0.00    -0.283 N 
HETATM   11  N5  UNL     1      24.232   0.914  53.316  1.00  0.00    -0.303 N 
HETATM   12  H17 UNL     1      22.293   0.734  52.457  1.00  0.00     0.188 HD
HETATM   13  H18 UNL     1      23.971   0.357  54.149  1.00  0.00     0.186 HD
ENDROOT
BRANCH   1  14
HETATM   14  C8  UNL     1      26.495   1.199  54.186  1.00  0.00     0.097 C 
BRANCH  14  15
HETATM   15  C7  UNL     1      27.387   0.089  53.811  1.00  0.00    -0.047 A 
HETATM   16  C2  UNL     1      28.763   0.246  54.007  1.00  0.00    -0.055 A 
HETATM   17  C1  UNL     1      29.376   1.464  54.579  1.00  0.00     0.049 C 
HETATM   18  C3  UNL     1      29.526  -0.834  53.623  1.00  0.00     0.007 A 
HETATM   19  C4  UNL     1      29.115  -2.029  53.082  1.00  0.00     0.001 A 
HETATM   20  C5  UNL     1      27.731  -2.148  52.900  1.00  0.00     0.001 A 
HETATM   21  C6  UNL     1      26.901  -1.083  53.271  1.00  0.00     0.008 A 
ENDBRANCH  14  15
ENDBRANCH   1  14
BRANCH   9  22
HETATM   22  N3  UNL     1      26.402   3.708  49.643  1.00  0.00    -0.340 N 
HETATM   23  H11 UNL     1      27.237   3.203  49.938  1.00  0.00     0.167 HD
BRANCH  22  24
HETATM   24  C15 UNL     1      26.800   4.945  49.070  1.00  0.00     0.033 A 
HETATM   25  C16 UNL     1      26.009   6.067  48.937  1.00  0.00     0.029 A 
HETATM   26  C17 UNL     1      26.430   7.245  48.372  1.00  0.00     0.002 A 
HETATM   27  C18 UNL     1      27.716   7.365  47.892  1.00  0.00     0.000 A 
HETATM   28  C19 UNL     1      28.529   6.262  48.011  1.00  0.00     0.002 A 
HETATM   29  C20 UNL     1      28.080   5.090  48.582  1.00  0.00     0.029 A 
ENDBRANCH  22  24
ENDBRANCH   9  22
TORSDOF 4
ENDMDL
MODEL 4
REMARK VINA RESULT:      -9.1      1.880      4.698
REMARK  4 active torsions:
REMARK  status: ('A' for Active; 'I' for Inactive)
REMARK    1  A    between atoms: C7_7  and  C8_8 
REMARK    2  A    between atoms: C8_8  and  C9_9 
REMARK    3  A    between atoms: C14_17  and  N3_18 
REMARK    4  A    between atoms: N3_18  and  C15_19 
ROOT
HETATM    1  C9  UNL     1      24.540   3.102  49.989  1.00  0.00     0.031 A 
HETATM    2  C10 UNL     1      24.517   2.050  50.786  1.00  0.00     0.046 A 
HETATM    3  C11 UNL     1      25.604   1.678  51.675  1.00  0.00     0.059 A 
HETATM    4  C12 UNL     1      26.686   2.524  51.624  1.00  0.00     0.159 A 
HETATM    5  N1  UNL     1      27.762   2.311  52.385  1.00  0.00    -0.202 NA
HETATM    6  C13 UNL     1      27.763   1.250  53.204  1.00  0.00     0.201 A 
HETATM    7 BR1  UNL     1      29.297   0.929  54.307  1.00  0.00    -0.006 Br
HETATM    8  N2  UNL     1      26.693   0.455  53.224  1.00  0.00    -0.204 NA
HETATM    9  C14 UNL     1      25.595   0.585  52.513  1.00  0.00     0.145 A 
HETATM   10  N4  UNL     1      26.751   3.661  50.784  1.00  0.00    -0.283 N 
HETATM   11  N5  UNL     1      25.661   3.973  49.939  1.00  0.00    -0.303 N 
HETATM   12  H17 UNL     1      27.597   4.300  50.761  1.00  0.00     0.188 HD
HETATM   13  H18 UNL     1      25.723   4.809  49.329  1.00  0.00     0.186 HD
ENDROOT
BRANCH   1  14
HETATM   14  C8  UNL     1      23.429   3.484  49.081  1.00  0.00     0.097 C 
BRANCH  14  15
HETATM   15  C7  UNL     1      22.139   3.420  49.786  1.00  0.00    -0.047 A 
HETATM   16  C2  UNL     1      21.263   2.374  49.479  1.00  0.00    -0.055 A 
HETATM   17  C1  UNL     1      21.562   1.318  48.488  1.00  0.00     0.049 C 
HETATM   18  C3  UNL     1      20.076   2.393  50.177  1.00  0.00     0.007 A 
HETATM   19  C4  UNL     1      19.649   3.295  51.124  1.00  0.00     0.001 A 
HETATM   20  C5  UNL     1      20.553   4.327  51.404  1.00  0.00     0.001 A 
HETATM   21  C6  UNL     1      21.777   4.363  50.726  1.00  0.00     0.008 A 
ENDBRANCH  14  15
ENDBRANCH   1  14
BRANCH   9  22
HETATM   22  N3  UNL     1      24.470  -0.255  52.528  1.00  0.00    -0.340 N 
HETATM   23  H11 UNL     1      24.449  -1.134  52.014  1.00  0.00     0.167 HD
BRANCH  22  24
HETATM   24  C15 UNL     1      23.227  -0.092  53.197  1.00  0.00     0.033 A 
HETATM   25  C16 UNL     1      22.229   0.792  52.845  1.00  0.00     0.029 A 
HETATM   26  C17 UNL     1      21.041   0.923  53.521  1.00  0.00     0.002 A 
HETATM   27  C18 UNL     1      20.781   0.143  54.627  1.00  0.00     0.000 A 
HETATM   28  C19 UNL     1      21.759  -0.748  55.002  1.00  0.00     0.002 A 
HETATM   29  C20 UNL     1      22.944  -0.859  54.305  1.00  0.00     0.029 A 
ENDBRANCH  22  24
ENDBRANCH   9  22
TORSDOF 4
ENDMDL
MODEL 5
REMARK VINA RESULT:      -9.1      2.761      6.793
REMARK  4 active torsions:
REMARK  status: ('A' for Active; 'I' for Inactive)
REMARK    1  A    between atoms: C7_7  and  C8_8 
REMARK    2  A    between atoms: C8_8  and  C9_9 
REMARK    3  A    between atoms: C14_17  and  N3_18 
REMARK    4  A    between atoms: N3_18  and  C15_19 
ROOT
HETATM    1  C9  UNL     1      23.591   2.817  49.841  1.00  0.00     0.031 A 
HETATM    2  C10 UNL     1      24.307   2.393  50.866  1.00  0.00     0.046 A 
HETATM    3  C11 UNL     1      23.836   1.429  51.845  1.00  0.00     0.059 A 
HETATM    4  C12 UNL     1      22.558   0.978  51.619  1.00  0.00     0.159 A 
HETATM    5  N1  UNL     1      21.989   0.087  52.435  1.00  0.00    -0.202 NA
HETATM    6  C13 UNL     1      22.696  -0.360  53.481  1.00  0.00     0.201 A 
HETATM    7 BR1  UNL     1      21.898  -1.642  54.663  1.00  0.00    -0.006 Br
HETATM    8  N2  UNL     1      23.933   0.101  53.664  1.00  0.00    -0.204 NA
HETATM    9  C14 UNL     1      24.571   0.975  52.917  1.00  0.00     0.145 A 
HETATM   10  N4  UNL     1      21.757   1.406  50.534  1.00  0.00    -0.283 N 
HETATM   11  N5  UNL     1      22.269   2.350  49.612  1.00  0.00    -0.303 N 
HETATM   12  H17 UNL     1      20.772   1.046  50.379  1.00  0.00     0.188 HD
HETATM   13  H18 UNL     1      21.672   2.654  48.823  1.00  0.00     0.186 HD
ENDROOT
BRANCH   1  14
HETATM   14  C8  UNL     1      24.071   3.803  48.840  1.00  0.00     0.097 C 
BRANCH  14  15
HETATM   15  C7  UNL     1      24.271   5.121  49.466  1.00  0.00    -0.047 A 
HETATM   16  C2  UNL     1      25.567   5.647  49.511  1.00  0.00    -0.055 A 
HETATM   17  C1  UNL     1      26.751   4.957  48.957  1.00  0.00     0.049 C 
HETATM   18  C3  UNL     1      25.668   6.878  50.120  1.00  0.00     0.007 A 
HETATM   19  C4  UNL     1      24.672   7.645  50.679  1.00  0.00     0.001 A 
HETATM   20  C5  UNL     1      23.391   7.085  50.615  1.00  0.00     0.001 A 
HETATM   21  C6  UNL     1      23.223   5.834  50.008  1.00  0.00     0.008 A 
ENDBRANCH  14  15
ENDBRANCH   1  14
BRANCH   9  22
HETATM   22  N3  UNL     1      25.871   1.467  53.112  1.00  0.00    -0.340 N 
HETATM   23  H11 UNL     1      26.067   2.467  53.155  1.00  0.00     0.167 HD
BRANCH  22  24
HETATM   24  C15 UNL     1      27.092   0.760  53.278  1.00  0.00     0.033 A 
HETATM   25  C16 UNL     1      28.276   1.287  53.748  1.00  0.00     0.029 A 
HETATM   26  C17 UNL     1      29.438   0.570  53.890  1.00  0.00     0.002 A 
HETATM   27  C18 UNL     1      29.475  -0.767  53.557  1.00  0.00     0.000 A 
HETATM   28  C19 UNL     1      28.307  -1.321  53.084  1.00  0.00     0.002 A 
HETATM   29  C20 UNL     1      27.155  -0.577  52.951  1.00  0.00     0.029 A 
ENDBRANCH  22  24
ENDBRANCH   9  22
TORSDOF 4
ENDMDL
MODEL 6
REMARK VINA RESULT:      -9.1      3.148      6.677
REMARK  4 active torsions:
REMARK  status: ('A' for Active; 'I' for Inactive)
REMARK    1  A    between atoms: C7_7  and  C8_8 
REMARK    2  A    between atoms: C8_8  and  C9_9 
REMARK    3  A    between atoms: C14_17  and  N3_18 
REMARK    4  A    between atoms: N3_18  and  C15_19 
ROOT
HETATM    1  C9  UNL     1      25.845   2.096  52.994  1.00  0.00     0.031 A 
HETATM    2  C10 UNL     1      24.578   2.397  52.778  1.00  0.00     0.046 A 
HETATM    3  C11 UNL     1      24.110   3.194  51.657  1.00  0.00     0.059 A 
HETATM    4  C12 UNL     1      25.109   3.622  50.816  1.00  0.00     0.159 A 
HETATM    5  N1  UNL     1      24.832   4.363  49.742  1.00  0.00    -0.202 NA
HETATM    6  C13 UNL     1      23.553   4.681  49.499  1.00  0.00     0.201 A 
HETATM    7 BR1  UNL     1      23.135   5.743  47.959  1.00  0.00    -0.006 Br
HETATM    8  N2  UNL     1      22.614   4.245  50.338  1.00  0.00    -0.204 NA
HETATM    9  C14 UNL     1      22.792   3.515  51.417  1.00  0.00     0.145 A 
HETATM   10  N4  UNL     1      26.478   3.322  51.012  1.00  0.00    -0.283 N 
HETATM   11  N5  UNL     1      26.875   2.542  52.123  1.00  0.00    -0.303 N 
HETATM   12  H17 UNL     1      27.233   3.664  50.350  1.00  0.00     0.188 HD
HETATM   13  H18 UNL     1      27.881   2.330  52.253  1.00  0.00     0.186 HD
ENDROOT
BRANCH   1  14
HETATM   14  C8  UNL     1      26.324   1.282  54.140  1.00  0.00     0.097 C 
BRANCH  14  15
HETATM   15  C7  UNL     1      26.994   0.061  53.662  1.00  0.00    -0.047 A 
HETATM   16  C2  UNL     1      28.372  -0.067  53.870  1.00  0.00    -0.055 A 
HETATM   17  C1  UNL     1      29.197   0.953  54.551  1.00  0.00     0.049 C 
HETATM   18  C3  UNL     1      28.921  -1.234  53.387  1.00  0.00     0.007 A 
HETATM   19  C4  UNL     1      28.297  -2.274  52.738  1.00  0.00     0.001 A 
HETATM   20  C5  UNL     1      26.920  -2.108  52.548  1.00  0.00     0.001 A 
HETATM   21  C6  UNL     1      26.302  -0.942  53.017  1.00  0.00     0.008 A 
ENDBRANCH  14  15
ENDBRANCH   1  14
BRANCH   9  22
HETATM   22  N3  UNL     1      21.805   3.060  52.306  1.00  0.00    -0.340 N 
HETATM   23  H11 UNL     1      21.673   3.483  53.224  1.00  0.00     0.167 HD
BRANCH  22  24
HETATM   24  C15 UNL     1      20.858   2.013  52.149  1.00  0.00     0.033 A 
HETATM   25  C16 UNL     1      19.929   1.907  51.135  1.00  0.00     0.029 A 
HETATM   26  C17 UNL     1      19.026   0.879  51.021  1.00  0.00     0.002 A 
HETATM   27  C18 UNL     1      19.007  -0.137  51.953  1.00  0.00     0.000 A 
HETATM   28  C19 UNL     1      19.923  -0.057  52.976  1.00  0.00     0.002 A 
HETATM   29  C20 UNL     1      20.818   0.987  53.067  1.00  0.00     0.029 A 
ENDBRANCH  22  24
ENDBRANCH   9  22
TORSDOF 4
ENDMDL
MODEL 7
REMARK VINA RESULT:      -9.0      1.543      4.228
REMARK  4 active torsions:
REMARK  status: ('A' for Active; 'I' for Inactive)
REMARK    1  A    between atoms: C7_7  and  C8_8 
REMARK    2  A    between atoms: C8_8  and  C9_9 
REMARK    3  A    between atoms: C14_17  and  N3_18 
REMARK    4  A    between atoms: N3_18  and  C15_19 
ROOT
HETATM    1  C9  UNL     1      24.415   2.829  52.157  1.00  0.00     0.031 A 
HETATM    2  C10 UNL     1      24.450   1.730  52.887  1.00  0.00     0.046 A 
HETATM    3  C11 UNL     1      25.659   0.975  53.164  1.00  0.00     0.059 A 
HETATM    4  C12 UNL     1      26.794   1.502  52.596  1.00  0.00     0.159 A 
HETATM    5  N1  UNL     1      27.982   0.918  52.764  1.00  0.00    -0.202 NA
HETATM    6  C13 UNL     1      28.045  -0.198  53.502  1.00  0.00     0.201 A 
HETATM    7 BR1  UNL     1      29.743  -1.050  53.757  1.00  0.00    -0.006 Br
HETATM    8  N2  UNL     1      26.922  -0.677  54.037  1.00  0.00    -0.204 NA
HETATM    9  C14 UNL     1      25.713  -0.172  53.925  1.00  0.00     0.145 A 
HETATM   10  N4  UNL     1      26.800   2.677  51.808  1.00  0.00    -0.283 N 
HETATM   11  N5  UNL     1      25.590   3.371  51.571  1.00  0.00    -0.303 N 
HETATM   12  H17 UNL     1      27.687   3.067  51.378  1.00  0.00     0.188 HD
HETATM   13  H18 UNL     1      25.609   4.230  50.992  1.00  0.00     0.186 HD
ENDROOT
BRANCH   1  14
HETATM   14  C8  UNL     1      23.179   3.602  51.874  1.00  0.00     0.097 C 
BRANCH  14  15
HETATM   15  C7  UNL     1      22.313   2.868  50.936  1.00  0.00    -0.047 A 
HETATM   16  C2  UNL     1      20.954   2.743  51.242  1.00  0.00    -0.055 A 
HETATM   17  C1  UNL     1      20.331   3.314  52.455  1.00  0.00     0.049 C 
HETATM   18  C3  UNL     1      20.218   2.036  50.317  1.00  0.00     0.007 A 
HETATM   19  C4  UNL     1      20.642   1.448  49.148  1.00  0.00     0.001 A 
HETATM   20  C5  UNL     1      22.008   1.595  48.877  1.00  0.00     0.001 A 
HETATM   21  C6  UNL     1      22.810   2.303  49.780  1.00  0.00     0.008 A 
ENDBRANCH  14  15
ENDBRANCH   1  14
BRANCH   9  22
HETATM   22  N3  UNL     1      24.528  -0.679  54.482  1.00  0.00    -0.340 N 
HETATM   23  H11 UNL     1      24.526  -1.205  55.355  1.00  0.00     0.167 HD
BRANCH  22  24
HETATM   24  C15 UNL     1      23.192  -0.585  54.007  1.00  0.00     0.033 A 
HETATM   25  C16 UNL     1      22.771  -0.839  52.720  1.00  0.00     0.029 A 
HETATM   26  C17 UNL     1      21.468  -0.733  52.298  1.00  0.00     0.002 A 
HETATM   27  C18 UNL     1      20.481  -0.353  53.182  1.00  0.00     0.000 A 
HETATM   28  C19 UNL     1      20.872  -0.093  54.475  1.00  0.00     0.002 A 
HETATM   29  C20 UNL     1      22.187  -0.206  54.870  1.00  0.00     0.029 A 
ENDBRANCH  22  24
ENDBRANCH   9  22
TORSDOF 4
ENDMDL
MODEL 8
REMARK VINA RESULT:      -8.9      3.559      6.826
REMARK  4 active torsions:
REMARK  status: ('A' for Active; 'I' for Inactive)
REMARK    1  A    between atoms: C7_7  and  C8_8 
REMARK    2  A    between atoms: C8_8  and  C9_9 
REMARK    3  A    between atoms: C14_17  and  N3_18 
REMARK    4  A    between atoms: N3_18  and  C15_19 
ROOT
HETATM    1  C9  UNL     1      25.746   2.515  51.039  1.00  0.00     0.031 A 
HETATM    2  C10 UNL     1      24.439   2.348  50.960  1.00  0.00     0.046 A 
HETATM    3  C11 UNL     1      23.492   3.428  50.741  1.00  0.00     0.059 A 
HETATM    4  C12 UNL     1      24.072   4.668  50.618  1.00  0.00     0.159 A 
HETATM    5  N1  UNL     1      23.328   5.757  50.412  1.00  0.00    -0.202 NA
HETATM    6  C13 UNL     1      21.999   5.614  50.326  1.00  0.00     0.201 A 
HETATM    7 BR1  UNL     1      20.914   7.166  50.028  1.00  0.00    -0.006 Br
HETATM    8  N2  UNL     1      21.476   4.394  50.449  1.00  0.00    -0.204 NA
HETATM    9  C14 UNL     1      22.126   3.269  50.654  1.00  0.00     0.145 A 
HETATM   10  N4  UNL     1      25.466   4.890  50.697  1.00  0.00    -0.283 N 
HETATM   11  N5  UNL     1      26.341   3.799  50.913  1.00  0.00    -0.303 N 
HETATM   12  H17 UNL     1      25.893   5.856  50.600  1.00  0.00     0.188 HD
HETATM   13  H18 UNL     1      27.360   3.977  50.969  1.00  0.00     0.186 HD
ENDROOT
BRANCH   1  14
HETATM   14  C8  UNL     1      26.715   1.413  51.264  1.00  0.00     0.097 C 
BRANCH  14  15
HETATM   15  C7  UNL     1      26.535   0.830  52.603  1.00  0.00    -0.047 A 
HETATM   16  C2  UNL     1      27.358   1.279  53.641  1.00  0.00    -0.055 A 
HETATM   17  C1  UNL     1      28.399   2.315  53.472  1.00  0.00     0.049 C 
HETATM   18  C3  UNL     1      27.130   0.678  54.859  1.00  0.00     0.007 A 
HETATM   19  C4  UNL     1      26.208  -0.292  55.180  1.00  0.00     0.001 A 
HETATM   20  C5  UNL     1      25.404  -0.716  54.115  1.00  0.00     0.001 A 
HETATM   21  C6  UNL     1      25.588  -0.142  52.852  1.00  0.00     0.008 A 
ENDBRANCH  14  15
ENDBRANCH   1  14
BRANCH   9  22
HETATM   22  N3  UNL     1      21.577   1.985  50.790  1.00  0.00    -0.340 N 
HETATM   23  H11 UNL     1      21.209   1.470  49.991  1.00  0.00     0.167 HD
BRANCH  22  24
HETATM   24  C15 UNL     1      21.423   1.185  51.955  1.00  0.00     0.033 A 
HETATM   25  C16 UNL     1      20.733   1.539  53.094  1.00  0.00     0.029 A 
HETATM   26  C17 UNL     1      20.610   0.738  54.203  1.00  0.00     0.002 A 
HETATM   27  C18 UNL     1      21.194  -0.510  54.226  1.00  0.00     0.000 A 
HETATM   28  C19 UNL     1      21.890  -0.891  53.102  1.00  0.00     0.002 A 
HETATM   29  C20 UNL     1      21.998  -0.066  52.003  1.00  0.00     0.029 A 
ENDBRANCH  22  24
ENDBRANCH   9  22
TORSDOF 4
ENDMDL
MODEL 9
REMARK VINA RESULT:      -8.9      3.055      6.232
REMARK  4 active torsions:
REMARK  status: ('A' for Active; 'I' for Inactive)
REMARK    1  A    between atoms: C7_7  and  C8_8 
REMARK    2  A    between atoms: C8_8  and  C9_9 
REMARK    3  A    between atoms: C14_17  and  N3_18 
REMARK    4  A    between atoms: N3_18  and  C15_19 
ROOT
HETATM    1  C9  UNL     1      24.785   0.323  53.825  1.00  0.00     0.031 A 
HETATM    2  C10 UNL     1      23.778   0.881  53.178  1.00  0.00     0.046 A 
HETATM    3  C11 UNL     1      22.412   0.390  53.219  1.00  0.00     0.059 A 
HETATM    4  C12 UNL     1      22.239  -0.728  54.000  1.00  0.00     0.159 A 
HETATM    5  N1  UNL     1      21.038  -1.293  54.135  1.00  0.00    -0.202 NA
HETATM    6  C13 UNL     1      19.999  -0.745  53.490  1.00  0.00     0.201 A 
HETATM    7 BR1  UNL     1      18.265  -1.541  53.674  1.00  0.00    -0.006 Br
HETATM    8  N2  UNL     1      20.209   0.339  52.744  1.00  0.00    -0.204 NA
HETATM    9  C14 UNL     1      21.351   0.961  52.552  1.00  0.00     0.145 A 
HETATM   10  N4  UNL     1      23.290  -1.356  54.708  1.00  0.00    -0.283 N 
HETATM   11  N5  UNL     1      24.602  -0.833  54.631  1.00  0.00    -0.303 N 
HETATM   12  H17 UNL     1      23.135  -2.219  55.306  1.00  0.00     0.188 HD
HETATM   13  H18 UNL     1      25.362  -1.303  55.155  1.00  0.00     0.186 HD
ENDROOT
BRANCH   1  14
HETATM   14  C8  UNL     1      26.182   0.825  53.784  1.00  0.00     0.097 C 
BRANCH  14  15
HETATM   15  C7  UNL     1      27.119  -0.276  53.509  1.00  0.00    -0.047 A 
HETATM   16  C2  UNL     1      28.448  -0.140  53.926  1.00  0.00    -0.055 A 
HETATM   17  C1  UNL     1      28.966   1.048  54.637  1.00  0.00     0.049 C 
HETATM   18  C3  UNL     1      29.259  -1.211  53.622  1.00  0.00     0.007 A 
HETATM   19  C4  UNL     1      28.935  -2.380  52.974  1.00  0.00     0.001 A 
HETATM   20  C5  UNL     1      27.597  -2.478  52.572  1.00  0.00     0.001 A 
HETATM   21  C6  UNL     1      26.722  -1.422  52.850  1.00  0.00     0.008 A 
ENDBRANCH  14  15
ENDBRANCH   1  14
BRANCH   9  22
HETATM   22  N3  UNL     1      21.574   2.099  51.760  1.00  0.00    -0.340 N 
HETATM   23  H11 UNL     1      21.482   3.042  52.137  1.00  0.00     0.167 HD
BRANCH  22  24
HETATM   24  C15 UNL     1      21.944   2.192  50.391  1.00  0.00     0.033 A 
HETATM   25  C16 UNL     1      22.834   3.095  49.853  1.00  0.00     0.029 A 
HETATM   26  C17 UNL     1      23.162   3.156  48.520  1.00  0.00     0.002 A 
HETATM   27  C18 UNL     1      22.592   2.278  47.624  1.00  0.00     0.000 A 
HETATM   28  C19 UNL     1      21.698   1.364  48.133  1.00  0.00     0.002 A 
HETATM   29  C20 UNL     1      21.387   1.327  49.475  1.00  0.00     0.029 A 
ENDBRANCH  22  24
ENDBRANCH   9  22
TORSDOF 4
ENDMDL
