MODEL 1
REMARK VINA RESULT:      -7.4      0.000      0.000
REMARK  9 active torsions:
REMARK  status: ('A' for Active; 'I' for Inactive)
REMARK    1  A    between atoms: C2_2  and  C3_3 
REMARK    2  A    between atoms: C2_2  and  N2_15 
REMARK    3  A    between atoms: C3_3  and  C4_4 
REMARK    4  A    between atoms: C12_13  and  P1_14 
REMARK    5  A    between atoms: N2_15  and  C13_16 
REMARK    6  A    between atoms: C13_16  and  C18_23 
REMARK    7  A    between atoms: C14_17  and  C15_18 
REMARK    8  A    between atoms: C15_18  and  C16_19 
REMARK    9  A    between atoms: C16_19  and  C17_20 
ROOT
HETATM    1  C3  UNL     1      24.130   2.553  50.936  1.00  0.00     0.084 C 
ENDROOT
BRANCH   1   2
HETATM    2  C2  UNL     1      24.170   2.913  52.396  1.00  0.00     0.003 C 
HETATM    3  C1  UNL     1      23.630   3.922  53.069  1.00  0.00     0.038 C 
BRANCH   2   4
HETATM    4  N2  UNL     1      24.918   2.033  53.251  1.00  0.00    -0.364 N 
HETATM    5  H14 UNL     1      25.548   2.640  53.816  1.00  0.00     0.165 HD
BRANCH   4   6
HETATM    6  C13 UNL     1      24.731   0.624  53.229  1.00  0.00     0.005 C 
HETATM    7  C14 UNL     1      25.645  -0.232  52.799  1.00  0.00    -0.002 C 
BRANCH   7   8
HETATM    8  C15 UNL     1      26.943   0.283  52.311  1.00  0.00     0.036 C 
BRANCH   8   9
HETATM    9  C16 UNL     1      28.044   0.111  53.330  1.00  0.00     0.074 C 
BRANCH   9  10
HETATM   10  C17 UNL     1      28.526   1.424  53.788  1.00  0.00     0.117 A 
HETATM   11  O1  UNL     1      27.794   2.409  54.136  1.00  0.00    -0.194 OA
HETATM   12  O2  UNL     1      29.232   2.549  54.180  1.00  0.00     0.000 OA
HETATM   13  H20 UNL     1      30.254   2.540  54.179  1.00  0.00     0.000 HD
ENDBRANCH   9  10
ENDBRANCH   8   9
ENDBRANCH   7   8
BRANCH   6  14
HETATM   14  C18 UNL     1      23.404   0.186  53.735  1.00  0.00     0.052 C 
HETATM   15  C19 UNL     1      22.562  -0.424  52.641  1.00  0.00     0.011 C 
ENDBRANCH   6  14
ENDBRANCH   4   6
ENDBRANCH   2   4
ENDBRANCH   1   2
BRANCH   1  16
HETATM   16  C4  UNL     1      25.282   3.229  50.308  1.00  0.00    -0.010 C 
HETATM   17  C5  UNL     1      25.276   4.428  49.788  1.00  0.00    -0.023 C 
HETATM   18  C6  UNL     1      26.428   5.099  49.163  1.00  0.00    -0.001 A 
HETATM   19  C12 UNL     1      24.082   5.334  49.740  1.00  0.00     0.138 C 
HETATM   20  C7  UNL     1      27.662   4.659  48.708  1.00  0.00     0.014 A 
HETATM   21  C11 UNL     1      26.057   6.431  49.078  1.00  0.00     0.039 A 
HETATM   22  C8  UNL     1      28.527   5.586  48.161  1.00  0.00     0.001 A 
HETATM   23  C9  UNL     1      28.150   6.918  48.079  1.00  0.00     0.002 A 
HETATM   24  C10 UNL     1      26.922   7.369  48.529  1.00  0.00     0.030 A 
HETATM   25  N1  UNL     1      24.748   6.624  49.612  1.00  0.00    -0.377 N 
HETATM   26  H10 UNL     1      24.254   7.500  49.897  1.00  0.00     0.160 HD
BRANCH  19  27
HETATM   27  P1  UNL     1      23.049   4.959  48.256  1.00  0.00    -0.112 P 
HETATM   28  H12 UNL     1      22.506   3.630  48.361  1.00  0.00     0.057 HD
HETATM   29  H13 UNL     1      23.789   5.036  47.010  1.00  0.00     0.057 HD
ENDBRANCH  19  27
ENDBRANCH   1  16
TORSDOF 9
ENDMDL
MODEL 2
REMARK VINA RESULT:      -7.4      1.558      2.001
REMARK  9 active torsions:
REMARK  status: ('A' for Active; 'I' for Inactive)
REMARK    1  A    between atoms: C2_2  and  C3_3 
REMARK    2  A    between atoms: C2_2  and  N2_15 
REMARK    3  A    between atoms: C3_3  and  C4_4 
REMARK    4  A    between atoms: C12_13  and  P1_14 
REMARK    5  A    between atoms: N2_15  and  C13_16 
REMARK    6  A    between atoms: C13_16  and  C18_23 
REMARK    7  A    between atoms: C14_17  and  C15_18 
REMARK    8  A    between atoms: C15_18  and  C16_19 
REMARK    9  A    between atoms: C16_19  and  C17_20 
ROOT
HETATM    1  C3  UNL     1      22.134   1.367  50.683  1.00  0.00     0.084 C 
ENDROOT
BRANCH   1   2
HETATM    2  C2  UNL     1      21.794   1.723  52.104  1.00  0.00     0.003 C 
HETATM    3  C1  UNL     1      20.675   2.180  52.653  1.00  0.00     0.038 C 
BRANCH   2   4
HETATM    4  N2  UNL     1      22.840   1.553  53.074  1.00  0.00    -0.364 N 
HETATM    5  H14 UNL     1      22.990   2.487  53.511  1.00  0.00     0.165 HD
BRANCH   4   6
HETATM    6  C13 UNL     1      23.464   0.294  53.296  1.00  0.00     0.005 C 
HETATM    7  C14 UNL     1      24.775   0.123  53.356  1.00  0.00    -0.002 C 
BRANCH   7   8
HETATM    8  C15 UNL     1      25.663   1.295  53.187  1.00  0.00     0.036 C 
BRANCH   8   9
HETATM    9  C16 UNL     1      27.076   0.892  52.835  1.00  0.00     0.074 C 
BRANCH   9  10
HETATM   10  C17 UNL     1      27.996   2.020  53.049  1.00  0.00     0.117 A 
HETATM   11  O1  UNL     1      28.207   2.614  54.159  1.00  0.00    -0.194 OA
HETATM   12  O2  UNL     1      28.914   3.055  52.978  1.00  0.00     0.000 OA
HETATM   13  H20 UNL     1      29.364   3.282  52.089  1.00  0.00     0.000 HD
ENDBRANCH   9  10
ENDBRANCH   8   9
ENDBRANCH   7   8
BRANCH   6  14
HETATM   14  C18 UNL     1      22.505  -0.831  53.455  1.00  0.00     0.052 C 
HETATM   15  C19 UNL     1      21.946  -0.894  54.855  1.00  0.00     0.011 C 
ENDBRANCH   6  14
ENDBRANCH   4   6
ENDBRANCH   2   4
ENDBRANCH   1   2
BRANCH   1  16
HETATM   16  C4  UNL     1      23.419   2.029  50.384  1.00  0.00    -0.010 C 
HETATM   17  C5  UNL     1      23.568   3.161  49.748  1.00  0.00    -0.023 C 
HETATM   18  C6  UNL     1      24.851   3.818  49.452  1.00  0.00    -0.001 A 
HETATM   19  C12 UNL     1      22.444   3.993  49.207  1.00  0.00     0.138 C 
HETATM   20  C7  UNL     1      26.172   3.396  49.477  1.00  0.00     0.014 A 
HETATM   21  C11 UNL     1      24.511   5.112  49.091  1.00  0.00     0.039 A 
HETATM   22  C8  UNL     1      27.156   4.300  49.131  1.00  0.00     0.001 A 
HETATM   23  C9  UNL     1      26.809   5.593  48.770  1.00  0.00     0.002 A 
HETATM   24  C10 UNL     1      25.495   6.027  48.741  1.00  0.00     0.030 A 
HETATM   25  N1  UNL     1      23.097   5.294  49.146  1.00  0.00    -0.377 N 
HETATM   26  H10 UNL     1      22.525   6.169  49.148  1.00  0.00     0.160 HD
BRANCH  19  27
HETATM   27  P1  UNL     1      21.956   3.403  47.526  1.00  0.00    -0.112 P 
HETATM   28  H12 UNL     1      20.538   3.567  47.343  1.00  0.00     0.057 HD
HETATM   29  H13 UNL     1      22.273   2.006  47.298  1.00  0.00     0.057 HD
ENDBRANCH  19  27
ENDBRANCH   1  16
TORSDOF 9
ENDMDL
MODEL 3
REMARK VINA RESULT:      -7.3      3.870      5.960
REMARK  9 active torsions:
REMARK  status: ('A' for Active; 'I' for Inactive)
REMARK    1  A    between atoms: C2_2  and  C3_3 
REMARK    2  A    between atoms: C2_2  and  N2_15 
REMARK    3  A    between atoms: C3_3  and  C4_4 
REMARK    4  A    between atoms: C12_13  and  P1_14 
REMARK    5  A    between atoms: N2_15  and  C13_16 
REMARK    6  A    between atoms: C13_16  and  C18_23 
REMARK    7  A    between atoms: C14_17  and  C15_18 
REMARK    8  A    between atoms: C15_18  and  C16_19 
REMARK    9  A    between atoms: C16_19  and  C17_20 
ROOT
HETATM    1  C3  UNL     1      22.874   1.864  52.032  1.00  0.00     0.084 C 
ENDROOT
BRANCH   1   2
HETATM    2  C2  UNL     1      22.163   1.359  50.806  1.00  0.00     0.003 C 
HETATM    3  C1  UNL     1      22.247   1.716  49.530  1.00  0.00     0.038 C 
BRANCH   2   4
HETATM    4  N2  UNL     1      21.211   0.302  51.008  1.00  0.00    -0.364 N 
HETATM    5  H14 UNL     1      21.592  -0.533  50.514  1.00  0.00     0.165 HD
BRANCH   4   6
HETATM    6  C13 UNL     1      20.020   0.495  51.761  1.00  0.00     0.005 C 
HETATM    7  C14 UNL     1      19.805  -0.048  52.948  1.00  0.00    -0.002 C 
BRANCH   7   8
HETATM    8  C15 UNL     1      20.849  -0.910  53.548  1.00  0.00     0.036 C 
BRANCH   8   9
HETATM    9  C16 UNL     1      21.513  -0.256  54.736  1.00  0.00     0.074 C 
BRANCH   9  10
HETATM   10  C17 UNL     1      22.519  -1.158  55.318  1.00  0.00     0.117 A 
HETATM   11  O1  UNL     1      23.771  -1.140  55.073  1.00  0.00    -0.194 OA
HETATM   12  O2  UNL     1      23.248  -2.118  56.000  1.00  0.00     0.000 OA
HETATM   13  H20 UNL     1      22.778  -2.761  56.641  1.00  0.00     0.000 HD
ENDBRANCH   9  10
ENDBRANCH   8   9
ENDBRANCH   7   8
BRANCH   6  14
HETATM   14  C18 UNL     1      19.023   1.371  51.092  1.00  0.00     0.052 C 
HETATM   15  C19 UNL     1      18.180   0.604  50.102  1.00  0.00     0.011 C 
ENDBRANCH   6  14
ENDBRANCH   4   6
ENDBRANCH   2   4
ENDBRANCH   1   2
BRANCH   1  16
HETATM   16  C4  UNL     1      23.979   0.920  52.291  1.00  0.00    -0.010 C 
HETATM   17  C5  UNL     1      25.242   1.232  52.404  1.00  0.00    -0.023 C 
HETATM   18  C6  UNL     1      26.341   0.287  52.662  1.00  0.00    -0.001 A 
HETATM   19  C12 UNL     1      25.794   2.621  52.288  1.00  0.00     0.138 C 
HETATM   20  C7  UNL     1      26.453  -1.095  52.597  1.00  0.00     0.014 A 
HETATM   21  C11 UNL     1      27.411   1.083  53.037  1.00  0.00     0.039 A 
HETATM   22  C8  UNL     1      27.666  -1.670  52.916  1.00  0.00     0.001 A 
HETATM   23  C9  UNL     1      28.733  -0.867  53.290  1.00  0.00     0.002 A 
HETATM   24  C10 UNL     1      28.635   0.511  53.359  1.00  0.00     0.030 A 
HETATM   25  N1  UNL     1      27.041   2.460  53.026  1.00  0.00    -0.377 N 
HETATM   26  H10 UNL     1      27.513   3.294  53.445  1.00  0.00     0.160 HD
BRANCH  19  27
HETATM   27  P1  UNL     1      26.108   3.046  50.518  1.00  0.00    -0.112 P 
HETATM   28  H12 UNL     1      27.276   2.348  50.048  1.00  0.00     0.057 HD
HETATM   29  H13 UNL     1      26.323   4.464  50.301  1.00  0.00     0.057 HD
ENDBRANCH  19  27
ENDBRANCH   1  16
TORSDOF 9
ENDMDL
MODEL 4
REMARK VINA RESULT:      -7.2      3.865      6.050
REMARK  9 active torsions:
REMARK  status: ('A' for Active; 'I' for Inactive)
REMARK    1  A    between atoms: C2_2  and  C3_3 
REMARK    2  A    between atoms: C2_2  and  N2_15 
REMARK    3  A    between atoms: C3_3  and  C4_4 
REMARK    4  A    between atoms: C12_13  and  P1_14 
REMARK    5  A    between atoms: N2_15  and  C13_16 
REMARK    6  A    between atoms: C13_16  and  C18_23 
REMARK    7  A    between atoms: C14_17  and  C15_18 
REMARK    8  A    between atoms: C15_18  and  C16_19 
REMARK    9  A    between atoms: C16_19  and  C17_20 
ROOT
HETATM    1  C3  UNL     1      23.413   1.007  52.441  1.00  0.00     0.084 C 
ENDROOT
BRANCH   1   2
HETATM    2  C2  UNL     1      22.358   0.288  53.235  1.00  0.00     0.003 C 
HETATM    3  C1  UNL     1      22.364  -0.893  53.842  1.00  0.00     0.038 C 
BRANCH   2   4
HETATM    4  N2  UNL     1      21.100   0.966  53.389  1.00  0.00    -0.364 N 
HETATM    5  H14 UNL     1      20.986   1.144  54.409  1.00  0.00     0.165 HD
BRANCH   4   6
HETATM    6  C13 UNL     1      20.270   1.274  52.276  1.00  0.00     0.005 C 
HETATM    7  C14 UNL     1      20.110   2.495  51.794  1.00  0.00    -0.002 C 
BRANCH   7   8
HETATM    8  C15 UNL     1      20.826   3.622  52.432  1.00  0.00     0.036 C 
BRANCH   8   9
HETATM    9  C16 UNL     1      21.800   4.287  51.487  1.00  0.00     0.074 C 
BRANCH   9  10
HETATM   10  C17 UNL     1      22.918   4.877  52.239  1.00  0.00     0.117 A 
HETATM   11  O1  UNL     1      23.935   5.459  51.734  1.00  0.00    -0.194 OA
HETATM   12  O2  UNL     1      23.829   5.345  53.171  1.00  0.00     0.000 OA
HETATM   13  H20 UNL     1      23.655   5.217  54.170  1.00  0.00     0.000 HD
ENDBRANCH   9  10
ENDBRANCH   8   9
ENDBRANCH   7   8
BRANCH   6  14
HETATM   14  C18 UNL     1      19.586   0.090  51.691  1.00  0.00     0.052 C 
HETATM   15  C19 UNL     1      18.618  -0.534  52.666  1.00  0.00     0.011 C 
ENDBRANCH   6  14
ENDBRANCH   4   6
ENDBRANCH   2   4
ENDBRANCH   1   2
BRANCH   1  16
HETATM   16  C4  UNL     1      24.680   0.293  52.689  1.00  0.00    -0.010 C 
HETATM   17  C5  UNL     1      25.864   0.839  52.771  1.00  0.00    -0.023 C 
HETATM   18  C6  UNL     1      27.126   0.123  53.019  1.00  0.00    -0.001 A 
HETATM   19  C12 UNL     1      26.142   2.306  52.625  1.00  0.00     0.138 C 
HETATM   20  C7  UNL     1      27.496  -1.213  52.969  1.00  0.00     0.014 A 
HETATM   21  C11 UNL     1      28.033   1.114  53.359  1.00  0.00     0.039 A 
HETATM   22  C8  UNL     1      28.801  -1.544  53.271  1.00  0.00     0.001 A 
HETATM   23  C9  UNL     1      29.704  -0.548  53.611  1.00  0.00     0.002 A 
HETATM   24  C10 UNL     1      29.349   0.788  53.664  1.00  0.00     0.030 A 
HETATM   25  N1  UNL     1      27.410   2.396  53.338  1.00  0.00    -0.377 N 
HETATM   26  H10 UNL     1      27.724   3.310  53.735  1.00  0.00     0.160 HD
BRANCH  19  27
HETATM   27  P1  UNL     1      26.337   2.751  50.843  1.00  0.00    -0.112 P 
HETATM   28  H12 UNL     1      26.027   1.613  50.018  1.00  0.00     0.057 HD
HETATM   29  H13 UNL     1      27.680   3.188  50.508  1.00  0.00     0.057 HD
ENDBRANCH  19  27
ENDBRANCH   1  16
TORSDOF 9
ENDMDL
MODEL 5
REMARK VINA RESULT:      -7.0      5.227      7.424
REMARK  9 active torsions:
REMARK  status: ('A' for Active; 'I' for Inactive)
REMARK    1  A    between atoms: C2_2  and  C3_3 
REMARK    2  A    between atoms: C2_2  and  N2_15 
REMARK    3  A    between atoms: C3_3  and  C4_4 
REMARK    4  A    between atoms: C12_13  and  P1_14 
REMARK    5  A    between atoms: N2_15  and  C13_16 
REMARK    6  A    between atoms: C13_16  and  C18_23 
REMARK    7  A    between atoms: C14_17  and  C15_18 
REMARK    8  A    between atoms: C15_18  and  C16_19 
REMARK    9  A    between atoms: C16_19  and  C17_20 
ROOT
HETATM    1  C3  UNL     1      23.672   0.867  53.125  1.00  0.00     0.084 C 
ENDROOT
BRANCH   1   2
HETATM    2  C2  UNL     1      22.608  -0.161  53.401  1.00  0.00     0.003 C 
HETATM    3  C1  UNL     1      22.243  -0.770  54.522  1.00  0.00     0.038 C 
BRANCH   2   4
HETATM    4  N2  UNL     1      21.824  -0.587  52.275  1.00  0.00    -0.364 N 
HETATM    5  H14 UNL     1      21.987  -1.611  52.175  1.00  0.00     0.165 HD
BRANCH   4   6
HETATM    6  C13 UNL     1      21.023   0.321  51.529  1.00  0.00     0.005 C 
HETATM    7  C14 UNL     1      19.717   0.458  51.696  1.00  0.00    -0.002 C 
BRANCH   7   8
HETATM    8  C15 UNL     1      19.029  -0.369  52.713  1.00  0.00     0.036 C 
BRANCH   8   9
HETATM    9  C16 UNL     1      17.601  -0.672  52.329  1.00  0.00     0.074 C 
BRANCH   9  10
HETATM   10  C17 UNL     1      17.146  -1.907  52.988  1.00  0.00     0.117 A 
HETATM   11  O1  UNL     1      17.797  -2.572  53.861  1.00  0.00    -0.194 OA
HETATM   12  O2  UNL     1      16.491  -3.035  53.450  1.00  0.00     0.000 OA
HETATM   13  H20 UNL     1      15.561  -3.271  53.097  1.00  0.00     0.000 HD
ENDBRANCH   9  10
ENDBRANCH   8   9
ENDBRANCH   7   8
BRANCH   6  14
HETATM   14  C18 UNL     1      21.786   1.114  50.529  1.00  0.00     0.052 C 
HETATM   15  C19 UNL     1      21.235   0.935  49.136  1.00  0.00     0.011 C 
ENDBRANCH   6  14
ENDBRANCH   4   6
ENDBRANCH   2   4
ENDBRANCH   1   2
BRANCH   1  16
HETATM   16  C4  UNL     1      24.966   0.164  53.220  1.00  0.00    -0.010 C 
HETATM   17  C5  UNL     1      26.146   0.722  53.179  1.00  0.00    -0.023 C 
HETATM   18  C6  UNL     1      27.435   0.017  53.275  1.00  0.00    -0.001 A 
HETATM   19  C12 UNL     1      26.392   2.193  53.026  1.00  0.00     0.138 C 
HETATM   20  C7  UNL     1      27.809  -1.315  53.164  1.00  0.00     0.014 A 
HETATM   21  C11 UNL     1      28.364   1.012  53.528  1.00  0.00     0.039 A 
HETATM   22  C8  UNL     1      29.143  -1.635  53.315  1.00  0.00     0.001 A 
HETATM   23  C9  UNL     1      30.069  -0.634  53.568  1.00  0.00     0.002 A 
HETATM   24  C10 UNL     1      29.708   0.697  53.680  1.00  0.00     0.030 A 
HETATM   25  N1  UNL     1      27.730   2.288  53.595  1.00  0.00    -0.377 N 
HETATM   26  H10 UNL     1      28.077   3.200  53.970  1.00  0.00     0.160 HD
BRANCH  19  27
HETATM   27  P1  UNL     1      26.384   2.666  51.240  1.00  0.00    -0.112 P 
HETATM   28  H12 UNL     1      26.310   4.098  51.114  1.00  0.00     0.057 HD
HETATM   29  H13 UNL     1      25.268   2.100  50.506  1.00  0.00     0.057 HD
ENDBRANCH  19  27
ENDBRANCH   1  16
TORSDOF 9
ENDMDL
MODEL 6
REMARK VINA RESULT:      -6.9      3.157      6.950
REMARK  9 active torsions:
REMARK  status: ('A' for Active; 'I' for Inactive)
REMARK    1  A    between atoms: C2_2  and  C3_3 
REMARK    2  A    between atoms: C2_2  and  N2_15 
REMARK    3  A    between atoms: C3_3  and  C4_4 
REMARK    4  A    between atoms: C12_13  and  P1_14 
REMARK    5  A    between atoms: N2_15  and  C13_16 
REMARK    6  A    between atoms: C13_16  and  C18_23 
REMARK    7  A    between atoms: C14_17  and  C15_18 
REMARK    8  A    between atoms: C15_18  and  C16_19 
REMARK    9  A    between atoms: C16_19  and  C17_20 
ROOT
HETATM    1  C3  UNL     1      23.286   2.430  52.794  1.00  0.00     0.084 C 
ENDROOT
BRANCH   1   2
HETATM    2  C2  UNL     1      23.413   3.849  52.309  1.00  0.00     0.003 C 
HETATM    3  C1  UNL     1      22.566   4.870  52.344  1.00  0.00     0.038 C 
BRANCH   2   4
HETATM    4  N2  UNL     1      24.660   4.203  51.688  1.00  0.00    -0.364 N 
HETATM    5  H14 UNL     1      25.077   4.955  52.277  1.00  0.00     0.165 HD
BRANCH   4   6
HETATM    6  C13 UNL     1      25.117   3.568  50.501  1.00  0.00     0.005 C 
HETATM    7  C14 UNL     1      26.150   2.742  50.460  1.00  0.00    -0.002 C 
BRANCH   7   8
HETATM    8  C15 UNL     1      26.887   2.446  51.709  1.00  0.00     0.036 C 
BRANCH   8   9
HETATM    9  C16 UNL     1      26.637   1.039  52.198  1.00  0.00     0.074 C 
BRANCH   9  10
HETATM   10  C17 UNL     1      26.673   0.996  53.668  1.00  0.00     0.117 A 
HETATM   11  O1  UNL     1      26.509   1.990  54.450  1.00  0.00    -0.194 OA
HETATM   12  O2  UNL     1      26.756   0.683  55.015  1.00  0.00     0.000 OA
HETATM   13  H20 UNL     1      26.929  -0.280  55.309  1.00  0.00     0.000 HD
ENDBRANCH   9  10
ENDBRANCH   8   9
ENDBRANCH   7   8
BRANCH   6  14
HETATM   14  C18 UNL     1      24.326   3.916  49.291  1.00  0.00     0.052 C 
HETATM   15  C19 UNL     1      23.350   2.823  48.929  1.00  0.00     0.011 C 
ENDBRANCH   6  14
ENDBRANCH   4   6
ENDBRANCH   2   4
ENDBRANCH   1   2
BRANCH   1  16
HETATM   16  C4  UNL     1      22.003   1.924  52.270  1.00  0.00    -0.010 C 
HETATM   17  C5  UNL     1      21.289   0.962  52.791  1.00  0.00    -0.023 C 
HETATM   18  C6  UNL     1      20.009   0.459  52.265  1.00  0.00    -0.001 A 
HETATM   19  C12 UNL     1      21.656   0.197  54.028  1.00  0.00     0.138 C 
HETATM   20  C7  UNL     1      19.348   0.603  51.054  1.00  0.00     0.014 A 
HETATM   21  C11 UNL     1      19.472  -0.289  53.300  1.00  0.00     0.039 A 
HETATM   22  C8  UNL     1      18.128  -0.022  50.896  1.00  0.00     0.001 A 
HETATM   23  C9  UNL     1      17.595  -0.770  51.935  1.00  0.00     0.002 A 
HETATM   24  C10 UNL     1      18.244  -0.920  53.147  1.00  0.00     0.030 A 
HETATM   25  N1  UNL     1      20.339  -0.279  54.432  1.00  0.00    -0.377 N 
HETATM   26  H10 UNL     1      20.162  -0.548  55.426  1.00  0.00     0.160 HD
BRANCH  19  27
HETATM   27  P1  UNL     1      22.781  -1.206  53.608  1.00  0.00    -0.112 P 
HETATM   28  H12 UNL     1      22.970  -1.272  52.182  1.00  0.00     0.057 HD
HETATM   29  H13 UNL     1      22.276  -2.494  54.046  1.00  0.00     0.057 HD
ENDBRANCH  19  27
ENDBRANCH   1  16
TORSDOF 9
ENDMDL
MODEL 7
REMARK VINA RESULT:      -6.7      3.241      6.647
REMARK  9 active torsions:
REMARK  status: ('A' for Active; 'I' for Inactive)
REMARK    1  A    between atoms: C2_2  and  C3_3 
REMARK    2  A    between atoms: C2_2  and  N2_15 
REMARK    3  A    between atoms: C3_3  and  C4_4 
REMARK    4  A    between atoms: C12_13  and  P1_14 
REMARK    5  A    between atoms: N2_15  and  C13_16 
REMARK    6  A    between atoms: C13_16  and  C18_23 
REMARK    7  A    between atoms: C14_17  and  C15_18 
REMARK    8  A    between atoms: C15_18  and  C16_19 
REMARK    9  A    between atoms: C16_19  and  C17_20 
ROOT
HETATM    1  C3  UNL     1      23.776   2.728  52.436  1.00  0.00     0.084 C 
ENDROOT
BRANCH   1   2
HETATM    2  C2  UNL     1      23.694   4.139  51.922  1.00  0.00     0.003 C 
HETATM    3  C1  UNL     1      22.684   4.998  51.864  1.00  0.00     0.038 C 
BRANCH   2   4
HETATM    4  N2  UNL     1      24.906   4.696  51.386  1.00  0.00    -0.364 N 
HETATM    5  H14 UNL     1      25.442   5.067  52.199  1.00  0.00     0.165 HD
BRANCH   4   6
HETATM    6  C13 UNL     1      25.192   4.677  49.993  1.00  0.00     0.005 C 
HETATM    7  C14 UNL     1      25.467   5.760  49.284  1.00  0.00    -0.002 C 
BRANCH   7   8
HETATM    8  C15 UNL     1      25.485   7.078  49.957  1.00  0.00     0.036 C 
BRANCH   8   9
HETATM    9  C16 UNL     1      26.361   8.074  49.235  1.00  0.00     0.074 C 
BRANCH   9  10
HETATM   10  C17 UNL     1      27.008   8.977  50.200  1.00  0.00     0.117 A 
HETATM   11  O1  UNL     1      27.140  10.240  50.070  1.00  0.00    -0.194 OA
HETATM   12  O2  UNL     1      27.657   9.595  51.255  1.00  0.00     0.000 OA
HETATM   13  H20 UNL     1      27.980   9.043  52.054  1.00  0.00     0.000 HD
ENDBRANCH   9  10
ENDBRANCH   8   9
ENDBRANCH   7   8
BRANCH   6  14
HETATM   14  C18 UNL     1      25.155   3.318  49.392  1.00  0.00     0.052 C 
HETATM   15  C19 UNL     1      26.489   2.621  49.504  1.00  0.00     0.011 C 
ENDBRANCH   6  14
ENDBRANCH   4   6
ENDBRANCH   2   4
ENDBRANCH   1   2
BRANCH   1  16
HETATM   16  C4  UNL     1      25.179   2.512  52.840  1.00  0.00    -0.010 C 
HETATM   17  C5  UNL     1      25.777   1.355  52.943  1.00  0.00    -0.023 C 
HETATM   18  C6  UNL     1      27.177   1.144  53.346  1.00  0.00    -0.001 A 
HETATM   19  C12 UNL     1      25.132   0.030  52.665  1.00  0.00     0.138 C 
HETATM   20  C7  UNL     1      28.132   1.949  53.951  1.00  0.00     0.014 A 
HETATM   21  C11 UNL     1      27.455  -0.164  52.985  1.00  0.00     0.039 A 
HETATM   22  C8  UNL     1      29.382   1.415  54.190  1.00  0.00     0.001 A 
HETATM   23  C9  UNL     1      29.654   0.105  53.826  1.00  0.00     0.002 A 
HETATM   24  C10 UNL     1      28.711  -0.707  53.223  1.00  0.00     0.030 A 
HETATM   25  N1  UNL     1      26.315  -0.773  52.384  1.00  0.00    -0.377 N 
HETATM   26  H10 UNL     1      26.232  -1.648  51.818  1.00  0.00     0.160 HD
BRANCH  19  27
HETATM   27  P1  UNL     1      24.241  -0.580  54.163  1.00  0.00    -0.112 P 
HETATM   28  H12 UNL     1      23.728  -1.903  53.921  1.00  0.00     0.057 HD
HETATM   29  H13 UNL     1      23.124   0.264  54.546  1.00  0.00     0.057 HD
ENDBRANCH  19  27
ENDBRANCH   1  16
TORSDOF 9
ENDMDL
MODEL 8
REMARK VINA RESULT:      -6.7      2.655      3.732
REMARK  9 active torsions:
REMARK  status: ('A' for Active; 'I' for Inactive)
REMARK    1  A    between atoms: C2_2  and  C3_3 
REMARK    2  A    between atoms: C2_2  and  N2_15 
REMARK    3  A    between atoms: C3_3  and  C4_4 
REMARK    4  A    between atoms: C12_13  and  P1_14 
REMARK    5  A    between atoms: N2_15  and  C13_16 
REMARK    6  A    between atoms: C13_16  and  C18_23 
REMARK    7  A    between atoms: C14_17  and  C15_18 
REMARK    8  A    between atoms: C15_18  and  C16_19 
REMARK    9  A    between atoms: C16_19  and  C17_20 
ROOT
HETATM    1  C3  UNL     1      23.553   2.617  50.956  1.00  0.00     0.084 C 
ENDROOT
BRANCH   1   2
HETATM    2  C2  UNL     1      23.884   2.249  52.376  1.00  0.00     0.003 C 
HETATM    3  C1  UNL     1      24.489   2.929  53.343  1.00  0.00     0.038 C 
BRANCH   2   4
HETATM    4  N2  UNL     1      23.495   0.934  52.805  1.00  0.00    -0.364 N 
HETATM    5  H14 UNL     1      22.462   0.881  52.685  1.00  0.00     0.165 HD
BRANCH   4   6
HETATM    6  C13 UNL     1      24.443  -0.014  53.279  1.00  0.00     0.005 C 
HETATM    7  C14 UNL     1      24.222  -0.828  54.298  1.00  0.00    -0.002 C 
BRANCH   7   8
HETATM    8  C15 UNL     1      22.921  -0.767  55.001  1.00  0.00     0.036 C 
BRANCH   8   9
HETATM    9  C16 UNL     1      21.920  -1.745  54.433  1.00  0.00     0.074 C 
BRANCH   9  10
HETATM   10  C17 UNL     1      20.684  -1.046  54.051  1.00  0.00     0.117 A 
HETATM   11  O1  UNL     1      20.604   0.154  53.624  1.00  0.00    -0.194 OA
HETATM   12  O2  UNL     1      19.396  -0.627  53.761  1.00  0.00     0.000 OA
HETATM   13  H20 UNL     1      18.607  -1.265  53.889  1.00  0.00     0.000 HD
ENDBRANCH   9  10
ENDBRANCH   8   9
ENDBRANCH   7   8
BRANCH   6  14
HETATM   14  C18 UNL     1      25.722  -0.014  52.521  1.00  0.00     0.052 C 
HETATM   15  C19 UNL     1      26.495  -1.293  52.729  1.00  0.00     0.011 C 
ENDBRANCH   6  14
ENDBRANCH   4   6
ENDBRANCH   2   4
ENDBRANCH   1   2
BRANCH   1  16
HETATM   16  C4  UNL     1      24.776   3.211  50.383  1.00  0.00    -0.010 C 
HETATM   17  C5  UNL     1      24.861   4.379  49.803  1.00  0.00    -0.023 C 
HETATM   18  C6  UNL     1      26.083   4.968  49.233  1.00  0.00    -0.001 A 
HETATM   19  C12 UNL     1      23.715   5.328  49.619  1.00  0.00     0.138 C 
HETATM   20  C7  UNL     1      27.327   4.455  48.894  1.00  0.00     0.014 A 
HETATM   21  C11 UNL     1      25.778   6.308  49.052  1.00  0.00     0.039 A 
HETATM   22  C8  UNL     1      28.269   5.315  48.367  1.00  0.00     0.001 A 
HETATM   23  C9  UNL     1      27.958   6.655  48.189  1.00  0.00     0.002 A 
HETATM   24  C10 UNL     1      26.722   7.178  48.522  1.00  0.00     0.030 A 
HETATM   25  N1  UNL     1      24.444   6.582  49.476  1.00  0.00    -0.377 N 
HETATM   26  H10 UNL     1      23.970   7.491  49.678  1.00  0.00     0.160 HD
BRANCH  19  27
HETATM   27  P1  UNL     1      22.776   4.916  48.083  1.00  0.00    -0.112 P 
HETATM   28  H12 UNL     1      23.636   5.041  46.936  1.00  0.00     0.057 HD
HETATM   29  H13 UNL     1      21.626   5.775  47.868  1.00  0.00     0.057 HD
ENDBRANCH  19  27
ENDBRANCH   1  16
TORSDOF 9
ENDMDL
MODEL 9
REMARK VINA RESULT:      -6.7      3.006      7.376
REMARK  9 active torsions:
REMARK  status: ('A' for Active; 'I' for Inactive)
REMARK    1  A    between atoms: C2_2  and  C3_3 
REMARK    2  A    between atoms: C2_2  and  N2_15 
REMARK    3  A    between atoms: C3_3  and  C4_4 
REMARK    4  A    between atoms: C12_13  and  P1_14 
REMARK    5  A    between atoms: N2_15  and  C13_16 
REMARK    6  A    between atoms: C13_16  and  C18_23 
REMARK    7  A    between atoms: C14_17  and  C15_18 
REMARK    8  A    between atoms: C15_18  and  C16_19 
REMARK    9  A    between atoms: C16_19  and  C17_20 
ROOT
HETATM    1  C3  UNL     1      26.409   2.285  52.017  1.00  0.00     0.084 C 
ENDROOT
BRANCH   1   2
HETATM    2  C2  UNL     1      26.204   3.110  50.776  1.00  0.00     0.003 C 
HETATM    3  C1  UNL     1      26.624   2.942  49.528  1.00  0.00     0.038 C 
BRANCH   2   4
HETATM    4  N2  UNL     1      25.417   4.304  50.923  1.00  0.00    -0.364 N 
HETATM    5  H14 UNL     1      25.668   4.707  51.851  1.00  0.00     0.165 HD
BRANCH   4   6
HETATM    6  C13 UNL     1      24.510   4.736  49.917  1.00  0.00     0.005 C 
HETATM    7  C14 UNL     1      24.697   5.814  49.173  1.00  0.00    -0.002 C 
BRANCH   7   8
HETATM    8  C15 UNL     1      25.913   6.632  49.381  1.00  0.00     0.036 C 
BRANCH   8   9
HETATM    9  C16 UNL     1      26.798   6.658  48.157  1.00  0.00     0.074 C 
BRANCH   9  10
HETATM   10  C17 UNL     1      28.107   6.060  48.461  1.00  0.00     0.117 A 
HETATM   11  O1  UNL     1      29.193   6.274  47.827  1.00  0.00    -0.194 OA
HETATM   12  O2  UNL     1      29.201   5.368  48.953  1.00  0.00     0.000 OA
HETATM   13  H20 UNL     1      29.098   4.753  49.763  1.00  0.00     0.000 HD
ENDBRANCH   9  10
ENDBRANCH   8   9
ENDBRANCH   7   8
BRANCH   6  14
HETATM   14  C18 UNL     1      23.316   3.863  49.770  1.00  0.00     0.052 C 
HETATM   15  C19 UNL     1      22.080   4.660  49.430  1.00  0.00     0.011 C 
ENDBRANCH   6  14
ENDBRANCH   4   6
ENDBRANCH   2   4
ENDBRANCH   1   2
BRANCH   1  16
HETATM   16  C4  UNL     1      25.100   1.683  52.338  1.00  0.00    -0.010 C 
HETATM   17  C5  UNL     1      24.903   0.638  53.096  1.00  0.00    -0.023 C 
HETATM   18  C6  UNL     1      23.596   0.041  53.414  1.00  0.00    -0.001 A 
HETATM   19  C12 UNL     1      25.988  -0.141  53.779  1.00  0.00     0.138 C 
HETATM   20  C7  UNL     1      22.325   0.172  52.873  1.00  0.00     0.014 A 
HETATM   21  C11 UNL     1      23.842  -0.797  54.490  1.00  0.00     0.039 A 
HETATM   22  C8  UNL     1      21.296  -0.557  53.434  1.00  0.00     0.001 A 
HETATM   23  C9  UNL     1      21.549  -1.394  54.510  1.00  0.00     0.002 A 
HETATM   24  C10 UNL     1      22.811  -1.534  55.059  1.00  0.00     0.030 A 
HETATM   25  N1  UNL     1      25.220  -0.754  54.855  1.00  0.00    -0.377 N 
HETATM   26  H10 UNL     1      25.703  -1.080  55.723  1.00  0.00     0.160 HD
BRANCH  19  27
HETATM   27  P1  UNL     1      26.685  -1.414  52.637  1.00  0.00    -0.112 P 
HETATM   28  H12 UNL     1      25.821  -2.565  52.603  1.00  0.00     0.057 HD
HETATM   29  H13 UNL     1      28.008  -1.866  53.026  1.00  0.00     0.057 HD
ENDBRANCH  19  27
ENDBRANCH   1  16
TORSDOF 9
ENDMDL
