MODEL 1
REMARK VINA RESULT:      -7.9      0.000      0.000
REMARK  2 active torsions:
REMARK  status: ('A' for Active; 'I' for Inactive)
REMARK    1  A    between atoms: C3_4  and  C4_5 
REMARK    2  A    between atoms: C4_5  and  C5_6 
ROOT
HETATM    1  C1  UNL     1      21.284   0.749  51.051  1.00  0.00    -0.010 C 
HETATM    2  C2  UNL     1      20.672   1.806  51.571  1.00  0.00     0.129 C 
HETATM    3  N1  UNL     1      21.465   2.964  51.804  1.00  0.00    -0.264 NA
HETATM    4  C3  UNL     1      22.658   3.107  52.367  1.00  0.00     0.046 C 
HETATM    5  C9  UNL     1      23.431   1.912  52.876  1.00  0.00    -0.025 C 
HETATM    6  C10 UNL     1      24.523   2.631  52.944  1.00  0.00     0.013 C 
HETATM    7  C11 UNL     1      25.900   2.403  53.333  1.00  0.00     0.040 C 
HETATM    8  C12 UNL     1      26.512   1.332  53.862  1.00  0.00     0.104 C 
HETATM    9  O1  UNL     1      27.844   1.377  54.141  1.00  0.00    -0.323 OA
HETATM   10  C13 UNL     1      28.149   0.255  54.952  1.00  0.00     0.352 C 
HETATM   11  O2  UNL     1      27.113  -0.686  54.736  1.00  0.00    -0.323 OA
HETATM   12  C14 UNL     1      26.038  -0.011  54.250  1.00  0.00     0.101 C 
HETATM   13  C15 UNL     1      24.817  -0.501  54.161  1.00  0.00     0.014 C 
HETATM   14  C16 UNL     1      23.398  -0.457  53.831  1.00  0.00     0.043 C 
HETATM   15  C17 UNL     1      22.807   0.620  53.077  1.00  0.00     0.047 C 
HETATM   16  C18 UNL     1      22.293   0.198  51.712  1.00  0.00    -0.003 C 
ENDROOT
BRANCH   4  17
HETATM   17  C4  UNL     1      23.228   4.445  52.466  1.00  0.00     0.105 C 
BRANCH  17  18
HETATM   18  C5  UNL     1      23.107   4.903  50.865  1.00  0.00    -0.012 A 
HETATM   19  C6  UNL     1      23.748   4.378  49.822  1.00  0.00     0.015 A 
HETATM   20  C7  UNL     1      23.429   4.955  48.633  1.00  0.00     0.008 A 
HETATM   21  C8  UNL     1      22.522   5.992  48.519  1.00  0.00     0.050 A 
HETATM   22  S1  UNL     1      22.023   6.215  50.336  1.00  0.00    -0.106 SA
ENDBRANCH  17  18
ENDBRANCH   4  17
TORSDOF 2
ENDMDL
MODEL 2
REMARK VINA RESULT:      -7.8      2.306      3.128
REMARK  2 active torsions:
REMARK  status: ('A' for Active; 'I' for Inactive)
REMARK    1  A    between atoms: C3_4  and  C4_5 
REMARK    2  A    between atoms: C4_5  and  C5_6 
ROOT
HETATM    1  C1  UNL     1      21.554   1.380  48.546  1.00  0.00    -0.010 C 
HETATM    2  C2  UNL     1      21.959   2.644  48.569  1.00  0.00     0.129 C 
HETATM    3  N1  UNL     1      23.225   2.909  49.161  1.00  0.00    -0.264 NA
HETATM    4  C3  UNL     1      23.762   2.490  50.300  1.00  0.00     0.046 C 
HETATM    5  C9  UNL     1      23.015   1.547  51.216  1.00  0.00    -0.025 C 
HETATM    6  C10 UNL     1      24.120   1.282  51.866  1.00  0.00     0.013 C 
HETATM    7  C11 UNL     1      24.497   0.444  52.986  1.00  0.00     0.040 C 
HETATM    8  C12 UNL     1      23.767  -0.313  53.820  1.00  0.00     0.104 C 
HETATM    9  O1  UNL     1      24.377  -1.019  54.812  1.00  0.00    -0.323 OA
HETATM   10  C13 UNL     1      23.368  -1.465  55.702  1.00  0.00     0.352 C 
HETATM   11  O2  UNL     1      22.153  -1.437  54.974  1.00  0.00    -0.323 OA
HETATM   12  C14 UNL     1      22.320  -0.586  53.928  1.00  0.00     0.101 C 
HETATM   13  C15 UNL     1      21.345  -0.115  53.175  1.00  0.00     0.014 C 
HETATM   14  C16 UNL     1      20.779   0.674  52.088  1.00  0.00     0.043 C 
HETATM   15  C17 UNL     1      21.592   1.309  51.082  1.00  0.00     0.047 C 
HETATM   16  C18 UNL     1      21.405   0.729  49.692  1.00  0.00    -0.003 C 
ENDROOT
BRANCH   4  17
HETATM   17  C4  UNL     1      25.105   2.937  50.647  1.00  0.00     0.105 C 
BRANCH  17  18
HETATM   18  C5  UNL     1      24.841   4.587  50.650  1.00  0.00    -0.012 A 
HETATM   19  C6  UNL     1      25.458   5.506  49.909  1.00  0.00     0.015 A 
HETATM   20  C7  UNL     1      25.014   6.773  50.123  1.00  0.00     0.008 A 
HETATM   21  C8  UNL     1      24.013   7.077  51.027  1.00  0.00     0.050 A 
HETATM   22  S1  UNL     1      23.613   5.346  51.695  1.00  0.00    -0.106 SA
ENDBRANCH  17  18
ENDBRANCH   4  17
TORSDOF 2
ENDMDL
MODEL 3
REMARK VINA RESULT:      -7.7      3.689      6.320
REMARK  2 active torsions:
REMARK  status: ('A' for Active; 'I' for Inactive)
REMARK    1  A    between atoms: C3_4  and  C4_5 
REMARK    2  A    between atoms: C4_5  and  C5_6 
ROOT
HETATM    1  C1  UNL     1      23.174  -1.266  55.564  1.00  0.00    -0.010 C 
HETATM    2  C2  UNL     1      24.433  -1.597  55.301  1.00  0.00     0.129 C 
HETATM    3  N1  UNL     1      25.305  -0.552  54.889  1.00  0.00    -0.264 NA
HETATM    4  C3  UNL     1      25.147   0.418  53.998  1.00  0.00     0.046 C 
HETATM    5  C9  UNL     1      23.855   0.569  53.227  1.00  0.00    -0.025 C 
HETATM    6  C10 UNL     1      24.198   1.779  52.862  1.00  0.00     0.013 C 
HETATM    7  C11 UNL     1      23.609   2.836  52.065  1.00  0.00     0.040 C 
HETATM    8  C12 UNL     1      22.487   2.878  51.330  1.00  0.00     0.104 C 
HETATM    9  O1  UNL     1      22.152   4.017  50.662  1.00  0.00    -0.323 OA
HETATM   10  C13 UNL     1      21.119   3.689  49.749  1.00  0.00     0.352 C 
HETATM   11  O2  UNL     1      20.528   2.494  50.227  1.00  0.00    -0.323 OA
HETATM   12  C14 UNL     1      21.429   1.888  51.045  1.00  0.00     0.101 C 
HETATM   13  C15 UNL     1      21.338   0.646  51.479  1.00  0.00     0.014 C 
HETATM   14  C16 UNL     1      21.776  -0.527  52.225  1.00  0.00     0.043 C 
HETATM   15  C17 UNL     1      22.866  -0.488  53.168  1.00  0.00     0.047 C 
HETATM   16  C18 UNL     1      22.435  -0.724  54.605  1.00  0.00    -0.003 C 
ENDROOT
BRANCH   4  17
HETATM   17  C4  UNL     1      26.238   1.361  53.788  1.00  0.00     0.105 C 
BRANCH  17  18
HETATM   18  C5  UNL     1      27.501   0.277  53.656  1.00  0.00    -0.012 A 
HETATM   19  C6  UNL     1      27.531  -0.848  52.944  1.00  0.00     0.015 A 
HETATM   20  C7  UNL     1      28.712  -1.517  53.021  1.00  0.00     0.008 A 
HETATM   21  C8  UNL     1      29.783  -1.069  53.771  1.00  0.00     0.050 A 
HETATM   22  S1  UNL     1      29.057   0.531  54.488  1.00  0.00    -0.106 SA
ENDBRANCH  17  18
ENDBRANCH   4  17
TORSDOF 2
ENDMDL
MODEL 4
REMARK VINA RESULT:      -7.6      2.971      4.594
REMARK  2 active torsions:
REMARK  status: ('A' for Active; 'I' for Inactive)
REMARK    1  A    between atoms: C3_4  and  C4_5 
REMARK    2  A    between atoms: C4_5  and  C5_6 
ROOT
HETATM    1  C1  UNL     1      26.758   2.264  53.455  1.00  0.00    -0.010 C 
HETATM    2  C2  UNL     1      27.157   2.246  52.189  1.00  0.00     0.129 C 
HETATM    3  N1  UNL     1      26.220   2.675  51.208  1.00  0.00    -0.264 NA
HETATM    4  C3  UNL     1      24.939   2.377  51.033  1.00  0.00     0.046 C 
HETATM    5  C9  UNL     1      24.217   1.447  51.982  1.00  0.00    -0.025 C 
HETATM    6  C10 UNL     1      23.061   1.843  51.511  1.00  0.00     0.013 C 
HETATM    7  C11 UNL     1      21.668   1.541  51.772  1.00  0.00     0.040 C 
HETATM    8  C12 UNL     1      21.087   0.637  52.575  1.00  0.00     0.104 C 
HETATM    9  O1  UNL     1      19.729   0.555  52.640  1.00  0.00    -0.323 OA
HETATM   10  C13 UNL     1      19.405  -0.654  53.306  1.00  0.00     0.352 C 
HETATM   11  O2  UNL     1      20.555  -1.021  54.048  1.00  0.00    -0.323 OA
HETATM   12  C14 UNL     1      21.622  -0.389  53.491  1.00  0.00     0.101 C 
HETATM   13  C15 UNL     1      22.884  -0.672  53.750  1.00  0.00     0.014 C 
HETATM   14  C16 UNL     1      24.327  -0.513  53.616  1.00  0.00     0.043 C 
HETATM   15  C17 UNL     1      24.926   0.593  52.912  1.00  0.00     0.047 C 
HETATM   16  C18 UNL     1      25.710   1.532  53.812  1.00  0.00    -0.003 C 
ENDROOT
BRANCH   4  17
HETATM   17  C4  UNL     1      24.225   2.984  49.917  1.00  0.00     0.105 C 
BRANCH  17  18
HETATM   18  C5  UNL     1      24.541   4.591  50.245  1.00  0.00    -0.012 A 
HETATM   19  C6  UNL     1      23.966   5.356  51.170  1.00  0.00     0.015 A 
HETATM   20  C7  UNL     1      24.447   6.628  51.209  1.00  0.00     0.008 A 
HETATM   21  C8  UNL     1      25.442   7.081  50.364  1.00  0.00     0.050 A 
HETATM   22  S1  UNL     1      25.776   5.513  49.349  1.00  0.00    -0.106 SA
ENDBRANCH  17  18
ENDBRANCH   4  17
TORSDOF 2
ENDMDL
MODEL 5
REMARK VINA RESULT:      -7.6      2.588      3.865
REMARK  2 active torsions:
REMARK  status: ('A' for Active; 'I' for Inactive)
REMARK    1  A    between atoms: C3_4  and  C4_5 
REMARK    2  A    between atoms: C4_5  and  C5_6 
ROOT
HETATM    1  C1  UNL     1      22.500   2.619  47.528  1.00  0.00    -0.010 C 
HETATM    2  C2  UNL     1      22.353   3.903  47.834  1.00  0.00     0.129 C 
HETATM    3  N1  UNL     1      23.119   4.401  48.925  1.00  0.00    -0.264 NA
HETATM    4  C3  UNL     1      23.329   3.912  50.141  1.00  0.00     0.046 C 
HETATM    5  C9  UNL     1      22.726   2.594  50.568  1.00  0.00    -0.025 C 
HETATM    6  C10 UNL     1      23.536   2.541  51.595  1.00  0.00     0.013 C 
HETATM    7  C11 UNL     1      23.778   1.621  52.689  1.00  0.00     0.040 C 
HETATM    8  C12 UNL     1      23.147   0.498  53.066  1.00  0.00     0.104 C 
HETATM    9  O1  UNL     1      23.582  -0.196  54.153  1.00  0.00    -0.323 OA
HETATM   10  C13 UNL     1      22.575  -1.134  54.493  1.00  0.00     0.352 C 
HETATM   11  O2  UNL     1      21.789  -1.315  53.328  1.00  0.00    -0.323 OA
HETATM   12  C14 UNL     1      21.980  -0.231  52.530  1.00  0.00     0.101 C 
HETATM   13  C15 UNL     1      21.238   0.075  51.484  1.00  0.00     0.014 C 
HETATM   14  C16 UNL     1      20.843   0.883  50.336  1.00  0.00     0.043 C 
HETATM   15  C17 UNL     1      21.653   1.962  49.829  1.00  0.00     0.047 C 
HETATM   16  C18 UNL     1      22.212   1.701  48.441  1.00  0.00    -0.003 C 
ENDROOT
BRANCH   4  17
HETATM   17  C4  UNL     1      24.178   4.661  51.059  1.00  0.00     0.105 C 
BRANCH  17  18
HETATM   18  C5  UNL     1      25.502   4.888  50.067  1.00  0.00    -0.012 A 
HETATM   19  C6  UNL     1      26.353   3.963  49.627  1.00  0.00     0.015 A 
HETATM   20  C7  UNL     1      27.329   4.452  48.817  1.00  0.00     0.008 A 
HETATM   21  C8  UNL     1      27.427   5.790  48.481  1.00  0.00     0.050 A 
HETATM   22  S1  UNL     1      25.941   6.494  49.428  1.00  0.00    -0.106 SA
ENDBRANCH  17  18
ENDBRANCH   4  17
TORSDOF 2
ENDMDL
MODEL 6
REMARK VINA RESULT:      -7.6      1.691      2.019
REMARK  2 active torsions:
REMARK  status: ('A' for Active; 'I' for Inactive)
REMARK    1  A    between atoms: C3_4  and  C4_5 
REMARK    2  A    between atoms: C4_5  and  C5_6 
ROOT
HETATM    1  C1  UNL     1      21.609   1.412  49.899  1.00  0.00    -0.010 C 
HETATM    2  C2  UNL     1      21.588   2.735  49.785  1.00  0.00     0.129 C 
HETATM    3  N1  UNL     1      22.830   3.384  49.539  1.00  0.00    -0.264 NA
HETATM    4  C3  UNL     1      24.020   3.235  50.106  1.00  0.00     0.046 C 
HETATM    5  C9  UNL     1      24.243   2.219  51.203  1.00  0.00    -0.025 C 
HETATM    6  C10 UNL     1      25.539   2.323  51.055  1.00  0.00     0.013 C 
HETATM    7  C11 UNL     1      26.711   1.728  51.665  1.00  0.00     0.040 C 
HETATM    8  C12 UNL     1      26.848   0.888  52.702  1.00  0.00     0.104 C 
HETATM    9  O1  UNL     1      28.086   0.469  53.082  1.00  0.00    -0.323 OA
HETATM   10  C13 UNL     1      27.958  -0.143  54.355  1.00  0.00     0.352 C 
HETATM   11  O2  UNL     1      26.597  -0.511  54.485  1.00  0.00    -0.323 OA
HETATM   12  C14 UNL     1      25.880   0.249  53.616  1.00  0.00     0.101 C 
HETATM   13  C15 UNL     1      24.567   0.367  53.623  1.00  0.00     0.014 C 
HETATM   14  C16 UNL     1      23.283   0.867  53.146  1.00  0.00     0.043 C 
HETATM   15  C17 UNL     1      23.143   1.598  51.912  1.00  0.00     0.047 C 
HETATM   16  C18 UNL     1      22.343   0.858  50.855  1.00  0.00    -0.003 C 
ENDROOT
BRANCH   4  17
HETATM   17  C4  UNL     1      25.127   4.056  49.633  1.00  0.00     0.105 C 
BRANCH  17  18
HETATM   18  C5  UNL     1      24.451   5.567  49.860  1.00  0.00    -0.012 A 
HETATM   19  C6  UNL     1      24.166   6.160  51.017  1.00  0.00     0.015 A 
HETATM   20  C7  UNL     1      23.633   7.404  50.881  1.00  0.00     0.008 A 
HETATM   21  C8  UNL     1      23.409   7.996  49.652  1.00  0.00     0.050 A 
HETATM   22  S1  UNL     1      24.029   6.629  48.492  1.00  0.00    -0.106 SA
ENDBRANCH  17  18
ENDBRANCH   4  17
TORSDOF 2
ENDMDL
MODEL 7
REMARK VINA RESULT:      -7.2      1.969      3.892
REMARK  2 active torsions:
REMARK  status: ('A' for Active; 'I' for Inactive)
REMARK    1  A    between atoms: C3_4  and  C4_5 
REMARK    2  A    between atoms: C4_5  and  C5_6 
ROOT
HETATM    1  C1  UNL     1      24.095   5.753  49.005  1.00  0.00    -0.010 C 
HETATM    2  C2  UNL     1      22.883   5.239  48.831  1.00  0.00     0.129 C 
HETATM    3  N1  UNL     1      22.197   4.791  49.994  1.00  0.00    -0.264 NA
HETATM    4  C3  UNL     1      22.602   4.048  51.016  1.00  0.00     0.046 C 
HETATM    5  C9  UNL     1      24.023   3.538  51.097  1.00  0.00    -0.025 C 
HETATM    6  C10 UNL     1      23.860   3.246  52.363  1.00  0.00     0.013 C 
HETATM    7  C11 UNL     1      24.677   2.680  53.418  1.00  0.00     0.040 C 
HETATM    8  C12 UNL     1      25.915   2.163  53.407  1.00  0.00     0.104 C 
HETATM    9  O1  UNL     1      26.466   1.688  54.558  1.00  0.00    -0.323 OA
HETATM   10  C13 UNL     1      27.618   0.942  54.205  1.00  0.00     0.352 C 
HETATM   11  O2  UNL     1      28.003   1.390  52.917  1.00  0.00    -0.323 OA
HETATM   12  C14 UNL     1      26.916   1.968  52.340  1.00  0.00     0.101 C 
HETATM   13  C15 UNL     1      26.817   2.279  51.063  1.00  0.00     0.014 C 
HETATM   14  C16 UNL     1      26.147   2.809  49.881  1.00  0.00     0.043 C 
HETATM   15  C17 UNL     1      24.909   3.544  49.952  1.00  0.00     0.047 C 
HETATM   16  C18 UNL     1      25.043   5.001  49.548  1.00  0.00    -0.003 C 
ENDROOT
BRANCH   4  17
HETATM   17  C4  UNL     1      21.655   3.749  52.083  1.00  0.00     0.105 C 
BRANCH  17  18
HETATM   18  C5  UNL     1      20.611   2.756  51.238  1.00  0.00    -0.012 A 
HETATM   19  C6  UNL     1      20.883   1.572  50.693  1.00  0.00     0.015 A 
HETATM   20  C7  UNL     1      19.818   0.991  50.079  1.00  0.00     0.008 A 
HETATM   21  C8  UNL     1      18.568   1.578  50.027  1.00  0.00     0.050 A 
HETATM   22  S1  UNL     1      18.902   3.189  50.972  1.00  0.00    -0.106 SA
ENDBRANCH  17  18
ENDBRANCH   4  17
TORSDOF 2
ENDMDL
MODEL 8
REMARK VINA RESULT:      -6.8      3.686      5.547
REMARK  2 active torsions:
REMARK  status: ('A' for Active; 'I' for Inactive)
REMARK    1  A    between atoms: C3_4  and  C4_5 
REMARK    2  A    between atoms: C4_5  and  C5_6 
ROOT
HETATM    1  C1  UNL     1      23.908   1.769  52.984  1.00  0.00    -0.010 C 
HETATM    2  C2  UNL     1      24.420   1.496  51.789  1.00  0.00     0.129 C 
HETATM    3  N1  UNL     1      23.567   1.670  50.664  1.00  0.00    -0.264 NA
HETATM    4  C3  UNL     1      22.313   1.293  50.451  1.00  0.00     0.046 C 
HETATM    5  C9  UNL     1      21.525   0.562  51.515  1.00  0.00    -0.025 C 
HETATM    6  C10 UNL     1      20.409   0.805  50.874  1.00  0.00     0.013 C 
HETATM    7  C11 UNL     1      19.004   0.514  51.077  1.00  0.00     0.040 C 
HETATM    8  C12 UNL     1      18.370  -0.219  52.005  1.00  0.00     0.104 C 
HETATM    9  O1  UNL     1      17.014  -0.336  51.971  1.00  0.00    -0.323 OA
HETATM   10  C13 UNL     1      16.653  -1.385  52.854  1.00  0.00     0.352 C 
HETATM   11  O2  UNL     1      17.738  -1.542  53.751  1.00  0.00    -0.323 OA
HETATM   12  C14 UNL     1      18.839  -1.005  53.163  1.00  0.00     0.101 C 
HETATM   13  C15 UNL     1      20.078  -1.179  53.581  1.00  0.00     0.014 C 
HETATM   14  C16 UNL     1      21.524  -0.999  53.537  1.00  0.00     0.043 C 
HETATM   15  C17 UNL     1      22.163  -0.047  52.664  1.00  0.00     0.047 C 
HETATM   16  C18 UNL     1      22.846   1.091  53.401  1.00  0.00    -0.003 C 
ENDROOT
BRANCH   4  17
HETATM   17  C4  UNL     1      21.690   1.621  49.175  1.00  0.00     0.105 C 
BRANCH  17  18
HETATM   18  C5  UNL     1      22.077   3.244  49.102  1.00  0.00    -0.012 A 
HETATM   19  C6  UNL     1      22.879   3.847  48.227  1.00  0.00     0.015 A 
HETATM   20  C7  UNL     1      22.986   5.190  48.413  1.00  0.00     0.008 A 
HETATM   21  C8  UNL     1      22.322   5.865  49.419  1.00  0.00     0.050 A 
HETATM   22  S1  UNL     1      21.398   4.430  50.248  1.00  0.00    -0.106 SA
ENDBRANCH  17  18
ENDBRANCH   4  17
TORSDOF 2
ENDMDL
MODEL 9
REMARK VINA RESULT:      -6.8      9.111     11.322
REMARK  2 active torsions:
REMARK  status: ('A' for Active; 'I' for Inactive)
REMARK    1  A    between atoms: C3_4  and  C4_5 
REMARK    2  A    between atoms: C4_5  and  C5_6 
ROOT
HETATM    1  C1  UNL     1      33.351   8.920  47.482  1.00  0.00    -0.010 C 
HETATM    2  C2  UNL     1      34.055   8.068  48.218  1.00  0.00     0.129 C 
HETATM    3  N1  UNL     1      33.633   6.710  48.219  1.00  0.00    -0.264 NA
HETATM    4  C3  UNL     1      32.429   6.170  48.356  1.00  0.00     0.046 C 
HETATM    5  C9  UNL     1      31.200   7.033  48.530  1.00  0.00    -0.025 C 
HETATM    6  C10 UNL     1      30.427   6.011  48.258  1.00  0.00     0.013 C 
HETATM    7  C11 UNL     1      29.001   5.777  48.155  1.00  0.00     0.040 C 
HETATM    8  C12 UNL     1      27.948   6.570  48.405  1.00  0.00     0.104 C 
HETATM    9  O1  UNL     1      26.682   6.100  48.225  1.00  0.00    -0.323 OA
HETATM   10  C13 UNL     1      25.794   7.016  48.842  1.00  0.00     0.352 C 
HETATM   11  O2  UNL     1      26.495   8.242  48.948  1.00  0.00    -0.323 OA
HETATM   12  C14 UNL     1      27.824   7.964  48.876  1.00  0.00     0.101 C 
HETATM   13  C15 UNL     1      28.788   8.809  49.180  1.00  0.00     0.014 C 
HETATM   14  C16 UNL     1      30.176   9.226  49.345  1.00  0.00     0.043 C 
HETATM   15  C17 UNL     1      31.286   8.436  48.876  1.00  0.00     0.047 C 
HETATM   16  C18 UNL     1      32.062   9.088  47.745  1.00  0.00    -0.003 C 
ENDROOT
BRANCH   4  17
HETATM   17  C4  UNL     1      32.304   4.718  48.313  1.00  0.00     0.105 C 
BRANCH  17  18
HETATM   18  C5  UNL     1      33.378   4.398  47.074  1.00  0.00    -0.012 A 
HETATM   19  C6  UNL     1      34.495   3.676  47.137  1.00  0.00     0.015 A 
HETATM   20  C7  UNL     1      35.156   3.581  45.953  1.00  0.00     0.008 A 
HETATM   21  C8  UNL     1      34.708   4.179  44.791  1.00  0.00     0.050 A 
HETATM   22  S1  UNL     1      33.121   5.009  45.419  1.00  0.00    -0.106 SA
ENDBRANCH  17  18
ENDBRANCH   4  17
TORSDOF 2
ENDMDL
