MODEL 1
REMARK VINA RESULT:      -9.0      0.000      0.000
REMARK  4 active torsions:
REMARK  status: ('A' for Active; 'I' for Inactive)
REMARK    1  A    between atoms: O1_2  and  C2_3 
REMARK    2  A    between atoms: C6_9  and  N3_10 
REMARK    3  A    between atoms: N3_10  and  C7_11 
REMARK    4  A    between atoms: C18_23  and  O2_24 
ROOT
HETATM    1  C2  UNL     1      21.018   0.569  51.873  1.00  0.00     0.103 A 
HETATM    2  C3  UNL     1      21.538   1.230  50.776  1.00  0.00     0.072 A 
HETATM    3  C4  UNL     1      22.728   1.916  50.818  1.00  0.00     0.075 A 
HETATM    4  N1  UNL     1      23.248   2.565  49.755  1.00  0.00    -0.241 NA
HETATM    5  C5  UNL     1      24.431   3.224  49.872  1.00  0.00     0.236 A 
HETATM    6  N2  UNL     1      25.166   3.285  51.020  1.00  0.00    -0.223 NA
HETATM    7  C6  UNL     1      24.659   2.642  52.087  1.00  0.00     0.143 A 
HETATM    8  C16 UNL     1      23.460   1.970  51.984  1.00  0.00     0.042 A 
HETATM    9  C17 UNL     1      22.934   1.312  53.065  1.00  0.00     0.057 A 
HETATM   10  C18 UNL     1      21.739   0.616  53.043  1.00  0.00     0.102 A 
ENDROOT
BRANCH   7  11
HETATM   11  N3  UNL     1      25.411   2.694  53.299  1.00  0.00    -0.325 N 
HETATM   12  H6  UNL     1      25.265   3.277  54.126  1.00  0.00     0.169 HD
BRANCH  11  13
HETATM   13  C7  UNL     1      26.540   1.814  53.405  1.00  0.00     0.129 A 
HETATM   14  C8  UNL     1      26.506   0.472  53.085  1.00  0.00     0.062 A 
HETATM   15  C9  UNL     1      27.592  -0.370  53.189  1.00  0.00    -0.021 A 
HETATM   16  C10 UNL     1      27.447  -1.696  52.842  1.00  0.00     0.012 A 
HETATM   17  C14 UNL     1      28.796   0.133  53.635  1.00  0.00    -0.008 A 
HETATM   18  C11 UNL     1      28.515  -2.567  52.933  1.00  0.00     0.001 A 
HETATM   19  C12 UNL     1      29.720  -2.055  53.383  1.00  0.00     0.001 A 
HETATM   20  C13 UNL     1      29.874  -0.726  53.733  1.00  0.00     0.014 A 
HETATM   21  C15 UNL     1      28.824   1.475  53.954  1.00  0.00     0.131 A 
HETATM   22  N4  UNL     1      27.736   2.254  53.835  1.00  0.00    -0.242 NA
ENDBRANCH  11  13
ENDBRANCH   7  11
BRANCH  10  23
HETATM   23  O2  UNL     1      21.244  -0.029  54.141  1.00  0.00    -0.353 OA
HETATM   24  C19 UNL     1      21.643  -1.318  54.559  1.00  0.00     0.210 C 
ENDBRANCH  10  23
BRANCH   1  25
HETATM   25  O1  UNL     1      19.831  -0.115  51.832  1.00  0.00    -0.353 OA
HETATM   26  C1  UNL     1      18.674   0.373  51.221  1.00  0.00     0.210 C 
ENDBRANCH   1  25
TORSDOF 4
ENDMDL
MODEL 2
REMARK VINA RESULT:      -8.7      2.034      3.435
REMARK  4 active torsions:
REMARK  status: ('A' for Active; 'I' for Inactive)
REMARK    1  A    between atoms: O1_2  and  C2_3 
REMARK    2  A    between atoms: C6_9  and  N3_10 
REMARK    3  A    between atoms: N3_10  and  C7_11 
REMARK    4  A    between atoms: C18_23  and  O2_24 
ROOT
HETATM    1  C2  UNL     1      18.905  -0.181  52.366  1.00  0.00     0.103 A 
HETATM    2  C3  UNL     1      19.418  -0.816  53.482  1.00  0.00     0.072 A 
HETATM    3  C4  UNL     1      20.756  -0.803  53.795  1.00  0.00     0.075 A 
HETATM    4  N1  UNL     1      21.271  -1.418  54.880  1.00  0.00    -0.241 NA
HETATM    5  C5  UNL     1      22.607  -1.361  55.125  1.00  0.00     0.236 A 
HETATM    6  N2  UNL     1      23.506  -0.708  54.333  1.00  0.00    -0.223 NA
HETATM    7  C6  UNL     1      23.006  -0.090  53.248  1.00  0.00     0.143 A 
HETATM    8  C16 UNL     1      21.654  -0.139  52.987  1.00  0.00     0.042 A 
HETATM    9  C17 UNL     1      21.133   0.487  51.883  1.00  0.00     0.057 A 
HETATM   10  C18 UNL     1      19.790   0.485  51.552  1.00  0.00     0.102 A 
ENDROOT
BRANCH   7  11
HETATM   11  N3  UNL     1      23.929   0.599  52.406  1.00  0.00    -0.325 N 
HETATM   12  H6  UNL     1      23.748   1.149  51.563  1.00  0.00     0.169 HD
BRANCH  11  13
HETATM   13  C7  UNL     1      25.316   0.532  52.765  1.00  0.00     0.129 A 
HETATM   14  C8  UNL     1      26.078  -0.615  52.690  1.00  0.00     0.062 A 
HETATM   15  C9  UNL     1      27.411  -0.677  53.036  1.00  0.00    -0.021 A 
HETATM   16  C10 UNL     1      28.079  -1.878  52.924  1.00  0.00     0.012 A 
HETATM   17  C14 UNL     1      28.045   0.463  53.485  1.00  0.00    -0.008 A 
HETATM   18  C11 UNL     1      29.415  -1.974  53.260  1.00  0.00     0.001 A 
HETATM   19  C12 UNL     1      30.043  -0.825  53.711  1.00  0.00     0.001 A 
HETATM   20  C13 UNL     1      29.382   0.383  53.827  1.00  0.00     0.014 A 
HETATM   21  C15 UNL     1      27.278   1.608  53.558  1.00  0.00     0.131 A 
HETATM   22  N4  UNL     1      25.981   1.614  53.208  1.00  0.00    -0.242 NA
ENDBRANCH  11  13
ENDBRANCH   7  11
BRANCH  10  23
HETATM   23  O2  UNL     1      19.307   1.120  50.443  1.00  0.00    -0.353 OA
HETATM   24  C19 UNL     1      20.091   1.495  49.330  1.00  0.00     0.210 C 
ENDBRANCH  10  23
BRANCH   1  25
HETATM   25  O1  UNL     1      17.571  -0.194  52.054  1.00  0.00    -0.353 OA
HETATM   26  C1  UNL     1      16.654  -1.092  52.604  1.00  0.00     0.210 C 
ENDBRANCH   1  25
TORSDOF 4
ENDMDL
MODEL 3
REMARK VINA RESULT:      -8.2      2.503      7.470
REMARK  4 active torsions:
REMARK  status: ('A' for Active; 'I' for Inactive)
REMARK    1  A    between atoms: O1_2  and  C2_3 
REMARK    2  A    between atoms: C6_9  and  N3_10 
REMARK    3  A    between atoms: N3_10  and  C7_11 
REMARK    4  A    between atoms: C18_23  and  O2_24 
ROOT
HETATM    1  C2  UNL     1      26.544   0.933  54.163  1.00  0.00     0.103 A 
HETATM    2  C3  UNL     1      26.011   2.205  54.077  1.00  0.00     0.072 A 
HETATM    3  C4  UNL     1      24.882   2.489  53.347  1.00  0.00     0.075 A 
HETATM    4  N1  UNL     1      24.350   3.726  53.254  1.00  0.00    -0.241 NA
HETATM    5  C5  UNL     1      23.230   3.932  52.512  1.00  0.00     0.236 A 
HETATM    6  N2  UNL     1      22.573   2.952  51.825  1.00  0.00    -0.223 NA
HETATM    7  C6  UNL     1      23.092   1.715  51.910  1.00  0.00     0.143 A 
HETATM    8  C16 UNL     1      24.227   1.491  52.659  1.00  0.00     0.042 A 
HETATM    9  C17 UNL     1      24.765   0.233  52.751  1.00  0.00     0.057 A 
HETATM   10  C18 UNL     1      25.900  -0.073  53.481  1.00  0.00     0.102 A 
ENDROOT
BRANCH   7  11
HETATM   11  N3  UNL     1      22.421   0.675  51.200  1.00  0.00    -0.325 N 
HETATM   12  H6  UNL     1      22.704   0.187  50.347  1.00  0.00     0.169 HD
BRANCH  11  13
HETATM   13  C7  UNL     1      21.166   0.226  51.731  1.00  0.00     0.129 A 
HETATM   14  C8  UNL     1      19.969   0.296  51.049  1.00  0.00     0.062 A 
HETATM   15  C9  UNL     1      18.766  -0.135  51.562  1.00  0.00    -0.021 A 
HETATM   16  C10 UNL     1      17.627  -0.018  50.793  1.00  0.00     0.012 A 
HETATM   17  C14 UNL     1      18.727  -0.675  52.831  1.00  0.00    -0.008 A 
HETATM   18  C11 UNL     1      16.405  -0.442  51.276  1.00  0.00     0.001 A 
HETATM   19  C12 UNL     1      16.375  -0.981  52.551  1.00  0.00     0.001 A 
HETATM   20  C13 UNL     1      17.512  -1.103  53.330  1.00  0.00     0.014 A 
HETATM   21  C15 UNL     1      19.927  -0.743  53.509  1.00  0.00     0.131 A 
HETATM   22  N4  UNL     1      21.075  -0.307  52.963  1.00  0.00    -0.242 NA
ENDBRANCH  11  13
ENDBRANCH   7  11
BRANCH  10  23
HETATM   23  O2  UNL     1      26.409  -1.339  53.551  1.00  0.00    -0.353 OA
HETATM   24  C19 UNL     1      26.879  -2.074  52.440  1.00  0.00     0.210 C 
ENDBRANCH  10  23
BRANCH   1  25
HETATM   25  O1  UNL     1      27.669   0.648  54.891  1.00  0.00    -0.353 OA
HETATM   26  C1  UNL     1      28.965   0.949  54.466  1.00  0.00     0.210 C 
ENDBRANCH   1  25
TORSDOF 4
ENDMDL
MODEL 4
REMARK VINA RESULT:      -8.0      2.732      4.103
REMARK  4 active torsions:
REMARK  status: ('A' for Active; 'I' for Inactive)
REMARK    1  A    between atoms: O1_2  and  C2_3 
REMARK    2  A    between atoms: C6_9  and  N3_10 
REMARK    3  A    between atoms: N3_10  and  C7_11 
REMARK    4  A    between atoms: C18_23  and  O2_24 
ROOT
HETATM    1  C2  UNL     1      23.624   4.578  48.988  1.00  0.00     0.103 A 
HETATM    2  C3  UNL     1      22.836   3.496  49.332  1.00  0.00     0.072 A 
HETATM    3  C4  UNL     1      23.039   2.763  50.477  1.00  0.00     0.075 A 
HETATM    4  N1  UNL     1      22.277   1.705  50.825  1.00  0.00    -0.241 NA
HETATM    5  C5  UNL     1      22.538   1.027  51.975  1.00  0.00     0.236 A 
HETATM    6  N2  UNL     1      23.546   1.342  52.839  1.00  0.00    -0.223 NA
HETATM    7  C6  UNL     1      24.312   2.395  52.505  1.00  0.00     0.143 A 
HETATM    8  C16 UNL     1      24.059   3.091  51.342  1.00  0.00     0.042 A 
HETATM    9  C17 UNL     1      24.835   4.166  50.991  1.00  0.00     0.057 A 
HETATM   10  C18 UNL     1      24.646   4.916  49.843  1.00  0.00     0.102 A 
ENDROOT
BRANCH   7  11
HETATM   11  N3  UNL     1      25.372   2.741  53.395  1.00  0.00    -0.325 N 
HETATM   12  H6  UNL     1      25.459   3.552  54.011  1.00  0.00     0.169 HD
BRANCH  11  13
HETATM   13  C7  UNL     1      26.491   1.845  53.458  1.00  0.00     0.129 A 
HETATM   14  C8  UNL     1      26.426   0.505  53.136  1.00  0.00     0.062 A 
HETATM   15  C9  UNL     1      27.503  -0.353  53.199  1.00  0.00    -0.021 A 
HETATM   16  C10 UNL     1      27.326  -1.676  52.854  1.00  0.00     0.012 A 
HETATM   17  C14 UNL     1      28.729   0.131  53.603  1.00  0.00    -0.008 A 
HETATM   18  C11 UNL     1      28.384  -2.563  52.904  1.00  0.00     0.001 A 
HETATM   19  C12 UNL     1      29.612  -2.069  53.312  1.00  0.00     0.001 A 
HETATM   20  C13 UNL     1      29.797  -0.744  53.660  1.00  0.00     0.014 A 
HETATM   21  C15 UNL     1      28.788   1.471  53.925  1.00  0.00     0.131 A 
HETATM   22  N4  UNL     1      27.708   2.267  53.847  1.00  0.00    -0.242 NA
ENDBRANCH  11  13
ENDBRANCH   7  11
BRANCH  10  23
HETATM   23  O2  UNL     1      25.439   5.982  49.524  1.00  0.00    -0.353 OA
HETATM   24  C19 UNL     1      26.736   5.878  48.973  1.00  0.00     0.210 C 
ENDBRANCH  10  23
BRANCH   1  25
HETATM   25  O1  UNL     1      23.423   5.309  47.847  1.00  0.00    -0.353 OA
HETATM   26  C1  UNL     1      22.194   5.868  47.490  1.00  0.00     0.210 C 
ENDBRANCH   1  25
TORSDOF 4
ENDMDL
MODEL 5
REMARK VINA RESULT:      -7.9      2.223      6.724
REMARK  4 active torsions:
REMARK  status: ('A' for Active; 'I' for Inactive)
REMARK    1  A    between atoms: O1_2  and  C2_3 
REMARK    2  A    between atoms: C6_9  and  N3_10 
REMARK    3  A    between atoms: N3_10  and  C7_11 
REMARK    4  A    between atoms: C18_23  and  O2_24 
ROOT
HETATM    1  C2  UNL     1      27.046  -0.406  53.196  1.00  0.00     0.103 A 
HETATM    2  C3  UNL     1      27.328   0.436  52.138  1.00  0.00     0.072 A 
HETATM    3  C4  UNL     1      26.493   1.461  51.761  1.00  0.00     0.075 A 
HETATM    4  N1  UNL     1      26.756   2.291  50.730  1.00  0.00    -0.241 NA
HETATM    5  C5  UNL     1      25.883   3.284  50.415  1.00  0.00     0.236 A 
HETATM    6  N2  UNL     1      24.716   3.519  51.082  1.00  0.00    -0.223 NA
HETATM    7  C6  UNL     1      24.442   2.700  52.112  1.00  0.00     0.143 A 
HETATM    8  C16 UNL     1      25.318   1.689  52.443  1.00  0.00     0.042 A 
HETATM    9  C17 UNL     1      25.049   0.847  53.491  1.00  0.00     0.057 A 
HETATM   10  C18 UNL     1      25.876  -0.190  53.885  1.00  0.00     0.102 A 
ENDROOT
BRANCH   7  11
HETATM   11  N3  UNL     1      23.227   2.928  52.824  1.00  0.00    -0.325 N 
HETATM   12  H6  UNL     1      23.066   3.481  53.669  1.00  0.00     0.169 HD
BRANCH  11  13
HETATM   13  C7  UNL     1      22.040   2.307  52.307  1.00  0.00     0.129 A 
HETATM   14  C8  UNL     1      21.347   1.307  52.957  1.00  0.00     0.062 A 
HETATM   15  C9  UNL     1      20.208   0.713  52.458  1.00  0.00    -0.021 A 
HETATM   16  C10 UNL     1      19.593  -0.280  53.191  1.00  0.00     0.012 A 
HETATM   17  C14 UNL     1      19.711   1.124  51.239  1.00  0.00    -0.008 A 
HETATM   18  C11 UNL     1      18.450  -0.896  52.721  1.00  0.00     0.001 A 
HETATM   19  C12 UNL     1      17.958  -0.477  51.496  1.00  0.00     0.001 A 
HETATM   20  C13 UNL     1      18.568   0.517  50.754  1.00  0.00     0.014 A 
HETATM   21  C15 UNL     1      20.409   2.124  50.593  1.00  0.00     0.131 A 
HETATM   22  N4  UNL     1      21.515   2.672  51.124  1.00  0.00    -0.242 NA
ENDBRANCH  11  13
ENDBRANCH   7  11
BRANCH  10  23
HETATM   23  O2  UNL     1      25.575  -1.010  54.935  1.00  0.00    -0.353 OA
HETATM   24  C19 UNL     1      24.267  -1.258  55.409  1.00  0.00     0.210 C 
ENDBRANCH  10  23
BRANCH   1  25
HETATM   25  O1  UNL     1      27.877  -1.429  53.573  1.00  0.00    -0.353 OA
HETATM   26  C1  UNL     1      29.269  -1.372  53.476  1.00  0.00     0.210 C 
ENDBRANCH   1  25
TORSDOF 4
ENDMDL
MODEL 6
REMARK VINA RESULT:      -7.7      3.266      5.857
REMARK  4 active torsions:
REMARK  status: ('A' for Active; 'I' for Inactive)
REMARK    1  A    between atoms: O1_2  and  C2_3 
REMARK    2  A    between atoms: C6_9  and  N3_10 
REMARK    3  A    between atoms: N3_10  and  C7_11 
REMARK    4  A    between atoms: C18_23  and  O2_24 
ROOT
HETATM    1  C2  UNL     1      23.262  -0.119  53.217  1.00  0.00     0.103 A 
HETATM    2  C3  UNL     1      24.573   0.107  53.592  1.00  0.00     0.072 A 
HETATM    3  C4  UNL     1      25.405   0.958  52.906  1.00  0.00     0.075 A 
HETATM    4  N1  UNL     1      26.686   1.189  53.261  1.00  0.00    -0.241 NA
HETATM    5  C5  UNL     1      27.451   2.046  52.533  1.00  0.00     0.236 A 
HETATM    6  N2  UNL     1      27.012   2.718  51.429  1.00  0.00    -0.223 NA
HETATM    7  C6  UNL     1      25.736   2.498  51.065  1.00  0.00     0.143 A 
HETATM    8  C16 UNL     1      24.950   1.632  51.794  1.00  0.00     0.042 A 
HETATM    9  C17 UNL     1      23.648   1.399  51.431  1.00  0.00     0.057 A 
HETATM   10  C18 UNL     1      22.795   0.547  52.108  1.00  0.00     0.102 A 
ENDROOT
BRANCH   7  11
HETATM   11  N3  UNL     1      25.257   3.191  49.914  1.00  0.00    -0.325 N 
HETATM   12  H6  UNL     1      24.467   2.964  49.305  1.00  0.00     0.169 HD
BRANCH  11  13
HETATM   13  C7  UNL     1      25.960   4.380  49.527  1.00  0.00     0.129 A 
HETATM   14  C8  UNL     1      27.213   4.383  48.949  1.00  0.00     0.062 A 
HETATM   15  C9  UNL     1      27.886   5.527  48.580  1.00  0.00    -0.021 A 
HETATM   16  C10 UNL     1      29.136   5.415  48.009  1.00  0.00     0.012 A 
HETATM   17  C14 UNL     1      27.294   6.755  48.787  1.00  0.00    -0.008 A 
HETATM   18  C11 UNL     1      29.837   6.542  47.626  1.00  0.00     0.001 A 
HETATM   19  C12 UNL     1      29.236   7.771  47.839  1.00  0.00     0.001 A 
HETATM   20  C13 UNL     1      27.983   7.892  48.411  1.00  0.00     0.014 A 
HETATM   21  C15 UNL     1      26.041   6.747  49.366  1.00  0.00     0.131 A 
HETATM   22  N4  UNL     1      25.427   5.602  49.709  1.00  0.00    -0.242 NA
ENDBRANCH  11  13
ENDBRANCH   7  11
BRANCH  10  23
HETATM   23  O2  UNL     1      21.502   0.338  51.718  1.00  0.00    -0.353 OA
HETATM   24  C19 UNL     1      20.440   1.239  51.954  1.00  0.00     0.210 C 
ENDBRANCH  10  23
BRANCH   1  25
HETATM   25  O1  UNL     1      22.431  -0.968  53.900  1.00  0.00    -0.353 OA
HETATM   26  C1  UNL     1      21.634  -0.574  54.977  1.00  0.00     0.210 C 
ENDBRANCH   1  25
TORSDOF 4
ENDMDL
MODEL 7
REMARK VINA RESULT:      -7.7      4.613      6.669
REMARK  4 active torsions:
REMARK  status: ('A' for Active; 'I' for Inactive)
REMARK    1  A    between atoms: O1_2  and  C2_3 
REMARK    2  A    between atoms: C6_9  and  N3_10 
REMARK    3  A    between atoms: N3_10  and  C7_11 
REMARK    4  A    between atoms: C18_23  and  O2_24 
ROOT
HETATM    1  C2  UNL     1      26.895   7.844  48.925  1.00  0.00     0.103 A 
HETATM    2  C3  UNL     1      25.802   7.989  49.757  1.00  0.00     0.072 A 
HETATM    3  C4  UNL     1      25.107   6.917  50.264  1.00  0.00     0.075 A 
HETATM    4  N1  UNL     1      24.039   7.043  51.078  1.00  0.00    -0.241 NA
HETATM    5  C5  UNL     1      23.400   5.935  51.541  1.00  0.00     0.236 A 
HETATM    6  N2  UNL     1      23.766   4.656  51.238  1.00  0.00    -0.223 NA
HETATM    7  C6  UNL     1      24.830   4.516  50.428  1.00  0.00     0.143 A 
HETATM    8  C16 UNL     1      25.487   5.630  49.951  1.00  0.00     0.042 A 
HETATM    9  C17 UNL     1      26.573   5.499  49.124  1.00  0.00     0.057 A 
HETATM   10  C18 UNL     1      27.285   6.565  48.605  1.00  0.00     0.102 A 
ENDROOT
BRANCH   7  11
HETATM   11  N3  UNL     1      25.230   3.187  50.098  1.00  0.00    -0.325 N 
HETATM   12  H6  UNL     1      25.223   2.715  49.191  1.00  0.00     0.169 HD
BRANCH  11  13
HETATM   13  C7  UNL     1      25.718   2.366  51.170  1.00  0.00     0.129 A 
HETATM   14  C8  UNL     1      26.942   2.543  51.782  1.00  0.00     0.062 A 
HETATM   15  C9  UNL     1      27.407   1.753  52.811  1.00  0.00    -0.021 A 
HETATM   16  C10 UNL     1      28.648   2.018  53.351  1.00  0.00     0.012 A 
HETATM   17  C14 UNL     1      26.622   0.719  53.276  1.00  0.00    -0.008 A 
HETATM   18  C11 UNL     1      29.144   1.247  54.385  1.00  0.00     0.001 A 
HETATM   19  C12 UNL     1      28.350   0.210  54.844  1.00  0.00     0.001 A 
HETATM   20  C13 UNL     1      27.105  -0.063  54.308  1.00  0.00     0.014 A 
HETATM   21  C15 UNL     1      25.400   0.546  52.660  1.00  0.00     0.131 A 
HETATM   22  N4  UNL     1      24.992   1.345  51.660  1.00  0.00    -0.242 NA
ENDBRANCH  11  13
ENDBRANCH   7  11
BRANCH  10  23
HETATM   23  O2  UNL     1      28.363   6.397  47.782  1.00  0.00    -0.353 OA
HETATM   24  C19 UNL     1      29.459   5.551  48.062  1.00  0.00     0.210 C 
ENDBRANCH  10  23
BRANCH   1  25
HETATM   25  O1  UNL     1      27.589   8.913  48.419  1.00  0.00    -0.353 OA
HETATM   26  C1  UNL     1      27.116  10.227  48.445  1.00  0.00     0.210 C 
ENDBRANCH   1  25
TORSDOF 4
ENDMDL
MODEL 8
REMARK VINA RESULT:      -7.5      3.393      7.190
REMARK  4 active torsions:
REMARK  status: ('A' for Active; 'I' for Inactive)
REMARK    1  A    between atoms: O1_2  and  C2_3 
REMARK    2  A    between atoms: C6_9  and  N3_10 
REMARK    3  A    between atoms: N3_10  and  C7_11 
REMARK    4  A    between atoms: C18_23  and  O2_24 
ROOT
HETATM    1  C2  UNL     1      25.977   0.106  53.666  1.00  0.00     0.103 A 
HETATM    2  C3  UNL     1      24.714  -0.150  53.168  1.00  0.00     0.072 A 
HETATM    3  C4  UNL     1      23.849   0.848  52.786  1.00  0.00     0.075 A 
HETATM    4  N1  UNL     1      22.614   0.612  52.298  1.00  0.00    -0.241 NA
HETATM    5  C5  UNL     1      21.813   1.652  51.940  1.00  0.00     0.236 A 
HETATM    6  N2  UNL     1      22.171   2.965  52.038  1.00  0.00    -0.223 NA
HETATM    7  C6  UNL     1      23.400   3.214  52.523  1.00  0.00     0.143 A 
HETATM    8  C16 UNL     1      24.223   2.170  52.889  1.00  0.00     0.042 A 
HETATM    9  C17 UNL     1      25.478   2.412  53.385  1.00  0.00     0.057 A 
HETATM   10  C18 UNL     1      26.362   1.422  53.775  1.00  0.00     0.102 A 
ENDROOT
BRANCH   7  11
HETATM   11  N3  UNL     1      23.795   4.580  52.634  1.00  0.00    -0.325 N 
HETATM   12  H6  UNL     1      23.906   5.156  53.472  1.00  0.00     0.169 HD
BRANCH  11  13
HETATM   13  C7  UNL     1      24.085   5.278  51.413  1.00  0.00     0.129 A 
HETATM   14  C8  UNL     1      23.570   6.516  51.090  1.00  0.00     0.062 A 
HETATM   15  C9  UNL     1      23.850   7.182  49.917  1.00  0.00    -0.021 A 
HETATM   16  C10 UNL     1      23.279   8.417  49.695  1.00  0.00     0.012 A 
HETATM   17  C14 UNL     1      24.694   6.600  48.995  1.00  0.00    -0.008 A 
HETATM   18  C11 UNL     1      23.540   9.113  48.531  1.00  0.00     0.001 A 
HETATM   19  C12 UNL     1      24.387   8.521  47.610  1.00  0.00     0.001 A 
HETATM   20  C13 UNL     1      24.964   7.283  47.824  1.00  0.00     0.014 A 
HETATM   21  C15 UNL     1      25.207   5.362  49.323  1.00  0.00     0.131 A 
HETATM   22  N4  UNL     1      24.902   4.753  50.482  1.00  0.00    -0.242 NA
ENDBRANCH  11  13
ENDBRANCH   7  11
BRANCH  10  23
HETATM   23  O2  UNL     1      27.606   1.700  54.265  1.00  0.00    -0.353 OA
HETATM   24  C19 UNL     1      28.604   2.411  53.561  1.00  0.00     0.210 C 
ENDBRANCH  10  23
BRANCH   1  25
HETATM   25  O1  UNL     1      26.840  -0.888  54.048  1.00  0.00    -0.353 OA
HETATM   26  C1  UNL     1      27.690  -1.558  53.165  1.00  0.00     0.210 C 
ENDBRANCH   1  25
TORSDOF 4
ENDMDL
MODEL 9
REMARK VINA RESULT:      -7.4      3.004      6.593
REMARK  4 active torsions:
REMARK  status: ('A' for Active; 'I' for Inactive)
REMARK    1  A    between atoms: O1_2  and  C2_3 
REMARK    2  A    between atoms: C6_9  and  N3_10 
REMARK    3  A    between atoms: N3_10  and  C7_11 
REMARK    4  A    between atoms: C18_23  and  O2_24 
ROOT
HETATM    1  C2  UNL     1      26.023  -0.417  53.815  1.00  0.00     0.103 A 
HETATM    2  C3  UNL     1      24.957  -0.875  54.565  1.00  0.00     0.072 A 
HETATM    3  C4  UNL     1      23.648  -0.621  54.228  1.00  0.00     0.075 A 
HETATM    4  N1  UNL     1      22.598  -1.062  54.951  1.00  0.00    -0.241 NA
HETATM    5  C5  UNL     1      21.330  -0.772  54.556  1.00  0.00     0.236 A 
HETATM    6  N2  UNL     1      21.020  -0.043  53.445  1.00  0.00    -0.223 NA
HETATM    7  C6  UNL     1      22.058   0.402  52.715  1.00  0.00     0.143 A 
HETATM    8  C16 UNL     1      23.349   0.115  53.104  1.00  0.00     0.042 A 
HETATM    9  C17 UNL     1      24.415   0.565  52.367  1.00  0.00     0.057 A 
HETATM   10  C18 UNL     1      25.738   0.320  52.689  1.00  0.00     0.102 A 
ENDROOT
BRANCH   7  11
HETATM   11  N3  UNL     1      21.756   1.166  51.549  1.00  0.00    -0.325 N 
HETATM   12  H6  UNL     1      21.173   0.919  50.746  1.00  0.00     0.169 HD
BRANCH  11  13
HETATM   13  C7  UNL     1      22.340   2.475  51.456  1.00  0.00     0.129 A 
HETATM   14  C8  UNL     1      23.230   2.855  50.474  1.00  0.00     0.062 A 
HETATM   15  C9  UNL     1      23.789   4.112  50.389  1.00  0.00    -0.021 A 
HETATM   16  C10 UNL     1      24.670   4.386  49.364  1.00  0.00     0.012 A 
HETATM   17  C14 UNL     1      23.453   5.065  51.327  1.00  0.00    -0.008 A 
HETATM   18  C11 UNL     1      25.246   5.636  49.248  1.00  0.00     0.001 A 
HETATM   19  C12 UNL     1      24.905   6.586  50.195  1.00  0.00     0.001 A 
HETATM   20  C13 UNL     1      24.023   6.320  51.226  1.00  0.00     0.014 A 
HETATM   21  C15 UNL     1      22.563   4.679  52.308  1.00  0.00     0.131 A 
HETATM   22  N4  UNL     1      22.046   3.439  52.347  1.00  0.00    -0.242 NA
ENDBRANCH  11  13
ENDBRANCH   7  11
BRANCH  10  23
HETATM   23  O2  UNL     1      26.776   0.784  51.932  1.00  0.00    -0.353 OA
HETATM   24  C19 UNL     1      26.940   2.131  51.538  1.00  0.00     0.210 C 
ENDBRANCH  10  23
BRANCH   1  25
HETATM   25  O1  UNL     1      27.328  -0.668  54.149  1.00  0.00    -0.353 OA
HETATM   26  C1  UNL     1      28.114   0.197  54.914  1.00  0.00     0.210 C 
ENDBRANCH   1  25
TORSDOF 4
ENDMDL
