MODEL 1
REMARK VINA RESULT:      -7.8      0.000      0.000
REMARK  6 active torsions:
REMARK  status: ('A' for Active; 'I' for Inactive)
REMARK    1  A    between atoms: C2_2  and  C3_3 
REMARK    2  A    between atoms: C3_3  and  C4_4 
REMARK    3  A    between atoms: C4_4  and  N1_5 
REMARK    4  A    between atoms: N1_5  and  C5_6 
REMARK    5  A    between atoms: C8_9  and  N2_10 
REMARK    6  A    between atoms: C19_25  and  O1_26 
ROOT
HETATM    1  C5  UNL     1      25.129  -0.060  53.685  1.00  0.00     0.062 A 
HETATM    2  C6  UNL     1      24.391   0.698  52.799  1.00  0.00     0.048 A 
HETATM    3  C7  UNL     1      24.886   1.585  51.880  1.00  0.00     0.023 A 
HETATM    4  C8  UNL     1      24.097   2.317  51.017  1.00  0.00     0.068 A 
HETATM    5  C14 UNL     1      24.682   3.194  50.118  1.00  0.00     0.089 A 
HETATM    6  C15 UNL     1      23.811   3.921  49.255  1.00  0.00     0.103 C 
HETATM    7  N3  UNL     1      23.094   4.506  48.563  1.00  0.00    -0.191 NA
HETATM    8  C16 UNL     1      26.075   3.331  50.088  1.00  0.00     0.142 A 
HETATM    9  N4  UNL     1      26.819   2.593  50.952  1.00  0.00    -0.259 NA
HETATM   10  C17 UNL     1      26.255   1.747  51.821  1.00  0.00     0.071 A 
HETATM   11  C18 UNL     1      27.046   1.016  52.682  1.00  0.00     0.071 A 
HETATM   12  C19 UNL     1      26.514   0.134  53.594  1.00  0.00     0.096 A 
ENDROOT
BRANCH   4  13
HETATM   13  N2  UNL     1      22.681   2.160  51.067  1.00  0.00    -0.344 N 
HETATM   14  C9  UNL     1      22.075   1.266  50.114  1.00  0.00     0.154 C 
HETATM   15  C10 UNL     1      20.610   1.219  50.439  1.00  0.00     0.012 C 
HETATM   16  C11 UNL     1      19.868   2.094  51.116  1.00  0.00     0.014 C 
HETATM   17 CL1  UNL     1      18.139   1.865  51.399  1.00  0.00    -0.089 Cl
HETATM   18  C12 UNL     1      20.563   3.286  51.630  1.00  0.00     0.110 C 
HETATM   19  C13 UNL     1      21.950   2.910  52.069  1.00  0.00     0.277 C 
HETATM   20  F1  UNL     1      22.615   4.097  52.391  1.00  0.00    -0.226 F 
ENDBRANCH   4  13
BRANCH   1  21
HETATM   21  N1  UNL     1      24.574  -0.941  54.615  1.00  0.00    -0.388 N 
HETATM   22  H10 UNL     1      25.183  -1.756  54.907  1.00  0.00     0.159 HD
BRANCH  21  23
HETATM   23  C4  UNL     1      23.277  -0.925  55.256  1.00  0.00     0.120 C 
BRANCH  23  24
HETATM   24  C3  UNL     1      22.264  -1.811  54.566  1.00  0.00     0.019 C 
BRANCH  24  25
HETATM   25  C2  UNL     1      21.429  -0.904  53.651  1.00  0.00    -0.003 C 
HETATM   26  C1  UNL     1      20.940   0.245  54.513  1.00  0.00     0.005 C 
ENDBRANCH  24  25
ENDBRANCH  23  24
ENDBRANCH  21  23
ENDBRANCH   1  21
BRANCH  12  27
HETATM   27  O1  UNL     1      27.315  -0.596  54.453  1.00  0.00    -0.354 OA
HETATM   28  C20 UNL     1      28.598  -0.089  54.769  1.00  0.00     0.210 C 
ENDBRANCH  12  27
TORSDOF 6
ENDMDL
MODEL 2
REMARK VINA RESULT:      -7.8      2.165      5.280
REMARK  6 active torsions:
REMARK  status: ('A' for Active; 'I' for Inactive)
REMARK    1  A    between atoms: C2_2  and  C3_3 
REMARK    2  A    between atoms: C3_3  and  C4_4 
REMARK    3  A    between atoms: C4_4  and  N1_5 
REMARK    4  A    between atoms: N1_5  and  C5_6 
REMARK    5  A    between atoms: C8_9  and  N2_10 
REMARK    6  A    between atoms: C19_25  and  O1_26 
ROOT
HETATM    1  C5  UNL     1      25.569   2.811  51.579  1.00  0.00     0.062 A 
HETATM    2  C6  UNL     1      24.248   2.427  51.686  1.00  0.00     0.048 A 
HETATM    3  C7  UNL     1      23.762   1.385  52.430  1.00  0.00     0.023 A 
HETATM    4  C8  UNL     1      22.426   1.048  52.498  1.00  0.00     0.068 A 
HETATM    5  C14 UNL     1      22.020  -0.024  53.277  1.00  0.00     0.089 A 
HETATM    6  C15 UNL     1      20.626  -0.319  53.304  1.00  0.00     0.103 C 
HETATM    7  N3  UNL     1      19.494  -0.550  53.315  1.00  0.00    -0.191 NA
HETATM    8  C16 UNL     1      22.971  -0.759  53.994  1.00  0.00     0.142 A 
HETATM    9  N4  UNL     1      24.276  -0.397  53.902  1.00  0.00    -0.259 NA
HETATM   10  C17 UNL     1      24.669   0.637  53.150  1.00  0.00     0.071 A 
HETATM   11  C18 UNL     1      26.005   0.971  53.085  1.00  0.00     0.071 A 
HETATM   12  C19 UNL     1      26.459   2.025  52.325  1.00  0.00     0.096 A 
ENDROOT
BRANCH   4  13
HETATM   13  N2  UNL     1      21.477   1.814  51.759  1.00  0.00    -0.344 N 
HETATM   14  C9  UNL     1      20.803   2.886  52.445  1.00  0.00     0.154 C 
HETATM   15  C10 UNL     1      19.939   3.572  51.428  1.00  0.00     0.012 C 
HETATM   16  C11 UNL     1      19.474   3.113  50.268  1.00  0.00     0.014 C 
HETATM   17 CL1  UNL     1      18.459   4.080  49.193  1.00  0.00    -0.089 Cl
HETATM   18  C12 UNL     1      19.851   1.735  49.909  1.00  0.00     0.110 C 
HETATM   19  C13 UNL     1      21.254   1.460  50.371  1.00  0.00     0.277 C 
HETATM   20  F1  UNL     1      21.499   0.101  50.154  1.00  0.00    -0.226 F 
ENDBRANCH   4  13
BRANCH   1  21
HETATM   21  N1  UNL     1      26.016   3.874  50.793  1.00  0.00    -0.388 N 
HETATM   22  H10 UNL     1      26.946   4.300  51.068  1.00  0.00     0.159 HD
BRANCH  21  23
HETATM   23  C4  UNL     1      25.406   4.505  49.642  1.00  0.00     0.120 C 
BRANCH  23  24
HETATM   24  C3  UNL     1      26.327   5.482  48.946  1.00  0.00     0.019 C 
BRANCH  24  25
HETATM   25  C2  UNL     1      27.645   4.740  48.681  1.00  0.00    -0.003 C 
HETATM   26  C1  UNL     1      28.655   5.791  48.260  1.00  0.00     0.005 C 
ENDBRANCH  24  25
ENDBRANCH  23  24
ENDBRANCH  21  23
ENDBRANCH   1  21
BRANCH  12  27
HETATM   27  O1  UNL     1      27.800   2.354  52.266  1.00  0.00    -0.354 OA
HETATM   28  C20 UNL     1      28.551   2.334  53.465  1.00  0.00     0.210 C 
ENDBRANCH  12  27
TORSDOF 6
ENDMDL
MODEL 3
REMARK VINA RESULT:      -7.4      2.861      4.909
REMARK  6 active torsions:
REMARK  status: ('A' for Active; 'I' for Inactive)
REMARK    1  A    between atoms: C2_2  and  C3_3 
REMARK    2  A    between atoms: C3_3  and  C4_4 
REMARK    3  A    between atoms: C4_4  and  N1_5 
REMARK    4  A    between atoms: N1_5  and  C5_6 
REMARK    5  A    between atoms: C8_9  and  N2_10 
REMARK    6  A    between atoms: C19_25  and  O1_26 
ROOT
HETATM    1  C5  UNL     1      25.629   1.462  53.630  1.00  0.00     0.062 A 
HETATM    2  C6  UNL     1      25.078   2.326  52.707  1.00  0.00     0.048 A 
HETATM    3  C7  UNL     1      23.947   2.111  51.966  1.00  0.00     0.023 A 
HETATM    4  C8  UNL     1      23.442   3.016  51.056  1.00  0.00     0.068 A 
HETATM    5  C14 UNL     1      22.289   2.716  50.346  1.00  0.00     0.089 A 
HETATM    6  C15 UNL     1      21.821   3.694  49.421  1.00  0.00     0.103 C 
HETATM    7  N3  UNL     1      21.452   4.493  48.673  1.00  0.00    -0.191 NA
HETATM    8  C16 UNL     1      21.642   1.494  50.559  1.00  0.00     0.142 A 
HETATM    9  N4  UNL     1      22.169   0.629  51.464  1.00  0.00    -0.259 NA
HETATM   10  C17 UNL     1      23.282   0.917  52.148  1.00  0.00     0.071 A 
HETATM   11  C18 UNL     1      23.784   0.010  53.057  1.00  0.00     0.071 A 
HETATM   12  C19 UNL     1      24.925   0.260  53.786  1.00  0.00     0.096 A 
ENDROOT
BRANCH   4  13
HETATM   13  N2  UNL     1      24.120   4.255  50.857  1.00  0.00    -0.344 N 
HETATM   14  C9  UNL     1      23.577   5.424  51.501  1.00  0.00     0.154 C 
HETATM   15  C10 UNL     1      24.517   6.554  51.203  1.00  0.00     0.012 C 
HETATM   16  C11 UNL     1      25.409   6.674  50.221  1.00  0.00     0.014 C 
HETATM   17 CL1  UNL     1      26.438   8.098  50.030  1.00  0.00    -0.089 Cl
HETATM   18  C12 UNL     1      25.505   5.545  49.280  1.00  0.00     0.110 C 
HETATM   19  C13 UNL     1      25.304   4.254  50.021  1.00  0.00     0.277 C 
HETATM   20  F1  UNL     1      25.241   3.236  49.065  1.00  0.00    -0.226 F 
ENDBRANCH   4  13
BRANCH   1  21
HETATM   21  N1  UNL     1      26.796   1.723  54.351  1.00  0.00    -0.388 N 
HETATM   22  H10 UNL     1      26.664   2.074  55.341  1.00  0.00     0.159 HD
BRANCH  21  23
HETATM   23  C4  UNL     1      28.183   1.592  53.961  1.00  0.00     0.120 C 
BRANCH  23  24
HETATM   24  C3  UNL     1      28.831   0.334  54.494  1.00  0.00     0.019 C 
BRANCH  24  25
HETATM   25  C2  UNL     1      28.662  -0.746  53.414  1.00  0.00    -0.003 C 
HETATM   26  C1  UNL     1      29.914  -1.601  53.460  1.00  0.00     0.005 C 
ENDBRANCH  24  25
ENDBRANCH  23  24
ENDBRANCH  21  23
ENDBRANCH   1  21
BRANCH  12  27
HETATM   27  O1  UNL     1      25.421  -0.655  54.696  1.00  0.00    -0.354 OA
HETATM   28  C20 UNL     1      24.519  -1.256  55.605  1.00  0.00     0.210 C 
ENDBRANCH  12  27
TORSDOF 6
ENDMDL
MODEL 4
REMARK VINA RESULT:      -7.2      2.347      4.990
REMARK  6 active torsions:
REMARK  status: ('A' for Active; 'I' for Inactive)
REMARK    1  A    between atoms: C2_2  and  C3_3 
REMARK    2  A    between atoms: C3_3  and  C4_4 
REMARK    3  A    between atoms: C4_4  and  N1_5 
REMARK    4  A    between atoms: N1_5  and  C5_6 
REMARK    5  A    between atoms: C8_9  and  N2_10 
REMARK    6  A    between atoms: C19_25  and  O1_26 
ROOT
HETATM    1  C5  UNL     1      25.860   2.948  51.060  1.00  0.00     0.062 A 
HETATM    2  C6  UNL     1      24.517   2.671  50.903  1.00  0.00     0.048 A 
HETATM    3  C7  UNL     1      23.807   1.696  51.551  1.00  0.00     0.023 A 
HETATM    4  C8  UNL     1      22.461   1.466  51.353  1.00  0.00     0.068 A 
HETATM    5  C14 UNL     1      21.820   0.455  52.052  1.00  0.00     0.089 A 
HETATM    6  C15 UNL     1      20.430   0.269  51.801  1.00  0.00     0.103 C 
HETATM    7  N3  UNL     1      19.304   0.126  51.586  1.00  0.00    -0.191 NA
HETATM    8  C16 UNL     1      22.544  -0.327  52.960  1.00  0.00     0.142 A 
HETATM    9  N4  UNL     1      23.867  -0.071  53.128  1.00  0.00    -0.259 NA
HETATM   10  C17 UNL     1      24.486   0.904  52.453  1.00  0.00     0.071 A 
HETATM   11  C18 UNL     1      25.831   1.131  52.654  1.00  0.00     0.071 A 
HETATM   12  C19 UNL     1      26.514   2.121  51.984  1.00  0.00     0.096 A 
ENDROOT
BRANCH   4  13
HETATM   13  N2  UNL     1      21.746   2.277  50.423  1.00  0.00    -0.344 N 
HETATM   14  C9  UNL     1      21.113   3.468  50.926  1.00  0.00     0.154 C 
HETATM   15  C10 UNL     1      20.515   4.170  49.742  1.00  0.00     0.012 C 
HETATM   16  C11 UNL     1      20.187   3.680  48.548  1.00  0.00     0.014 C 
HETATM   17 CL1  UNL     1      19.486   4.674  47.266  1.00  0.00    -0.089 Cl
HETATM   18  C12 UNL     1      20.440   2.245  48.335  1.00  0.00     0.110 C 
HETATM   19  C13 UNL     1      21.705   1.847  49.040  1.00  0.00     0.277 C 
HETATM   20  F1  UNL     1      21.809   0.456  48.944  1.00  0.00    -0.226 F 
ENDBRANCH   4  13
BRANCH   1  21
HETATM   21  N1  UNL     1      26.542   3.947  50.363  1.00  0.00    -0.388 N 
HETATM   22  H10 UNL     1      27.556   4.092  50.629  1.00  0.00     0.159 HD
BRANCH  21  23
HETATM   23  C4  UNL     1      26.082   4.834  49.316  1.00  0.00     0.120 C 
BRANCH  23  24
HETATM   24  C3  UNL     1      25.571   6.156  49.844  1.00  0.00     0.019 C 
BRANCH  24  25
HETATM   25  C2  UNL     1      24.039   6.113  49.742  1.00  0.00    -0.003 C 
HETATM   26  C1  UNL     1      23.713   5.401  48.443  1.00  0.00     0.005 C 
ENDBRANCH  24  25
ENDBRANCH  23  24
ENDBRANCH  21  23
ENDBRANCH   1  21
BRANCH  12  27
HETATM   27  O1  UNL     1      27.863   2.343  52.192  1.00  0.00    -0.354 OA
HETATM   28  C20 UNL     1      28.378   2.177  53.500  1.00  0.00     0.210 C 
ENDBRANCH  12  27
TORSDOF 6
ENDMDL
MODEL 5
REMARK VINA RESULT:      -7.1      1.864      4.681
REMARK  6 active torsions:
REMARK  status: ('A' for Active; 'I' for Inactive)
REMARK    1  A    between atoms: C2_2  and  C3_3 
REMARK    2  A    between atoms: C3_3  and  C4_4 
REMARK    3  A    between atoms: C4_4  and  N1_5 
REMARK    4  A    between atoms: N1_5  and  C5_6 
REMARK    5  A    between atoms: C8_9  and  N2_10 
REMARK    6  A    between atoms: C19_25  and  O1_26 
ROOT
HETATM    1  C5  UNL     1      25.544   0.936  52.248  1.00  0.00     0.062 A 
HETATM    2  C6  UNL     1      24.189   0.964  51.995  1.00  0.00     0.048 A 
HETATM    3  C7  UNL     1      23.214   0.327  52.715  1.00  0.00     0.023 A 
HETATM    4  C8  UNL     1      21.869   0.393  52.413  1.00  0.00     0.068 A 
HETATM    5  C14 UNL     1      20.948  -0.285  53.197  1.00  0.00     0.089 A 
HETATM    6  C15 UNL     1      19.575  -0.177  52.830  1.00  0.00     0.103 C 
HETATM    7  N3  UNL     1      18.466  -0.083  52.521  1.00  0.00    -0.191 NA
HETATM    8  C16 UNL     1      21.389  -1.032  54.295  1.00  0.00     0.142 A 
HETATM    9  N4  UNL     1      22.720  -1.072  54.561  1.00  0.00    -0.259 NA
HETATM   10  C17 UNL     1      23.609  -0.420  53.805  1.00  0.00     0.071 A 
HETATM   11  C18 UNL     1      24.952  -0.486  54.110  1.00  0.00     0.071 A 
HETATM   12  C19 UNL     1      25.906   0.167  53.363  1.00  0.00     0.096 A 
ENDROOT
BRANCH   4  13
HETATM   13  N2  UNL     1      21.445   1.161  51.289  1.00  0.00    -0.344 N 
HETATM   14  C9  UNL     1      21.423   0.509  50.005  1.00  0.00     0.154 C 
HETATM   15  C10 UNL     1      20.864   1.502  49.028  1.00  0.00     0.012 C 
HETATM   16  C11 UNL     1      20.802   2.829  49.116  1.00  0.00     0.014 C 
HETATM   17 CL1  UNL     1      20.099   3.841  47.849  1.00  0.00    -0.089 Cl
HETATM   18  C12 UNL     1      21.356   3.433  50.340  1.00  0.00     0.110 C 
HETATM   19  C13 UNL     1      21.068   2.542  51.515  1.00  0.00     0.277 C 
HETATM   20  F1  UNL     1      21.751   3.075  52.612  1.00  0.00    -0.226 F 
ENDBRANCH   4  13
BRANCH   1  21
HETATM   21  N1  UNL     1      26.502   1.593  51.473  1.00  0.00    -0.388 N 
HETATM   22  H10 UNL     1      27.300   0.997  51.114  1.00  0.00     0.159 HD
BRANCH  21  23
HETATM   23  C4  UNL     1      26.585   2.980  51.070  1.00  0.00     0.120 C 
BRANCH  23  24
HETATM   24  C3  UNL     1      26.287   3.189  49.602  1.00  0.00     0.019 C 
BRANCH  24  25
HETATM   25  C2  UNL     1      25.035   4.075  49.523  1.00  0.00    -0.003 C 
HETATM   26  C1  UNL     1      25.494   5.424  49.002  1.00  0.00     0.005 C 
ENDBRANCH  24  25
ENDBRANCH  23  24
ENDBRANCH  21  23
ENDBRANCH   1  21
BRANCH  12  27
HETATM   27  O1  UNL     1      27.250   0.095  53.677  1.00  0.00    -0.354 OA
HETATM   28  C20 UNL     1      28.005  -0.984  53.158  1.00  0.00     0.210 C 
ENDBRANCH  12  27
TORSDOF 6
ENDMDL
MODEL 6
REMARK VINA RESULT:      -7.0      2.843      5.225
REMARK  6 active torsions:
REMARK  status: ('A' for Active; 'I' for Inactive)
REMARK    1  A    between atoms: C2_2  and  C3_3 
REMARK    2  A    between atoms: C3_3  and  C4_4 
REMARK    3  A    between atoms: C4_4  and  N1_5 
REMARK    4  A    between atoms: N1_5  and  C5_6 
REMARK    5  A    between atoms: C8_9  and  N2_10 
REMARK    6  A    between atoms: C19_25  and  O1_26 
ROOT
HETATM    1  C5  UNL     1      23.190   0.873  53.181  1.00  0.00     0.062 A 
HETATM    2  C6  UNL     1      23.024   1.988  52.385  1.00  0.00     0.048 A 
HETATM    3  C7  UNL     1      21.839   2.614  52.100  1.00  0.00     0.023 A 
HETATM    4  C8  UNL     1      21.735   3.730  51.296  1.00  0.00     0.068 A 
HETATM    5  C14 UNL     1      20.494   4.301  51.059  1.00  0.00     0.089 A 
HETATM    6  C15 UNL     1      20.455   5.451  50.219  1.00  0.00     0.103 C 
HETATM    7  N3  UNL     1      20.436   6.381  49.534  1.00  0.00    -0.191 NA
HETATM    8  C16 UNL     1      19.351   3.740  51.641  1.00  0.00     0.142 A 
HETATM    9  N4  UNL     1      19.493   2.642  52.427  1.00  0.00    -0.259 NA
HETATM   10  C17 UNL     1      20.690   2.091  52.655  1.00  0.00     0.071 A 
HETATM   11  C18 UNL     1      20.791   0.976  53.460  1.00  0.00     0.071 A 
HETATM   12  C19 UNL     1      22.000   0.372  53.725  1.00  0.00     0.096 A 
ENDROOT
BRANCH   4  13
HETATM   13  N2  UNL     1      22.914   4.282  50.715  1.00  0.00    -0.344 N 
HETATM   14  C9  UNL     1      23.553   5.371  51.408  1.00  0.00     0.154 C 
HETATM   15  C10 UNL     1      24.800   5.698  50.640  1.00  0.00     0.012 C 
HETATM   16  C11 UNL     1      25.103   5.431  49.371  1.00  0.00     0.014 C 
HETATM   17 CL1  UNL     1      26.638   5.902  48.634  1.00  0.00    -0.089 Cl
HETATM   18  C12 UNL     1      24.083   4.712  48.589  1.00  0.00     0.110 C 
HETATM   19  C13 UNL     1      23.387   3.713  49.469  1.00  0.00     0.277 C 
HETATM   20  F1  UNL     1      22.329   3.179  48.728  1.00  0.00    -0.226 F 
ENDBRANCH   4  13
BRANCH   1  21
HETATM   21  N1  UNL     1      24.421   0.263  53.429  1.00  0.00    -0.388 N 
HETATM   22  H10 UNL     1      24.440  -0.793  53.358  1.00  0.00     0.159 HD
BRANCH  21  23
HETATM   23  C4  UNL     1      25.699   0.847  53.774  1.00  0.00     0.120 C 
BRANCH  23  24
HETATM   24  C3  UNL     1      26.747   0.652  52.702  1.00  0.00     0.019 C 
BRANCH  24  25
HETATM   25  C2  UNL     1      27.239   2.050  52.300  1.00  0.00    -0.003 C 
HETATM   26  C1  UNL     1      26.532   2.400  51.004  1.00  0.00     0.005 C 
ENDBRANCH  24  25
ENDBRANCH  23  24
ENDBRANCH  21  23
ENDBRANCH   1  21
BRANCH  12  27
HETATM   27  O1  UNL     1      22.092  -0.746  54.534  1.00  0.00    -0.354 OA
HETATM   28  C20 UNL     1      21.244  -1.845  54.260  1.00  0.00     0.210 C 
ENDBRANCH  12  27
TORSDOF 6
ENDMDL
MODEL 7
REMARK VINA RESULT:      -7.0      3.776      7.462
REMARK  6 active torsions:
REMARK  status: ('A' for Active; 'I' for Inactive)
REMARK    1  A    between atoms: C2_2  and  C3_3 
REMARK    2  A    between atoms: C3_3  and  C4_4 
REMARK    3  A    between atoms: C4_4  and  N1_5 
REMARK    4  A    between atoms: N1_5  and  C5_6 
REMARK    5  A    between atoms: C8_9  and  N2_10 
REMARK    6  A    between atoms: C19_25  and  O1_26 
ROOT
HETATM    1  C5  UNL     1      25.858   4.836  49.615  1.00  0.00     0.062 A 
HETATM    2  C6  UNL     1      25.645   3.758  50.450  1.00  0.00     0.048 A 
HETATM    3  C7  UNL     1      24.449   3.130  50.677  1.00  0.00     0.023 A 
HETATM    4  C8  UNL     1      24.296   2.053  51.525  1.00  0.00     0.068 A 
HETATM    5  C14 UNL     1      23.047   1.477  51.698  1.00  0.00     0.089 A 
HETATM    6  C15 UNL     1      22.958   0.368  52.588  1.00  0.00     0.103 C 
HETATM    7  N3  UNL     1      22.898  -0.528  53.314  1.00  0.00    -0.191 NA
HETATM    8  C16 UNL     1      21.945   1.993  51.007  1.00  0.00     0.142 A 
HETATM    9  N4  UNL     1      22.134   3.055  50.181  1.00  0.00    -0.259 NA
HETATM   10  C17 UNL     1      23.339   3.611  50.014  1.00  0.00     0.071 A 
HETATM   11  C18 UNL     1      23.488   4.687  49.166  1.00  0.00     0.071 A 
HETATM   12  C19 UNL     1      24.707   5.294  48.961  1.00  0.00     0.096 A 
ENDROOT
BRANCH   4  13
HETATM   13  N2  UNL     1      25.435   1.545  52.217  1.00  0.00    -0.344 N 
HETATM   14  C9  UNL     1      26.089   0.386  51.667  1.00  0.00     0.154 C 
HETATM   15  C10 UNL     1      27.289   0.120  52.527  1.00  0.00     0.012 C 
HETATM   16  C11 UNL     1      27.532   0.505  53.779  1.00  0.00     0.014 C 
HETATM   17 CL1  UNL     1      29.020   0.090  54.637  1.00  0.00    -0.089 Cl
HETATM   18  C12 UNL     1      26.487   1.311  54.433  1.00  0.00     0.110 C 
HETATM   19  C13 UNL     1      25.854   2.228  53.425  1.00  0.00     0.277 C 
HETATM   20  F1  UNL     1      24.769   2.845  54.055  1.00  0.00    -0.226 F 
ENDBRANCH   4  13
BRANCH   1  21
HETATM   21  N1  UNL     1      27.098   5.450  49.429  1.00  0.00    -0.388 N 
HETATM   22  H10 UNL     1      27.312   6.270  50.064  1.00  0.00     0.159 HD
BRANCH  21  23
HETATM   23  C4  UNL     1      28.158   5.147  48.492  1.00  0.00     0.120 C 
BRANCH  23  24
HETATM   24  C3  UNL     1      28.748   6.381  47.847  1.00  0.00     0.019 C 
BRANCH  24  25
HETATM   25  C2  UNL     1      28.068   7.593  48.500  1.00  0.00    -0.003 C 
HETATM   26  C1  UNL     1      27.567   8.469  47.368  1.00  0.00     0.005 C 
ENDBRANCH  24  25
ENDBRANCH  23  24
ENDBRANCH  21  23
ENDBRANCH   1  21
BRANCH  12  27
HETATM   27  O1  UNL     1      24.847   6.373  48.108  1.00  0.00    -0.354 OA
HETATM   28  C20 UNL     1      23.684   6.915  47.511  1.00  0.00     0.210 C 
ENDBRANCH  12  27
TORSDOF 6
ENDMDL
MODEL 8
REMARK VINA RESULT:      -6.9      2.464      3.736
REMARK  6 active torsions:
REMARK  status: ('A' for Active; 'I' for Inactive)
REMARK    1  A    between atoms: C2_2  and  C3_3 
REMARK    2  A    between atoms: C3_3  and  C4_4 
REMARK    3  A    between atoms: C4_4  and  N1_5 
REMARK    4  A    between atoms: N1_5  and  C5_6 
REMARK    5  A    between atoms: C8_9  and  N2_10 
REMARK    6  A    between atoms: C19_25  and  O1_26 
ROOT
HETATM    1  C5  UNL     1      21.921   0.855  52.751  1.00  0.00     0.062 A 
HETATM    2  C6  UNL     1      22.621   1.674  51.889  1.00  0.00     0.048 A 
HETATM    3  C7  UNL     1      23.982   1.746  51.760  1.00  0.00     0.023 A 
HETATM    4  C8  UNL     1      24.627   2.587  50.877  1.00  0.00     0.068 A 
HETATM    5  C14 UNL     1      26.012   2.595  50.813  1.00  0.00     0.089 A 
HETATM    6  C15 UNL     1      26.616   3.488  49.880  1.00  0.00     0.103 C 
HETATM    7  N3  UNL     1      27.093   4.217  49.122  1.00  0.00    -0.191 NA
HETATM    8  C16 UNL     1      26.750   1.746  51.646  1.00  0.00     0.142 A 
HETATM    9  N4  UNL     1      26.080   0.933  52.502  1.00  0.00    -0.259 NA
HETATM   10  C17 UNL     1      24.744   0.924  52.565  1.00  0.00     0.071 A 
HETATM   11  C18 UNL     1      24.102   0.082  53.448  1.00  0.00     0.071 A 
HETATM   12  C19 UNL     1      22.731   0.037  53.551  1.00  0.00     0.096 A 
ENDROOT
BRANCH   4  13
HETATM   13  N2  UNL     1      23.853   3.442  50.039  1.00  0.00    -0.344 N 
HETATM   14  C9  UNL     1      23.511   2.959  48.726  1.00  0.00     0.154 C 
HETATM   15  C10 UNL     1      22.633   4.002  48.099  1.00  0.00     0.012 C 
HETATM   16  C11 UNL     1      22.512   5.294  48.399  1.00  0.00     0.014 C 
HETATM   17 CL1  UNL     1      21.413   6.377  47.537  1.00  0.00    -0.089 Cl
HETATM   18  C12 UNL     1      23.349   5.793  49.503  1.00  0.00     0.110 C 
HETATM   19  C13 UNL     1      23.465   4.736  50.564  1.00  0.00     0.277 C 
HETATM   20  F1  UNL     1      24.394   5.196  51.502  1.00  0.00    -0.226 F 
ENDBRANCH   4  13
BRANCH   1  21
HETATM   21  N1  UNL     1      20.529   0.831  52.854  1.00  0.00    -0.388 N 
HETATM   22  H10 UNL     1      20.135   0.760  53.834  1.00  0.00     0.159 HD
BRANCH  21  23
HETATM   23  C4  UNL     1      19.516   0.886  51.822  1.00  0.00     0.120 C 
BRANCH  23  24
HETATM   24  C3  UNL     1      18.512  -0.240  51.919  1.00  0.00     0.019 C 
BRANCH  24  25
HETATM   25  C2  UNL     1      18.774  -0.957  53.252  1.00  0.00    -0.003 C 
HETATM   26  C1  UNL     1      17.736  -2.058  53.361  1.00  0.00     0.005 C 
ENDBRANCH  24  25
ENDBRANCH  23  24
ENDBRANCH  21  23
ENDBRANCH   1  21
BRANCH  12  27
HETATM   27  O1  UNL     1      22.096  -0.811  54.440  1.00  0.00    -0.354 OA
HETATM   28  C20 UNL     1      22.882  -1.488  55.401  1.00  0.00     0.210 C 
ENDBRANCH  12  27
TORSDOF 6
ENDMDL
MODEL 9
REMARK VINA RESULT:      -6.8      8.843     11.854
REMARK  6 active torsions:
REMARK  status: ('A' for Active; 'I' for Inactive)
REMARK    1  A    between atoms: C2_2  and  C3_3 
REMARK    2  A    between atoms: C3_3  and  C4_4 
REMARK    3  A    between atoms: C4_4  and  N1_5 
REMARK    4  A    between atoms: N1_5  and  C5_6 
REMARK    5  A    between atoms: C8_9  and  N2_10 
REMARK    6  A    between atoms: C19_25  and  O1_26 
ROOT
HETATM    1  C5  UNL     1      28.848   8.630  48.984  1.00  0.00     0.062 A 
HETATM    2  C6  UNL     1      30.107   8.379  48.479  1.00  0.00     0.048 A 
HETATM    3  C7  UNL     1      31.009   9.313  48.044  1.00  0.00     0.023 A 
HETATM    4  C8  UNL     1      32.258   9.002  47.548  1.00  0.00     0.068 A 
HETATM    5  C14 UNL     1      33.110  10.012  47.129  1.00  0.00     0.089 A 
HETATM    6  C15 UNL     1      34.385   9.623  46.626  1.00  0.00     0.103 C 
HETATM    7  N3  UNL     1      35.415   9.294  46.218  1.00  0.00    -0.191 NA
HETATM    8  C16 UNL     1      32.697  11.347  47.213  1.00  0.00     0.142 A 
HETATM    9  N4  UNL     1      31.460  11.614  47.707  1.00  0.00    -0.259 NA
HETATM   10  C17 UNL     1      30.638  10.640  48.112  1.00  0.00     0.071 A 
HETATM   11  C18 UNL     1      29.391  10.955  48.608  1.00  0.00     0.071 A 
HETATM   12  C19 UNL     1      28.508   9.989  49.036  1.00  0.00     0.096 A 
ENDROOT
BRANCH   4  13
HETATM   13  N2  UNL     1      32.655   7.634  47.473  1.00  0.00    -0.344 N 
HETATM   14  C9  UNL     1      33.446   7.108  48.556  1.00  0.00     0.154 C 
HETATM   15  C10 UNL     1      33.647   5.649  48.271  1.00  0.00     0.012 C 
HETATM   16  C11 UNL     1      33.562   4.995  47.114  1.00  0.00     0.014 C 
HETATM   17 CL1  UNL     1      33.837   3.255  46.975  1.00  0.00    -0.089 Cl
HETATM   18  C12 UNL     1      33.220   5.799  45.929  1.00  0.00     0.110 C 
HETATM   19  C13 UNL     1      32.239   6.870  46.314  1.00  0.00     0.277 C 
HETATM   20  F1  UNL     1      32.077   7.698  45.199  1.00  0.00    -0.226 F 
ENDBRANCH   4  13
BRANCH   1  21
HETATM   21  N1  UNL     1      27.958   7.639  49.401  1.00  0.00    -0.388 N 
HETATM   22  H10 UNL     1      27.810   7.554  50.446  1.00  0.00     0.159 HD
BRANCH  21  23
HETATM   23  C4  UNL     1      27.190   6.688  48.626  1.00  0.00     0.120 C 
BRANCH  23  24
HETATM   24  C3  UNL     1      27.898   5.364  48.446  1.00  0.00     0.019 C 
BRANCH  24  25
HETATM   25  C2  UNL     1      27.047   4.303  49.160  1.00  0.00    -0.003 C 
HETATM   26  C1  UNL     1      25.641   4.866  49.249  1.00  0.00     0.005 C 
ENDBRANCH  24  25
ENDBRANCH  23  24
ENDBRANCH  21  23
ENDBRANCH   1  21
BRANCH  12  27
HETATM   27  O1  UNL     1      27.259  10.314  49.532  1.00  0.00    -0.354 OA
HETATM   28  C20 UNL     1      26.263  10.737  48.621  1.00  0.00     0.210 C 
ENDBRANCH  12  27
TORSDOF 6
ENDMDL
