MODEL 1
REMARK VINA RESULT:      -7.9      0.000      0.000
REMARK  3 active torsions:
REMARK  status: ('A' for Active; 'I' for Inactive)
REMARK    1  A    between atoms: C3_3  and  C4_4 
REMARK    2  A    between atoms: C4_4  and  C5_5 
REMARK    3  A    between atoms: C6_6  and  C7_7 
ROOT
HETATM    1  C7  UNL     1      25.414   3.055  50.795  1.00  0.00     0.009 C 
HETATM    2  C8  UNL     1      25.331   2.479  51.981  1.00  0.00    -0.029 C 
HETATM    3  C9  UNL     1      26.516   1.733  52.304  1.00  0.00     0.124 C 
HETATM    4  N1  UNL     1      27.211   0.960  53.116  1.00  0.00    -0.273 NA
HETATM    5  C10 UNL     1      26.445   0.673  54.327  1.00  0.00     0.112 C 
HETATM    6  C11 UNL     1      25.505  -0.273  54.477  1.00  0.00    -0.004 C 
HETATM    7  C12 UNL     1      24.432  -1.145  55.107  1.00  0.00     0.055 C 
HETATM    8  C13 UNL     1      23.163  -0.868  54.298  1.00  0.00    -0.027 C 
HETATM    9  C14 UNL     1      23.104  -0.007  53.254  1.00  0.00    -0.025 C 
HETATM   10  C15 UNL     1      22.666   0.821  52.103  1.00  0.00     0.082 C 
HETATM   11  C16 UNL     1      22.861   2.286  52.308  1.00  0.00     0.020 A 
HETATM   12  N2  UNL     1      22.523   3.516  52.273  1.00  0.00    -0.296 NA
HETATM   13  C17 UNL     1      23.696   4.077  52.811  1.00  0.00     0.164 A 
HETATM   14  C18 UNL     1      24.173   2.620  52.854  1.00  0.00     0.087 A 
ENDROOT
BRANCH   1  15
HETATM   15  C6  UNL     1      26.531   2.991  49.872  1.00  0.00    -0.003 C 
HETATM   16  C5  UNL     1      26.888   4.057  49.141  1.00  0.00    -0.023 C 
BRANCH  16  17
HETATM   17  C4  UNL     1      26.329   5.429  49.068  1.00  0.00     0.054 C 
BRANCH  17  18
HETATM   18  C3  UNL     1      27.403   6.292  48.450  1.00  0.00    -0.027 C 
HETATM   19  C2  UNL     1      28.641   5.969  48.101  1.00  0.00    -0.035 C 
HETATM   20  C1  UNL     1      29.596   6.962  47.489  1.00  0.00     0.036 C 
ENDBRANCH  17  18
ENDBRANCH  16  17
ENDBRANCH   1  15
TORSDOF 3
ENDMDL
MODEL 2
REMARK VINA RESULT:      -7.6      3.938      5.827
REMARK  3 active torsions:
REMARK  status: ('A' for Active; 'I' for Inactive)
REMARK    1  A    between atoms: C3_3  and  C4_4 
REMARK    2  A    between atoms: C4_4  and  C5_5 
REMARK    3  A    between atoms: C6_6  and  C7_7 
ROOT
HETATM    1  C7  UNL     1      24.173   0.405  52.828  1.00  0.00     0.009 C 
HETATM    2  C8  UNL     1      22.874   0.650  52.813  1.00  0.00    -0.029 C 
HETATM    3  C9  UNL     1      22.120  -0.393  53.453  1.00  0.00     0.124 C 
HETATM    4  N1  UNL     1      20.976  -0.923  53.837  1.00  0.00    -0.273 NA
HETATM    5  C10 UNL     1      19.858  -0.069  53.442  1.00  0.00     0.112 C 
HETATM    6  C11 UNL     1      19.263  -0.029  52.240  1.00  0.00    -0.004 C 
HETATM    7  C12 UNL     1      18.319   0.365  51.117  1.00  0.00     0.055 C 
HETATM    8  C13 UNL     1      19.218   0.930  50.016  1.00  0.00    -0.027 C 
HETATM    9  C14 UNL     1      20.567   1.020  50.112  1.00  0.00    -0.025 C 
HETATM   10  C15 UNL     1      22.007   1.270  49.859  1.00  0.00     0.082 C 
HETATM   11  C16 UNL     1      22.643   2.183  50.853  1.00  0.00     0.020 A 
HETATM   12  N2  UNL     1      23.378   3.156  51.228  1.00  0.00    -0.296 NA
HETATM   13  C17 UNL     1      23.175   3.056  52.617  1.00  0.00     0.164 A 
HETATM   14  C18 UNL     1      22.299   1.857  52.234  1.00  0.00     0.087 A 
ENDROOT
BRANCH   1  15
HETATM   15  C6  UNL     1      24.834  -0.751  53.401  1.00  0.00    -0.003 C 
HETATM   16  C5  UNL     1      25.884  -0.611  54.225  1.00  0.00    -0.023 C 
BRANCH  16  17
HETATM   17  C4  UNL     1      26.584   0.596  54.727  1.00  0.00     0.054 C 
BRANCH  17  18
HETATM   18  C3  UNL     1      28.048   0.398  54.416  1.00  0.00    -0.027 C 
HETATM   19  C2  UNL     1      28.639  -0.591  53.759  1.00  0.00    -0.035 C 
HETATM   20  C1  UNL     1      30.128  -0.637  53.533  1.00  0.00     0.036 C 
ENDBRANCH  17  18
ENDBRANCH  16  17
ENDBRANCH   1  15
TORSDOF 3
ENDMDL
MODEL 3
REMARK VINA RESULT:      -7.3      2.172      2.905
REMARK  3 active torsions:
REMARK  status: ('A' for Active; 'I' for Inactive)
REMARK    1  A    between atoms: C3_3  and  C4_4 
REMARK    2  A    between atoms: C4_4  and  C5_5 
REMARK    3  A    between atoms: C6_6  and  C7_7 
ROOT
HETATM    1  C7  UNL     1      21.960   2.601  50.113  1.00  0.00     0.009 C 
HETATM    2  C8  UNL     1      22.188   2.099  51.314  1.00  0.00    -0.029 C 
HETATM    3  C9  UNL     1      23.472   1.460  51.397  1.00  0.00     0.124 C 
HETATM    4  N1  UNL     1      24.391   0.792  52.068  1.00  0.00    -0.273 NA
HETATM    5  C10 UNL     1      23.938   0.531  53.433  1.00  0.00     0.112 C 
HETATM    6  C11 UNL     1      23.134  -0.466  53.835  1.00  0.00    -0.004 C 
HETATM    7  C12 UNL     1      22.302  -1.367  54.732  1.00  0.00     0.055 C 
HETATM    8  C13 UNL     1      20.868  -1.232  54.217  1.00  0.00    -0.027 C 
HETATM    9  C14 UNL     1      20.509  -0.447  53.173  1.00  0.00    -0.025 C 
HETATM   10  C15 UNL     1      19.761   0.272  52.112  1.00  0.00     0.082 C 
HETATM   11  C16 UNL     1      19.876   1.758  52.198  1.00  0.00     0.020 A 
HETATM   12  N2  UNL     1      19.439   2.956  52.180  1.00  0.00    -0.296 NA
HETATM   13  C17 UNL     1      20.651   3.631  52.413  1.00  0.00     0.164 A 
HETATM   14  C18 UNL     1      21.244   2.216  52.417  1.00  0.00     0.087 A 
ENDROOT
BRANCH   1  15
HETATM   15  C6  UNL     1      22.847   2.555  48.967  1.00  0.00    -0.003 C 
HETATM   16  C5  UNL     1      23.790   3.490  48.783  1.00  0.00    -0.023 C 
BRANCH  16  17
HETATM   17  C4  UNL     1      24.160   4.684  49.582  1.00  0.00     0.054 C 
BRANCH  17  18
HETATM   18  C3  UNL     1      25.509   5.134  49.074  1.00  0.00    -0.027 C 
HETATM   19  C2  UNL     1      26.674   4.502  49.116  1.00  0.00    -0.035 C 
HETATM   20  C1  UNL     1      27.940   5.099  48.557  1.00  0.00     0.036 C 
ENDBRANCH  17  18
ENDBRANCH  16  17
ENDBRANCH   1  15
TORSDOF 3
ENDMDL
MODEL 4
REMARK VINA RESULT:      -6.8      2.957      6.092
REMARK  3 active torsions:
REMARK  status: ('A' for Active; 'I' for Inactive)
REMARK    1  A    between atoms: C3_3  and  C4_4 
REMARK    2  A    between atoms: C4_4  and  C5_5 
REMARK    3  A    between atoms: C6_6  and  C7_7 
ROOT
HETATM    1  C7  UNL     1      23.717   1.761  52.841  1.00  0.00     0.009 C 
HETATM    2  C8  UNL     1      22.785   2.069  51.955  1.00  0.00    -0.029 C 
HETATM    3  C9  UNL     1      21.962   0.939  51.623  1.00  0.00     0.124 C 
HETATM    4  N1  UNL     1      20.970   0.388  50.949  1.00  0.00    -0.273 NA
HETATM    5  C10 UNL     1      20.343   1.371  50.069  1.00  0.00     0.112 C 
HETATM    6  C11 UNL     1      20.766   1.742  48.849  1.00  0.00    -0.004 C 
HETATM    7  C12 UNL     1      20.837   2.454  47.509  1.00  0.00     0.055 C 
HETATM    8  C13 UNL     1      22.155   3.230  47.537  1.00  0.00    -0.027 C 
HETATM    9  C14 UNL     1      23.015   3.224  48.583  1.00  0.00    -0.025 C 
HETATM   10  C15 UNL     1      24.162   3.455  49.496  1.00  0.00     0.082 C 
HETATM   11  C16 UNL     1      23.776   4.055  50.807  1.00  0.00     0.020 A 
HETATM   12  N2  UNL     1      23.885   4.863  51.788  1.00  0.00    -0.296 NA
HETATM   13  C17 UNL     1      22.784   4.428  52.549  1.00  0.00     0.164 A 
HETATM   14  C18 UNL     1      22.615   3.410  51.413  1.00  0.00     0.087 A 
ENDROOT
BRANCH   1  15
HETATM   15  C6  UNL     1      23.945   0.466  53.451  1.00  0.00    -0.003 C 
HETATM   16  C5  UNL     1      24.996  -0.290  53.101  1.00  0.00    -0.023 C 
BRANCH  16  17
HETATM   17  C4  UNL     1      26.087  -0.061  52.123  1.00  0.00     0.054 C 
BRANCH  17  18
HETATM   18  C3  UNL     1      27.376  -0.105  52.908  1.00  0.00    -0.027 C 
HETATM   19  C2  UNL     1      27.605   0.251  54.165  1.00  0.00    -0.035 C 
HETATM   20  C1  UNL     1      28.966   0.142  54.803  1.00  0.00     0.036 C 
ENDBRANCH  17  18
ENDBRANCH  16  17
ENDBRANCH   1  15
TORSDOF 3
ENDMDL
MODEL 5
REMARK VINA RESULT:      -6.8      4.370      8.487
REMARK  3 active torsions:
REMARK  status: ('A' for Active; 'I' for Inactive)
REMARK    1  A    between atoms: C3_3  and  C4_4 
REMARK    2  A    between atoms: C4_4  and  C5_5 
REMARK    3  A    between atoms: C6_6  and  C7_7 
ROOT
HETATM    1  C7  UNL     1      26.492   5.763  48.823  1.00  0.00     0.009 C 
HETATM    2  C8  UNL     1      27.566   6.357  48.334  1.00  0.00    -0.029 C 
HETATM    3  C9  UNL     1      28.720   5.502  48.369  1.00  0.00     0.124 C 
HETATM    4  N1  UNL     1      30.001   5.277  48.146  1.00  0.00    -0.273 NA
HETATM    5  C10 UNL     1      30.635   6.462  47.572  1.00  0.00     0.112 C 
HETATM    6  C11 UNL     1      31.094   7.530  48.242  1.00  0.00    -0.004 C 
HETATM    7  C12 UNL     1      31.726   8.881  48.531  1.00  0.00     0.055 C 
HETATM    8  C13 UNL     1      30.615   9.714  49.175  1.00  0.00    -0.027 C 
HETATM    9  C14 UNL     1      29.359   9.257  49.400  1.00  0.00    -0.025 C 
HETATM   10  C15 UNL     1      27.936   9.115  49.791  1.00  0.00     0.082 C 
HETATM   11  C16 UNL     1      27.030   8.777  48.654  1.00  0.00     0.020 A 
HETATM   12  N2  UNL     1      25.977   8.880  47.943  1.00  0.00    -0.296 NA
HETATM   13  C17 UNL     1      26.276   7.906  46.972  1.00  0.00     0.164 A 
HETATM   14  C18 UNL     1      27.552   7.714  47.801  1.00  0.00     0.087 A 
ENDROOT
BRANCH   1  15
HETATM   15  C6  UNL     1      26.406   4.415  49.349  1.00  0.00    -0.003 C 
HETATM   16  C5  UNL     1      25.228   3.781  49.443  1.00  0.00    -0.023 C 
BRANCH  16  17
HETATM   17  C4  UNL     1      23.853   4.208  49.087  1.00  0.00     0.054 C 
BRANCH  17  18
HETATM   18  C3  UNL     1      22.971   2.996  49.274  1.00  0.00    -0.027 C 
HETATM   19  C2  UNL     1      22.399   2.226  48.359  1.00  0.00    -0.035 C 
HETATM   20  C1  UNL     1      21.539   1.042  48.718  1.00  0.00     0.036 C 
ENDBRANCH  17  18
ENDBRANCH  16  17
ENDBRANCH   1  15
TORSDOF 3
ENDMDL
MODEL 6
REMARK VINA RESULT:      -6.8      1.537      2.245
REMARK  3 active torsions:
REMARK  status: ('A' for Active; 'I' for Inactive)
REMARK    1  A    between atoms: C3_3  and  C4_4 
REMARK    2  A    between atoms: C4_4  and  C5_5 
REMARK    3  A    between atoms: C6_6  and  C7_7 
ROOT
HETATM    1  C7  UNL     1      23.615   4.712  49.910  1.00  0.00     0.009 C 
HETATM    2  C8  UNL     1      24.325   3.987  50.757  1.00  0.00    -0.029 C 
HETATM    3  C9  UNL     1      25.555   3.526  50.175  1.00  0.00     0.124 C 
HETATM    4  N1  UNL     1      26.689   2.855  50.246  1.00  0.00    -0.273 NA
HETATM    5  C10 UNL     1      26.833   2.234  51.561  1.00  0.00     0.112 C 
HETATM    6  C11 UNL     1      26.294   1.072  51.963  1.00  0.00    -0.004 C 
HETATM    7  C12 UNL     1      25.926  -0.113  52.840  1.00  0.00     0.055 C 
HETATM    8  C13 UNL     1      24.402  -0.061  52.964  1.00  0.00    -0.027 C 
HETATM    9  C14 UNL     1      23.626   0.883  52.379  1.00  0.00    -0.025 C 
HETATM   10  C15 UNL     1      22.490   1.715  51.911  1.00  0.00     0.082 C 
HETATM   11  C16 UNL     1      22.578   3.144  52.331  1.00  0.00     0.020 A 
HETATM   12  N2  UNL     1      22.129   4.244  52.795  1.00  0.00    -0.296 NA
HETATM   13  C17 UNL     1      23.309   5.008  52.717  1.00  0.00     0.164 A 
HETATM   14  C18 UNL     1      23.902   3.723  52.125  1.00  0.00     0.087 A 
ENDROOT
BRANCH   1  15
HETATM   15  C6  UNL     1      23.967   5.047  48.543  1.00  0.00    -0.003 C 
HETATM   16  C5  UNL     1      24.755   6.096  48.268  1.00  0.00    -0.023 C 
BRANCH  16  17
HETATM   17  C4  UNL     1      25.413   7.089  49.152  1.00  0.00     0.054 C 
BRANCH  17  18
HETATM   18  C3  UNL     1      26.900   6.928  48.937  1.00  0.00    -0.027 C 
HETATM   19  C2  UNL     1      27.563   5.924  48.381  1.00  0.00    -0.035 C 
HETATM   20  C1  UNL     1      29.063   5.921  48.243  1.00  0.00     0.036 C 
ENDBRANCH  17  18
ENDBRANCH  16  17
ENDBRANCH   1  15
TORSDOF 3
ENDMDL
MODEL 7
REMARK VINA RESULT:      -6.8      3.355      4.851
REMARK  3 active torsions:
REMARK  status: ('A' for Active; 'I' for Inactive)
REMARK    1  A    between atoms: C3_3  and  C4_4 
REMARK    2  A    between atoms: C4_4  and  C5_5 
REMARK    3  A    between atoms: C6_6  and  C7_7 
ROOT
HETATM    1  C7  UNL     1      21.301   0.914  50.435  1.00  0.00     0.009 C 
HETATM    2  C8  UNL     1      22.173   1.299  51.351  1.00  0.00    -0.029 C 
HETATM    3  C9  UNL     1      23.318   1.944  50.770  1.00  0.00     0.124 C 
HETATM    4  N1  UNL     1      24.490   2.539  50.880  1.00  0.00    -0.273 NA
HETATM    5  C10 UNL     1      24.896   2.613  52.281  1.00  0.00     0.112 C 
HETATM    6  C11 UNL     1      25.489   1.645  52.998  1.00  0.00    -0.004 C 
HETATM    7  C12 UNL     1      26.131   0.907  54.161  1.00  0.00     0.055 C 
HETATM    8  C13 UNL     1      25.220  -0.293  54.425  1.00  0.00    -0.027 C 
HETATM    9  C14 UNL     1      24.095  -0.561  53.718  1.00  0.00    -0.025 C 
HETATM   10  C15 UNL     1      22.845  -1.159  53.187  1.00  0.00     0.082 C 
HETATM   11  C16 UNL     1      21.667  -0.245  53.250  1.00  0.00     0.020 A 
HETATM   12  N2  UNL     1      20.453   0.065  53.487  1.00  0.00    -0.296 NA
HETATM   13  C17 UNL     1      20.499   1.420  53.112  1.00  0.00     0.164 A 
HETATM   14  C18 UNL     1      21.963   1.105  52.779  1.00  0.00     0.087 A 
ENDROOT
BRANCH   1  15
HETATM   15  C6  UNL     1      21.413   1.086  49.000  1.00  0.00    -0.003 C 
HETATM   16  C5  UNL     1      20.720   2.039  48.359  1.00  0.00    -0.023 C 
BRANCH  16  17
HETATM   17  C4  UNL     1      19.766   3.060  48.856  1.00  0.00     0.054 C 
BRANCH  17  18
HETATM   18  C3  UNL     1      20.602   4.189  49.408  1.00  0.00    -0.027 C 
HETATM   19  C2  UNL     1      20.692   4.635  50.654  1.00  0.00    -0.035 C 
HETATM   20  C1  UNL     1      21.585   5.785  51.041  1.00  0.00     0.036 C 
ENDBRANCH  17  18
ENDBRANCH  16  17
ENDBRANCH   1  15
TORSDOF 3
ENDMDL
MODEL 8
REMARK VINA RESULT:      -6.6      4.496     10.185
REMARK  3 active torsions:
REMARK  status: ('A' for Active; 'I' for Inactive)
REMARK    1  A    between atoms: C3_3  and  C4_4 
REMARK    2  A    between atoms: C4_4  and  C5_5 
REMARK    3  A    between atoms: C6_6  and  C7_7 
ROOT
HETATM    1  C7  UNL     1      28.985   6.515  48.244  1.00  0.00     0.009 C 
HETATM    2  C8  UNL     1      29.841   7.498  48.463  1.00  0.00    -0.029 C 
HETATM    3  C9  UNL     1      29.177   8.730  48.790  1.00  0.00     0.124 C 
HETATM    4  N1  UNL     1      29.204  10.012  49.099  1.00  0.00    -0.273 NA
HETATM    5  C10 UNL     1      30.581  10.496  49.152  1.00  0.00     0.112 C 
HETATM    6  C11 UNL     1      31.336  10.885  48.112  1.00  0.00    -0.004 C 
HETATM    7  C12 UNL     1      32.519  11.398  47.308  1.00  0.00     0.055 C 
HETATM    8  C13 UNL     1      32.894  10.249  46.370  1.00  0.00    -0.027 C 
HETATM    9  C14 UNL     1      32.249   9.058  46.335  1.00  0.00    -0.025 C 
HETATM   10  C15 UNL     1      31.805   7.678  46.019  1.00  0.00     0.082 C 
HETATM   11  C16 UNL     1      31.853   6.748  47.185  1.00  0.00     0.020 A 
HETATM   12  N2  UNL     1      32.115   5.652  47.782  1.00  0.00    -0.296 NA
HETATM   13  C17 UNL     1      31.652   5.991  49.067  1.00  0.00     0.164 A 
HETATM   14  C18 UNL     1      31.286   7.323  48.401  1.00  0.00     0.087 A 
ENDROOT
BRANCH   1  15
HETATM   15  C6  UNL     1      27.538   6.590  48.307  1.00  0.00    -0.003 C 
HETATM   16  C5  UNL     1      26.807   5.538  48.704  1.00  0.00    -0.023 C 
BRANCH  16  17
HETATM   17  C4  UNL     1      27.201   4.175  49.137  1.00  0.00     0.054 C 
BRANCH  17  18
HETATM   18  C3  UNL     1      25.925   3.467  49.525  1.00  0.00    -0.027 C 
HETATM   19  C2  UNL     1      24.667   3.846  49.341  1.00  0.00    -0.035 C 
HETATM   20  C1  UNL     1      23.496   3.013  49.793  1.00  0.00     0.036 C 
ENDBRANCH  17  18
ENDBRANCH  16  17
ENDBRANCH   1  15
TORSDOF 3
ENDMDL
MODEL 9
REMARK VINA RESULT:      -6.5      2.707      7.379
REMARK  3 active torsions:
REMARK  status: ('A' for Active; 'I' for Inactive)
REMARK    1  A    between atoms: C3_3  and  C4_4 
REMARK    2  A    between atoms: C4_4  and  C5_5 
REMARK    3  A    between atoms: C6_6  and  C7_7 
ROOT
HETATM    1  C7  UNL     1      22.993   2.111  49.844  1.00  0.00     0.009 C 
HETATM    2  C8  UNL     1      23.483   3.337  49.795  1.00  0.00    -0.029 C 
HETATM    3  C9  UNL     1      22.847   4.133  48.782  1.00  0.00     0.124 C 
HETATM    4  N1  UNL     1      22.708   5.264  48.116  1.00  0.00    -0.273 NA
HETATM    5  C10 UNL     1      23.657   6.262  48.603  1.00  0.00     0.112 C 
HETATM    6  C11 UNL     1      24.946   6.386  48.247  1.00  0.00    -0.004 C 
HETATM    7  C12 UNL     1      26.372   6.905  48.172  1.00  0.00     0.055 C 
HETATM    8  C13 UNL     1      27.246   5.749  48.659  1.00  0.00    -0.027 C 
HETATM    9  C14 UNL     1      26.761   4.547  49.056  1.00  0.00    -0.025 C 
HETATM   10  C15 UNL     1      26.609   3.156  49.547  1.00  0.00     0.082 C 
HETATM   11  C16 UNL     1      25.764   3.039  50.772  1.00  0.00     0.020 A 
HETATM   12  N2  UNL     1      25.466   2.616  51.937  1.00  0.00    -0.296 NA
HETATM   13  C17 UNL     1      24.242   3.290  52.105  1.00  0.00     0.164 A 
HETATM   14  C18 UNL     1      24.528   3.812  50.692  1.00  0.00     0.087 A 
ENDROOT
BRANCH   1  15
HETATM   15  C6  UNL     1      21.940   1.560  49.013  1.00  0.00    -0.003 C 
HETATM   16  C5  UNL     1      20.907   0.897  49.552  1.00  0.00    -0.023 C 
BRANCH  16  17
HETATM   17  C4  UNL     1      20.575   0.574  50.961  1.00  0.00     0.054 C 
BRANCH  17  18
HETATM   18  C3  UNL     1      19.350   1.388  51.305  1.00  0.00    -0.027 C 
HETATM   19  C2  UNL     1      19.149   2.693  51.182  1.00  0.00    -0.035 C 
HETATM   20  C1  UNL     1      17.854   3.354  51.577  1.00  0.00     0.036 C 
ENDBRANCH  17  18
ENDBRANCH  16  17
ENDBRANCH   1  15
TORSDOF 3
ENDMDL
