MODEL 1
REMARK VINA RESULT:      -8.1      0.000      0.000
REMARK  6 active torsions:
REMARK  status: ('A' for Active; 'I' for Inactive)
REMARK    1  A    between atoms: C4_4  and  C5_5 
REMARK    2  A    between atoms: C5_5  and  N1_6 
REMARK    3  A    between atoms: N2_9  and  C8_10 
REMARK    4  A    between atoms: N5_16  and  C12_17 
REMARK    5  A    between atoms: C12_17  and  C13_18 
REMARK    6  A    between atoms: C23_29  and  O1_30 
ROOT
HETATM    1  C8  UNL     1      24.541   5.661  49.959  1.00  0.00     0.326 C 
HETATM    2  N3  UNL     1      24.303   4.864  51.104  1.00  0.00    -0.366 N 
HETATM    3  C9  UNL     1      24.315   3.580  51.701  1.00  0.00     0.126 C 
HETATM    4  C10 UNL     1      23.388   2.725  52.003  1.00  0.00     0.131 C 
HETATM    5  C11 UNL     1      23.678   1.470  52.608  1.00  0.00     0.119 C 
HETATM    6  N4  UNL     1      23.924   0.455  53.105  1.00  0.00    -0.190 NA
HETATM    7  N5  UNL     1      21.972   2.742  51.857  1.00  0.00    -0.343 N 
HETATM    8  C19 UNL     1      22.210   2.783  50.459  1.00  0.00     0.088 C 
HETATM    9  C20 UNL     1      22.777   2.079  49.504  1.00  0.00    -0.009 C 
HETATM   10  C21 UNL     1      22.606   2.901  48.197  1.00  0.00     0.037 C 
HETATM   11  C22 UNL     1      23.235   4.213  48.608  1.00  0.00     0.038 C 
HETATM   12  C23 UNL     1      23.684   5.489  48.770  1.00  0.00     0.145 C 
HETATM   13  H15 UNL     1      23.965   5.262  52.025  1.00  0.00     0.161 HD
ENDROOT
BRANCH   7  14
HETATM   14  C12 UNL     1      20.854   2.696  52.752  1.00  0.00     0.169 C 
BRANCH  14  15
HETATM   15  C13 UNL     1      19.995   1.484  52.449  1.00  0.00    -0.018 A 
HETATM   16  C14 UNL     1      19.192   1.499  51.334  1.00  0.00     0.010 A 
HETATM   17  C15 UNL     1      18.299   0.440  51.092  1.00  0.00     0.001 A 
HETATM   18  C16 UNL     1      18.188  -0.637  51.932  1.00  0.00     0.002 A 
HETATM   19  C17 UNL     1      19.003  -0.661  53.058  1.00  0.00     0.024 A 
HETATM   20  C18 UNL     1      19.866   0.379  53.279  1.00  0.00     0.042 A 
HETATM   21 CL1  UNL     1      20.944   0.198  54.675  1.00  0.00    -0.084 Cl
ENDBRANCH  14  15
ENDBRANCH   7  14
BRANCH   1  22
HETATM   22  N2  UNL     1      25.981   5.798  49.617  1.00  0.00    -0.033 N 
HETATM   23  C2  UNL     1      27.249   6.225  48.947  1.00  0.00     0.164 A 
HETATM   24  C1  UNL     1      26.547   7.289  49.373  1.00  0.00     0.278 A 
HETATM   25  C3  UNL     1      27.747   4.879  48.566  1.00  0.00     0.039 A 
HETATM   26  C4  UNL     1      28.762   5.641  48.272  1.00  0.00     0.059 A 
HETATM   27  H13 UNL     1      26.287   5.106  50.410  1.00  0.00     0.283 HD
BRANCH  26  28
HETATM   28  C5  UNL     1      29.625   6.795  48.088  1.00  0.00     0.279 C 
BRANCH  28  29
HETATM   29  N1  UNL     1      30.823   6.631  48.879  1.00  0.00     0.080 N 
HETATM   30  C6  UNL     1      31.747   5.706  48.309  1.00  0.00     0.309 C 
HETATM   31  C7  UNL     1      31.425   7.879  49.200  1.00  0.00     0.309 C 
ENDBRANCH  28  29
ENDBRANCH  26  28
ENDBRANCH   1  22
BRANCH  12  32
HETATM   32  O1  UNL     1      23.537   6.704  48.079  1.00  0.00    -0.377 OA
HETATM   33  C24 UNL     1      22.891   7.841  48.539  1.00  0.00     0.202 C 
ENDBRANCH  12  32
TORSDOF 6
ENDMDL
MODEL 2
REMARK VINA RESULT:      -7.7      4.207      9.090
REMARK  6 active torsions:
REMARK  status: ('A' for Active; 'I' for Inactive)
REMARK    1  A    between atoms: C4_4  and  C5_5 
REMARK    2  A    between atoms: C5_5  and  N1_6 
REMARK    3  A    between atoms: N2_9  and  C8_10 
REMARK    4  A    between atoms: N5_16  and  C12_17 
REMARK    5  A    between atoms: C12_17  and  C13_18 
REMARK    6  A    between atoms: C23_29  and  O1_30 
ROOT
HETATM    1  C8  UNL     1      18.918   2.627  51.678  1.00  0.00     0.326 C 
HETATM    2  N3  UNL     1      20.022   3.444  52.023  1.00  0.00    -0.366 N 
HETATM    3  C9  UNL     1      21.137   4.205  51.594  1.00  0.00     0.126 C 
HETATM    4  C10 UNL     1      22.417   3.997  51.603  1.00  0.00     0.131 C 
HETATM    5  C11 UNL     1      23.344   4.949  51.092  1.00  0.00     0.119 C 
HETATM    6  N4  UNL     1      24.090   5.731  50.680  1.00  0.00    -0.190 NA
HETATM    7  N5  UNL     1      23.219   2.913  52.058  1.00  0.00    -0.343 N 
HETATM    8  C19 UNL     1      22.571   2.138  51.061  1.00  0.00     0.088 C 
HETATM    9  C20 UNL     1      22.407   2.093  49.758  1.00  0.00    -0.009 C 
HETATM   10  C21 UNL     1      21.480   0.878  49.478  1.00  0.00     0.037 C 
HETATM   11  C22 UNL     1      20.295   1.225  50.351  1.00  0.00     0.038 C 
HETATM   12  C23 UNL     1      19.161   1.291  51.104  1.00  0.00     0.145 C 
HETATM   13  H15 UNL     1      20.254   3.711  53.021  1.00  0.00     0.161 HD
ENDROOT
BRANCH   7  14
HETATM   14  C12 UNL     1      24.237   2.744  53.053  1.00  0.00     0.169 C 
BRANCH  14  15
HETATM   15  C13 UNL     1      24.980   1.444  52.821  1.00  0.00    -0.018 A 
HETATM   16  C14 UNL     1      24.634   0.338  53.559  1.00  0.00     0.010 A 
HETATM   17  C15 UNL     1      25.383  -0.847  53.450  1.00  0.00     0.001 A 
HETATM   18  C16 UNL     1      26.467  -0.960  52.619  1.00  0.00     0.002 A 
HETATM   19  C17 UNL     1      26.817   0.154  51.864  1.00  0.00     0.024 A 
HETATM   20  C18 UNL     1      26.078   1.300  51.984  1.00  0.00     0.042 A 
HETATM   21 CL1  UNL     1      26.532   2.623  50.894  1.00  0.00    -0.084 Cl
ENDBRANCH  14  15
ENDBRANCH   7  14
BRANCH   1  22
HETATM   22  N2  UNL     1      17.826   3.362  50.987  1.00  0.00    -0.033 N 
HETATM   23  C2  UNL     1      16.466   3.801  50.544  1.00  0.00     0.164 A 
HETATM   24  C1  UNL     1      16.575   3.846  51.884  1.00  0.00     0.278 A 
HETATM   25  C3  UNL     1      16.647   3.599  49.084  1.00  0.00     0.039 A 
HETATM   26  C4  UNL     1      15.495   4.205  49.137  1.00  0.00     0.059 A 
HETATM   27  H13 UNL     1      18.532   4.006  50.450  1.00  0.00     0.283 HD
BRANCH  26  28
HETATM   28  C5  UNL     1      14.294   4.865  49.619  1.00  0.00     0.279 C 
BRANCH  28  29
HETATM   29  N1  UNL     1      13.641   5.538  48.520  1.00  0.00     0.080 N 
HETATM   30  C6  UNL     1      12.509   6.305  48.927  1.00  0.00     0.309 C 
HETATM   31  C7  UNL     1      14.558   6.290  47.734  1.00  0.00     0.309 C 
ENDBRANCH  28  29
ENDBRANCH  26  28
ENDBRANCH   1  22
BRANCH  12  32
HETATM   32  O1  UNL     1      18.146   0.393  51.476  1.00  0.00    -0.377 OA
HETATM   33  C24 UNL     1      18.236  -0.598  52.442  1.00  0.00     0.202 C 
ENDBRANCH  12  32
TORSDOF 6
ENDMDL
MODEL 3
REMARK VINA RESULT:      -7.7      4.170      9.069
REMARK  6 active torsions:
REMARK  status: ('A' for Active; 'I' for Inactive)
REMARK    1  A    between atoms: C4_4  and  C5_5 
REMARK    2  A    between atoms: C5_5  and  N1_6 
REMARK    3  A    between atoms: N2_9  and  C8_10 
REMARK    4  A    between atoms: N5_16  and  C12_17 
REMARK    5  A    between atoms: C12_17  and  C13_18 
REMARK    6  A    between atoms: C23_29  and  O1_30 
ROOT
HETATM    1  C8  UNL     1      21.093   2.312  50.482  1.00  0.00     0.326 C 
HETATM    2  N3  UNL     1      21.942   1.286  50.963  1.00  0.00    -0.366 N 
HETATM    3  C9  UNL     1      22.605   0.690  52.064  1.00  0.00     0.126 C 
HETATM    4  C10 UNL     1      23.836   0.684  52.469  1.00  0.00     0.131 C 
HETATM    5  C11 UNL     1      24.247  -0.008  53.642  1.00  0.00     0.119 C 
HETATM    6  N4  UNL     1      24.572  -0.580  54.595  1.00  0.00    -0.190 NA
HETATM    7  N5  UNL     1      25.026   1.277  51.958  1.00  0.00    -0.343 N 
HETATM    8  C19 UNL     1      24.400   2.525  52.208  1.00  0.00     0.088 C 
HETATM    9  C20 UNL     1      23.905   3.233  53.200  1.00  0.00    -0.009 C 
HETATM   10  C21 UNL     1      23.357   4.542  52.569  1.00  0.00     0.037 C 
HETATM   11  C22 UNL     1      22.412   3.979  51.532  1.00  0.00     0.038 C 
HETATM   12  C23 UNL     1      21.567   3.708  50.498  1.00  0.00     0.145 C 
HETATM   13  H15 UNL     1      22.346   0.531  50.341  1.00  0.00     0.161 HD
ENDROOT
BRANCH   7  14
HETATM   14  C12 UNL     1      26.279   0.786  51.465  1.00  0.00     0.169 C 
BRANCH  14  15
HETATM   15  C13 UNL     1      27.334   0.875  52.549  1.00  0.00    -0.018 A 
HETATM   16  C14 UNL     1      27.800   2.112  52.925  1.00  0.00     0.010 A 
HETATM   17  C15 UNL     1      28.861   2.219  53.842  1.00  0.00     0.001 A 
HETATM   18  C16 UNL     1      29.469   1.123  54.397  1.00  0.00     0.002 A 
HETATM   19  C17 UNL     1      28.997  -0.131  54.025  1.00  0.00     0.024 A 
HETATM   20  C18 UNL     1      27.965  -0.217  53.130  1.00  0.00     0.042 A 
HETATM   21 CL1  UNL     1      27.359  -1.853  52.812  1.00  0.00    -0.084 Cl
ENDBRANCH  14  15
ENDBRANCH   7  14
BRANCH   1  22
HETATM   22  N2  UNL     1      19.682   2.177  50.929  1.00  0.00    -0.033 N 
HETATM   23  C2  UNL     1      18.198   1.983  50.916  1.00  0.00     0.164 A 
HETATM   24  C1  UNL     1      18.824   0.953  50.321  1.00  0.00     0.278 A 
HETATM   25  C3  UNL     1      17.815   3.257  51.576  1.00  0.00     0.039 A 
HETATM   26  C4  UNL     1      16.680   2.621  51.526  1.00  0.00     0.059 A 
HETATM   27  H13 UNL     1      19.949   2.326  51.982  1.00  0.00     0.283 HD
BRANCH  26  28
HETATM   28  C5  UNL     1      15.661   1.616  51.280  1.00  0.00     0.279 C 
BRANCH  28  29
HETATM   29  N1  UNL     1      15.236   1.043  52.537  1.00  0.00     0.080 N 
HETATM   30  C6  UNL     1      13.870   1.317  52.843  1.00  0.00     0.309 C 
HETATM   31  C7  UNL     1      15.550  -0.342  52.626  1.00  0.00     0.309 C 
ENDBRANCH  28  29
ENDBRANCH  26  28
ENDBRANCH   1  22
BRANCH  12  32
HETATM   32  O1  UNL     1      21.022   4.435  49.427  1.00  0.00    -0.377 OA
HETATM   33  C24 UNL     1      21.630   5.477  48.743  1.00  0.00     0.202 C 
ENDBRANCH  12  32
TORSDOF 6
ENDMDL
MODEL 4
REMARK VINA RESULT:      -7.7      2.417      3.694
REMARK  6 active torsions:
REMARK  status: ('A' for Active; 'I' for Inactive)
REMARK    1  A    between atoms: C4_4  and  C5_5 
REMARK    2  A    between atoms: C5_5  and  N1_6 
REMARK    3  A    between atoms: N2_9  and  C8_10 
REMARK    4  A    between atoms: N5_16  and  C12_17 
REMARK    5  A    between atoms: C12_17  and  C13_18 
REMARK    6  A    between atoms: C23_29  and  O1_30 
ROOT
HETATM    1  C8  UNL     1      26.103   3.230  49.990  1.00  0.00     0.326 C 
HETATM    2  N3  UNL     1      24.843   3.053  49.367  1.00  0.00    -0.366 N 
HETATM    3  C9  UNL     1      23.510   3.501  49.199  1.00  0.00     0.126 C 
HETATM    4  C10 UNL     1      22.364   3.079  49.635  1.00  0.00     0.131 C 
HETATM    5  C11 UNL     1      21.142   3.733  49.313  1.00  0.00     0.119 C 
HETATM    6  N4  UNL     1      20.153   4.268  49.041  1.00  0.00    -0.190 NA
HETATM    7  N5  UNL     1      21.987   1.982  50.460  1.00  0.00    -0.343 N 
HETATM    8  C19 UNL     1      22.733   2.617  51.485  1.00  0.00     0.088 C 
HETATM    9  C20 UNL     1      22.767   3.738  52.172  1.00  0.00    -0.009 C 
HETATM   10  C21 UNL     1      23.989   3.627  53.125  1.00  0.00     0.037 C 
HETATM   11  C22 UNL     1      25.094   3.347  52.132  1.00  0.00     0.038 C 
HETATM   12  C23 UNL     1      26.224   3.022  51.444  1.00  0.00     0.145 C 
HETATM   13  H15 UNL     1      24.646   2.279  48.673  1.00  0.00     0.161 HD
ENDROOT
BRANCH   7  14
HETATM   14  C12 UNL     1      21.179   0.810  50.292  1.00  0.00     0.169 C 
BRANCH  14  15
HETATM   15  C13 UNL     1      20.887   0.183  51.640  1.00  0.00    -0.018 A 
HETATM   16  C14 UNL     1      21.928  -0.333  52.374  1.00  0.00     0.010 A 
HETATM   17  C15 UNL     1      21.674  -1.026  53.571  1.00  0.00     0.001 A 
HETATM   18  C16 UNL     1      20.407  -1.214  54.059  1.00  0.00     0.002 A 
HETATM   19  C17 UNL     1      19.351  -0.688  53.324  1.00  0.00     0.024 A 
HETATM   20  C18 UNL     1      19.616  -0.019  52.160  1.00  0.00     0.042 A 
HETATM   21 CL1  UNL     1      18.213   0.715  51.360  1.00  0.00    -0.084 Cl
ENDBRANCH  14  15
ENDBRANCH   7  14
BRANCH   1  22
HETATM   22  N2  UNL     1      26.838   4.432  49.516  1.00  0.00    -0.033 N 
HETATM   23  C2  UNL     1      27.219   5.649  48.733  1.00  0.00     0.164 A 
HETATM   24  C1  UNL     1      25.974   5.764  49.229  1.00  0.00     0.278 A 
HETATM   25  C3  UNL     1      28.568   5.205  48.300  1.00  0.00     0.039 A 
HETATM   26  C4  UNL     1      28.552   6.449  47.917  1.00  0.00     0.059 A 
HETATM   27  H13 UNL     1      27.621   4.313  50.273  1.00  0.00     0.283 HD
BRANCH  26  28
HETATM   28  C5  UNL     1      28.140   7.818  47.659  1.00  0.00     0.279 C 
BRANCH  28  29
HETATM   29  N1  UNL     1      29.290   8.689  47.732  1.00  0.00     0.080 N 
HETATM   30  C6  UNL     1      29.022  10.009  47.261  1.00  0.00     0.309 C 
HETATM   31  C7  UNL     1      29.887   8.679  49.023  1.00  0.00     0.309 C 
ENDBRANCH  28  29
ENDBRANCH  26  28
ENDBRANCH   1  22
BRANCH  12  32
HETATM   32  O1  UNL     1      27.499   2.532  51.776  1.00  0.00    -0.377 OA
HETATM   33  C24 UNL     1      27.843   1.842  52.929  1.00  0.00     0.202 C 
ENDBRANCH  12  32
TORSDOF 6
ENDMDL
MODEL 5
REMARK VINA RESULT:      -7.6      3.621      6.533
REMARK  6 active torsions:
REMARK  status: ('A' for Active; 'I' for Inactive)
REMARK    1  A    between atoms: C4_4  and  C5_5 
REMARK    2  A    between atoms: C5_5  and  N1_6 
REMARK    3  A    between atoms: N2_9  and  C8_10 
REMARK    4  A    between atoms: N5_16  and  C12_17 
REMARK    5  A    between atoms: C12_17  and  C13_18 
REMARK    6  A    between atoms: C23_29  and  O1_30 
ROOT
HETATM    1  C8  UNL     1      24.669   3.465  51.150  1.00  0.00     0.326 C 
HETATM    2  N3  UNL     1      23.425   3.939  51.632  1.00  0.00    -0.366 N 
HETATM    3  C9  UNL     1      22.039   3.710  51.817  1.00  0.00     0.126 C 
HETATM    4  C10 UNL     1      20.974   4.148  51.222  1.00  0.00     0.131 C 
HETATM    5  C11 UNL     1      19.666   3.745  51.612  1.00  0.00     0.119 C 
HETATM    6  N4  UNL     1      18.606   3.416  51.941  1.00  0.00    -0.190 NA
HETATM    7  N5  UNL     1      20.772   5.049  50.139  1.00  0.00    -0.343 N 
HETATM    8  C19 UNL     1      21.460   4.098  49.342  1.00  0.00     0.088 C 
HETATM    9  C20 UNL     1      21.367   2.849  48.944  1.00  0.00    -0.009 C 
HETATM   10  C21 UNL     1      22.623   2.575  48.071  1.00  0.00     0.037 C 
HETATM   11  C22 UNL     1      23.723   2.954  49.037  1.00  0.00     0.038 C 
HETATM   12  C23 UNL     1      24.863   3.297  49.698  1.00  0.00     0.145 C 
HETATM   13  H15 UNL     1      23.309   4.876  52.110  1.00  0.00     0.161 HD
ENDROOT
BRANCH   7  14
HETATM   14  C12 UNL     1      20.121   6.316  49.973  1.00  0.00     0.169 C 
BRANCH  14  15
HETATM   15  C13 UNL     1      20.996   7.246  49.158  1.00  0.00    -0.018 A 
HETATM   16  C14 UNL     1      21.911   8.040  49.807  1.00  0.00     0.010 A 
HETATM   17  C15 UNL     1      22.652   8.996  49.090  1.00  0.00     0.001 A 
HETATM   18  C16 UNL     1      22.508   9.180  47.740  1.00  0.00     0.002 A 
HETATM   19  C17 UNL     1      21.588   8.375  47.077  1.00  0.00     0.024 A 
HETATM   20  C18 UNL     1      20.874   7.450  47.790  1.00  0.00     0.042 A 
HETATM   21 CL1  UNL     1      19.817   6.394  46.835  1.00  0.00    -0.084 Cl
ENDBRANCH  14  15
ENDBRANCH   7  14
BRANCH   1  22
HETATM   22  N2  UNL     1      25.223   2.335  51.941  1.00  0.00    -0.033 N 
HETATM   23  C2  UNL     1      26.089   1.532  52.860  1.00  0.00     0.164 A 
HETATM   24  C1  UNL     1      25.613   2.626  53.479  1.00  0.00     0.278 A 
HETATM   25  C3  UNL     1      26.476   0.465  51.902  1.00  0.00     0.039 A 
HETATM   26  C4  UNL     1      26.949   0.010  53.027  1.00  0.00     0.059 A 
HETATM   27  H13 UNL     1      24.452   1.642  51.584  1.00  0.00     0.283 HD
BRANCH  26  28
HETATM   28  C5  UNL     1      27.309  -0.129  54.428  1.00  0.00     0.279 C 
BRANCH  28  29
HETATM   29  N1  UNL     1      28.747  -0.104  54.561  1.00  0.00     0.080 N 
HETATM   30  C6  UNL     1      29.406  -1.019  53.687  1.00  0.00     0.309 C 
HETATM   31  C7  UNL     1      29.269   1.216  54.466  1.00  0.00     0.309 C 
ENDBRANCH  28  29
ENDBRANCH  26  28
ENDBRANCH   1  22
BRANCH  12  32
HETATM   32  O1  UNL     1      26.201   3.534  49.341  1.00  0.00    -0.377 OA
HETATM   33  C24 UNL     1      26.770   4.763  49.043  1.00  0.00     0.202 C 
ENDBRANCH  12  32
TORSDOF 6
ENDMDL
MODEL 6
REMARK VINA RESULT:      -7.6      2.421      3.796
REMARK  6 active torsions:
REMARK  status: ('A' for Active; 'I' for Inactive)
REMARK    1  A    between atoms: C4_4  and  C5_5 
REMARK    2  A    between atoms: C5_5  and  N1_6 
REMARK    3  A    between atoms: N2_9  and  C8_10 
REMARK    4  A    between atoms: N5_16  and  C12_17 
REMARK    5  A    between atoms: C12_17  and  C13_18 
REMARK    6  A    between atoms: C23_29  and  O1_30 
ROOT
HETATM    1  C8  UNL     1      24.090   2.937  50.276  1.00  0.00     0.326 C 
HETATM    2  N3  UNL     1      23.093   2.415  49.417  1.00  0.00    -0.366 N 
HETATM    3  C9  UNL     1      22.020   2.666  48.527  1.00  0.00     0.126 C 
HETATM    4  C10 UNL     1      20.731   2.568  48.631  1.00  0.00     0.131 C 
HETATM    5  C11 UNL     1      19.856   2.896  47.558  1.00  0.00     0.119 C 
HETATM    6  N4  UNL     1      19.152   3.159  46.677  1.00  0.00    -0.190 NA
HETATM    7  N5  UNL     1      19.874   2.161  49.692  1.00  0.00    -0.343 N 
HETATM    8  C19 UNL     1      20.372   3.285  50.400  1.00  0.00     0.088 C 
HETATM    9  C20 UNL     1      20.430   4.595  50.315  1.00  0.00    -0.009 C 
HETATM   10  C21 UNL     1      21.223   5.078  51.561  1.00  0.00     0.037 C 
HETATM   11  C22 UNL     1      22.497   4.279  51.409  1.00  0.00     0.038 C 
HETATM   12  C23 UNL     1      23.686   3.623  51.517  1.00  0.00     0.145 C 
HETATM   13  H15 UNL     1      22.963   1.379  49.245  1.00  0.00     0.161 HD
ENDROOT
BRANCH   7  14
HETATM   14  C12 UNL     1      18.924   1.105  49.887  1.00  0.00     0.169 C 
BRANCH  14  15
HETATM   15  C13 UNL     1      19.169   0.427  51.220  1.00  0.00    -0.018 A 
HETATM   16  C14 UNL     1      20.448   0.383  51.721  1.00  0.00     0.010 A 
HETATM   17  C15 UNL     1      20.723  -0.341  52.895  1.00  0.00     0.001 A 
HETATM   18  C16 UNL     1      19.755  -1.021  53.586  1.00  0.00     0.002 A 
HETATM   19  C17 UNL     1      18.458  -0.975  53.087  1.00  0.00     0.024 A 
HETATM   20  C18 UNL     1      18.207  -0.266  51.942  1.00  0.00     0.042 A 
HETATM   21 CL1  UNL     1      16.505  -0.171  51.456  1.00  0.00    -0.084 Cl
ENDBRANCH  14  15
ENDBRANCH   7  14
BRANCH   1  22
HETATM   22  N2  UNL     1      25.187   3.639  49.559  1.00  0.00    -0.033 N 
HETATM   23  C2  UNL     1      26.511   4.262  49.246  1.00  0.00     0.164 A 
HETATM   24  C1  UNL     1      26.658   2.980  49.627  1.00  0.00     0.278 A 
HETATM   25  C3  UNL     1      26.027   5.627  48.918  1.00  0.00     0.039 A 
HETATM   26  C4  UNL     1      27.282   5.691  48.577  1.00  0.00     0.059 A 
HETATM   27  H13 UNL     1      24.576   3.780  48.660  1.00  0.00     0.283 HD
BRANCH  26  28
HETATM   28  C5  UNL     1      28.675   5.354  48.335  1.00  0.00     0.279 C 
BRANCH  28  29
HETATM   29  N1  UNL     1      29.351   6.490  47.753  1.00  0.00     0.080 N 
HETATM   30  C6  UNL     1      29.056   7.718  48.417  1.00  0.00     0.309 C 
HETATM   31  C7  UNL     1      30.749   6.266  47.613  1.00  0.00     0.309 C 
ENDBRANCH  28  29
ENDBRANCH  26  28
ENDBRANCH   1  22
BRANCH  12  32
HETATM   32  O1  UNL     1      24.643   3.435  52.529  1.00  0.00    -0.377 OA
HETATM   33  C24 UNL     1      25.009   2.226  53.102  1.00  0.00     0.202 C 
ENDBRANCH  12  32
TORSDOF 6
ENDMDL
MODEL 7
REMARK VINA RESULT:      -7.2      3.553      5.444
REMARK  6 active torsions:
REMARK  status: ('A' for Active; 'I' for Inactive)
REMARK    1  A    between atoms: C4_4  and  C5_5 
REMARK    2  A    between atoms: C5_5  and  N1_6 
REMARK    3  A    between atoms: N2_9  and  C8_10 
REMARK    4  A    between atoms: N5_16  and  C12_17 
REMARK    5  A    between atoms: C12_17  and  C13_18 
REMARK    6  A    between atoms: C23_29  and  O1_30 
ROOT
HETATM    1  C8  UNL     1      23.388   2.628  52.148  1.00  0.00     0.326 C 
HETATM    2  N3  UNL     1      22.060   2.303  52.516  1.00  0.00    -0.366 N 
HETATM    3  C9  UNL     1      20.971   1.403  52.421  1.00  0.00     0.126 C 
HETATM    4  C10 UNL     1      19.847   1.426  51.776  1.00  0.00     0.131 C 
HETATM    5  C11 UNL     1      18.905   0.361  51.852  1.00  0.00     0.119 C 
HETATM    6  N4  UNL     1      18.143  -0.507  51.925  1.00  0.00    -0.190 NA
HETATM    7  N5  UNL     1      19.253   2.378  50.900  1.00  0.00    -0.343 N 
HETATM    8  C19 UNL     1      20.347   2.126  50.034  1.00  0.00     0.088 C 
HETATM    9  C20 UNL     1      20.904   1.144  49.360  1.00  0.00    -0.009 C 
HETATM   10  C21 UNL     1      22.152   1.749  48.661  1.00  0.00     0.037 C 
HETATM   11  C22 UNL     1      22.887   2.325  49.850  1.00  0.00     0.038 C 
HETATM   12  C23 UNL     1      23.683   2.974  50.745  1.00  0.00     0.145 C 
HETATM   13  H15 UNL     1      21.478   2.903  53.165  1.00  0.00     0.161 HD
ENDROOT
BRANCH   7  14
HETATM   14  C12 UNL     1      18.061   3.175  50.917  1.00  0.00     0.169 C 
BRANCH  14  15
HETATM   15  C13 UNL     1      17.037   2.596  49.962  1.00  0.00    -0.018 A 
HETATM   16  C14 UNL     1      17.260   2.689  48.609  1.00  0.00     0.010 A 
HETATM   17  C15 UNL     1      16.274   2.268  47.699  1.00  0.00     0.001 A 
HETATM   18  C16 UNL     1      15.070   1.753  48.102  1.00  0.00     0.002 A 
HETATM   19  C17 UNL     1      14.841   1.651  49.470  1.00  0.00     0.024 A 
HETATM   20  C18 UNL     1      15.811   2.066  50.342  1.00  0.00     0.042 A 
HETATM   21 CL1  UNL     1      15.471   1.784  52.060  1.00  0.00    -0.084 Cl
ENDBRANCH  14  15
ENDBRANCH   7  14
BRANCH   1  22
HETATM   22  N2  UNL     1      24.410   1.730  52.747  1.00  0.00    -0.033 N 
HETATM   23  C2  UNL     1      25.716   1.191  53.240  1.00  0.00     0.164 A 
HETATM   24  C1  UNL     1      25.440   2.380  53.805  1.00  0.00     0.278 A 
HETATM   25  C3  UNL     1      25.750  -0.051  52.427  1.00  0.00     0.039 A 
HETATM   26  C4  UNL     1      26.763  -0.219  53.228  1.00  0.00     0.059 A 
HETATM   27  H13 UNL     1      23.673   0.945  52.952  1.00  0.00     0.283 HD
BRANCH  26  28
HETATM   28  C5  UNL     1      27.763  -0.020  54.263  1.00  0.00     0.279 C 
BRANCH  28  29
HETATM   29  N1  UNL     1      28.992   0.446  53.663  1.00  0.00     0.080 N 
HETATM   30  C6  UNL     1      29.432   1.697  54.188  1.00  0.00     0.309 C 
HETATM   31  C7  UNL     1      30.010  -0.548  53.689  1.00  0.00     0.309 C 
ENDBRANCH  28  29
ENDBRANCH  26  28
ENDBRANCH   1  22
BRANCH  12  32
HETATM   32  O1  UNL     1      24.733   3.905  50.668  1.00  0.00    -0.377 OA
HETATM   33  C24 UNL     1      25.976   3.700  50.088  1.00  0.00     0.202 C 
ENDBRANCH  12  32
TORSDOF 6
ENDMDL
MODEL 8
REMARK VINA RESULT:      -7.2      5.930     10.867
REMARK  6 active torsions:
REMARK  status: ('A' for Active; 'I' for Inactive)
REMARK    1  A    between atoms: C4_4  and  C5_5 
REMARK    2  A    between atoms: C5_5  and  N1_6 
REMARK    3  A    between atoms: N2_9  and  C8_10 
REMARK    4  A    between atoms: N5_16  and  C12_17 
REMARK    5  A    between atoms: C12_17  and  C13_18 
REMARK    6  A    between atoms: C23_29  and  O1_30 
ROOT
HETATM    1  C8  UNL     1      26.361   7.600  49.673  1.00  0.00     0.326 C 
HETATM    2  N3  UNL     1      27.407   8.457  50.090  1.00  0.00    -0.366 N 
HETATM    3  C9  UNL     1      28.244   9.563  49.803  1.00  0.00     0.126 C 
HETATM    4  C10 UNL     1      29.486   9.676  49.448  1.00  0.00     0.131 C 
HETATM    5  C11 UNL     1      30.097  10.939  49.211  1.00  0.00     0.119 C 
HETATM    6  N4  UNL     1      30.587  11.971  49.027  1.00  0.00    -0.190 NA
HETATM    7  N5  UNL     1      30.514   8.721  49.208  1.00  0.00    -0.343 N 
HETATM    8  C19 UNL     1      29.705   8.257  48.139  1.00  0.00     0.088 C 
HETATM    9  C20 UNL     1      29.173   8.675  47.012  1.00  0.00    -0.009 C 
HETATM   10  C21 UNL     1      28.363   7.479  46.442  1.00  0.00     0.037 C 
HETATM   11  C22 UNL     1      27.452   7.177  47.610  1.00  0.00     0.038 C 
HETATM   12  C23 UNL     1      26.590   6.682  48.541  1.00  0.00     0.145 C 
HETATM   13  H15 UNL     1      27.886   8.369  51.030  1.00  0.00     0.161 HD
ENDROOT
BRANCH   7  14
HETATM   14  C12 UNL     1      31.792   8.430  49.789  1.00  0.00     0.169 C 
BRANCH  14  15
HETATM   15  C13 UNL     1      32.603   7.559  48.851  1.00  0.00    -0.018 A 
HETATM   16  C14 UNL     1      32.688   6.210  49.100  1.00  0.00     0.010 A 
HETATM   17  C15 UNL     1      33.528   5.398  48.317  1.00  0.00     0.001 A 
HETATM   18  C16 UNL     1      34.283   5.896  47.287  1.00  0.00     0.002 A 
HETATM   19  C17 UNL     1      34.195   7.259  47.026  1.00  0.00     0.024 A 
HETATM   20  C18 UNL     1      33.374   8.035  47.799  1.00  0.00     0.042 A 
HETATM   21 CL1  UNL     1      33.242   9.734  47.311  1.00  0.00    -0.084 Cl
ENDBRANCH  14  15
ENDBRANCH   7  14
BRANCH   1  22
HETATM   22  N2  UNL     1      25.032   8.264  49.618  1.00  0.00    -0.033 N 
HETATM   23  C2  UNL     1      23.552   8.483  49.581  1.00  0.00     0.164 A 
HETATM   24  C1  UNL     1      23.906   7.758  50.657  1.00  0.00     0.278 A 
HETATM   25  C3  UNL     1      23.485   9.240  48.306  1.00  0.00     0.039 A 
HETATM   26  C4  UNL     1      22.268   9.351  48.756  1.00  0.00     0.059 A 
HETATM   27  H13 UNL     1      25.478   9.264  49.575  1.00  0.00     0.283 HD
BRANCH  26  28
HETATM   28  C5  UNL     1      21.075   9.237  49.578  1.00  0.00     0.279 C 
BRANCH  28  29
HETATM   29  N1  UNL     1      20.062  10.140  49.084  1.00  0.00     0.080 N 
HETATM   30  C6  UNL     1      18.764   9.864  49.606  1.00  0.00     0.309 C 
HETATM   31  C7  UNL     1      20.438  11.503  49.244  1.00  0.00     0.309 C 
ENDBRANCH  28  29
ENDBRANCH  26  28
ENDBRANCH   1  22
BRANCH  12  32
HETATM   32  O1  UNL     1      25.848   5.499  48.699  1.00  0.00    -0.377 OA
HETATM   33  C24 UNL     1      26.235   4.371  49.407  1.00  0.00     0.202 C 
ENDBRANCH  12  32
TORSDOF 6
ENDMDL
MODEL 9
REMARK VINA RESULT:      -7.0      2.889      4.333
REMARK  6 active torsions:
REMARK  status: ('A' for Active; 'I' for Inactive)
REMARK    1  A    between atoms: C4_4  and  C5_5 
REMARK    2  A    between atoms: C5_5  and  N1_6 
REMARK    3  A    between atoms: N2_9  and  C8_10 
REMARK    4  A    between atoms: N5_16  and  C12_17 
REMARK    5  A    between atoms: C12_17  and  C13_18 
REMARK    6  A    between atoms: C23_29  and  O1_30 
ROOT
HETATM    1  C8  UNL     1      26.297   6.656  49.460  1.00  0.00     0.326 C 
HETATM    2  N3  UNL     1      25.485   5.498  49.388  1.00  0.00    -0.366 N 
HETATM    3  C9  UNL     1      24.359   4.851  48.824  1.00  0.00     0.126 C 
HETATM    4  C10 UNL     1      23.170   4.581  49.265  1.00  0.00     0.131 C 
HETATM    5  C11 UNL     1      22.200   3.907  48.470  1.00  0.00     0.119 C 
HETATM    6  N4  UNL     1      21.421   3.353  47.818  1.00  0.00    -0.190 NA
HETATM    7  N5  UNL     1      22.520   4.825  50.507  1.00  0.00    -0.343 N 
HETATM    8  C19 UNL     1      22.663   6.203  50.204  1.00  0.00     0.088 C 
HETATM    9  C20 UNL     1      22.306   7.088  49.300  1.00  0.00    -0.009 C 
HETATM   10  C21 UNL     1      22.948   8.435  49.730  1.00  0.00     0.037 C 
HETATM   11  C22 UNL     1      24.403   8.034  49.823  1.00  0.00     0.038 C 
HETATM   12  C23 UNL     1      25.740   7.893  50.038  1.00  0.00     0.145 C 
HETATM   13  H15 UNL     1      25.681   4.620  49.945  1.00  0.00     0.161 HD
ENDROOT
BRANCH   7  14
HETATM   14  C12 UNL     1      21.956   4.008  51.541  1.00  0.00     0.169 C 
BRANCH  14  15
HETATM   15  C13 UNL     1      23.000   3.046  52.071  1.00  0.00    -0.018 A 
HETATM   16  C14 UNL     1      23.973   3.519  52.918  1.00  0.00     0.010 A 
HETATM   17  C15 UNL     1      25.022   2.678  53.330  1.00  0.00     0.001 A 
HETATM   18  C16 UNL     1      25.124   1.374  52.922  1.00  0.00     0.002 A 
HETATM   19  C17 UNL     1      24.139   0.888  52.071  1.00  0.00     0.024 A 
HETATM   20  C18 UNL     1      23.126   1.721  51.678  1.00  0.00     0.042 A 
HETATM   21 CL1  UNL     1      21.857   0.973  50.689  1.00  0.00    -0.084 Cl
ENDBRANCH  14  15
ENDBRANCH   7  14
BRANCH   1  22
HETATM   22  N2  UNL     1      27.094   6.902  48.229  1.00  0.00    -0.033 N 
HETATM   23  C2  UNL     1      28.210   7.295  47.312  1.00  0.00     0.164 A 
HETATM   24  C1  UNL     1      28.628   6.401  48.226  1.00  0.00     0.278 A 
HETATM   25  C3  UNL     1      27.465   8.281  46.489  1.00  0.00     0.039 A 
HETATM   26  C4  UNL     1      28.593   8.181  45.845  1.00  0.00     0.059 A 
HETATM   27  H13 UNL     1      26.290   6.544  47.577  1.00  0.00     0.283 HD
BRANCH  26  28
HETATM   28  C5  UNL     1      29.935   7.793  45.447  1.00  0.00     0.279 C 
BRANCH  28  29
HETATM   29  N1  UNL     1      30.729   8.977  45.215  1.00  0.00     0.080 N 
HETATM   30  C6  UNL     1      30.944   9.747  46.396  1.00  0.00     0.309 C 
HETATM   31  C7  UNL     1      31.939   8.682  44.526  1.00  0.00     0.309 C 
ENDBRANCH  28  29
ENDBRANCH  26  28
ENDBRANCH   1  22
BRANCH  12  32
HETATM   32  O1  UNL     1      26.742   8.641  50.681  1.00  0.00    -0.377 OA
HETATM   33  C24 UNL     1      27.565   9.591  50.095  1.00  0.00     0.202 C 
ENDBRANCH  12  32
TORSDOF 6
ENDMDL
