MODEL 1
REMARK VINA RESULT:      -7.2      0.000      0.000
REMARK  6 active torsions:
REMARK  status: ('A' for Active; 'I' for Inactive)
REMARK    1  A    between atoms: C2_2  and  O1_3 
REMARK    2  A    between atoms: O1_3  and  C3_4 
REMARK    3  A    between atoms: C7_8  and  C8_9 
REMARK    4  A    between atoms: C8_9  and  C9_10 
REMARK    5  A    between atoms: C9_10  and  C10_11 
REMARK    6  A    between atoms: C10_11  and  C11_12 
ROOT
HETATM    1  C3  UNL     1      22.835   0.571  53.361  1.00  0.00     0.077 A 
HETATM    2  C4  UNL     1      23.590   1.485  52.718  1.00  0.00    -0.016 A 
HETATM    3  C5  UNL     1      23.079   2.694  52.061  1.00  0.00     0.052 C 
HETATM    4  C6  UNL     1      24.990   1.079  52.786  1.00  0.00     0.005 A 
HETATM    5  C7  UNL     1      26.178   1.477  52.344  1.00  0.00    -0.044 A 
HETATM    6  C12 UNL     1      27.473   0.818  52.634  1.00  0.00     0.163 A 
HETATM    7  C13 UNL     1      28.251   1.739  53.482  1.00  0.00     0.073 C 
HETATM    8  N1  UNL     1      28.873   2.455  54.170  1.00  0.00    -0.196 NA
HETATM    9  C14 UNL     1      27.176  -0.428  53.413  1.00  0.00     0.114 A 
HETATM   10  N2  UNL     1      26.069  -0.928  53.851  1.00  0.00    -0.263 NA
HETATM   11  C15 UNL     1      24.868  -0.178  53.555  1.00  0.00     0.070 A 
HETATM   12  C16 UNL     1      23.644  -0.492  53.896  1.00  0.00     0.069 A 
ENDROOT
BRANCH   5  13
HETATM   13  C8  UNL     1      26.145   2.688  51.519  1.00  0.00     0.037 C 
BRANCH  13  14
HETATM   14  C9  UNL     1      26.474   2.558  50.084  1.00  0.00     0.011 C 
BRANCH  14  15
HETATM   15  C10 UNL     1      26.229   3.885  49.432  1.00  0.00     0.011 C 
BRANCH  15  16
HETATM   16  C11 UNL     1      27.142   4.705  48.963  1.00  0.00     0.237 C 
HETATM   17 CL1  UNL     1      28.630   5.339  48.290  1.00  0.00    -0.255 Cl
ENDBRANCH  15  16
ENDBRANCH  14  15
ENDBRANCH  13  14
ENDBRANCH   5  13
BRANCH   1  18
HETATM   18  O1  UNL     1      21.441   0.654  53.488  1.00  0.00    -0.351 OA
BRANCH  18  19
HETATM   19  C2  UNL     1      20.634  -0.293  52.823  1.00  0.00     0.171 C 
HETATM   20  C1  UNL     1      19.989   0.331  51.608  1.00  0.00     0.034 C 
ENDBRANCH  18  19
ENDBRANCH   1  18
TORSDOF 6
ENDMDL
MODEL 2
REMARK VINA RESULT:      -6.8      3.611      5.994
REMARK  6 active torsions:
REMARK  status: ('A' for Active; 'I' for Inactive)
REMARK    1  A    between atoms: C2_2  and  O1_3 
REMARK    2  A    between atoms: O1_3  and  C3_4 
REMARK    3  A    between atoms: C7_8  and  C8_9 
REMARK    4  A    between atoms: C8_9  and  C9_10 
REMARK    5  A    between atoms: C9_10  and  C10_11 
REMARK    6  A    between atoms: C10_11  and  C11_12 
ROOT
HETATM    1  C3  UNL     1      26.862   0.404  53.210  1.00  0.00     0.077 A 
HETATM    2  C4  UNL     1      25.527   0.525  53.060  1.00  0.00    -0.016 A 
HETATM    3  C5  UNL     1      24.520  -0.265  53.776  1.00  0.00     0.052 C 
HETATM    4  C6  UNL     1      25.251   1.568  52.078  1.00  0.00     0.005 A 
HETATM    5  C7  UNL     1      24.213   2.127  51.464  1.00  0.00    -0.044 A 
HETATM    6  C12 UNL     1      24.283   3.242  50.491  1.00  0.00     0.163 A 
HETATM    7  C13 UNL     1      23.656   4.416  51.126  1.00  0.00     0.073 C 
HETATM    8  N1  UNL     1      23.175   5.360  51.626  1.00  0.00    -0.196 NA
HETATM    9  C14 UNL     1      25.733   3.535  50.249  1.00  0.00     0.114 A 
HETATM   10  N2  UNL     1      26.810   3.030  50.750  1.00  0.00    -0.263 NA
HETATM   11  C15 UNL     1      26.628   1.980  51.729  1.00  0.00     0.070 A 
HETATM   12  C16 UNL     1      27.569   1.328  52.364  1.00  0.00     0.069 A 
ENDROOT
BRANCH   5  13
HETATM   13  C8  UNL     1      22.913   1.563  51.835  1.00  0.00     0.037 C 
BRANCH  13  14
HETATM   14  C9  UNL     1      22.047   1.048  50.755  1.00  0.00     0.011 C 
BRANCH  14  15
HETATM   15  C10 UNL     1      20.922   0.286  51.387  1.00  0.00     0.011 C 
BRANCH  15  16
HETATM   16  C11 UNL     1      20.772   0.033  52.667  1.00  0.00     0.237 C 
HETATM   17 CL1  UNL     1      20.841   0.156  54.413  1.00  0.00    -0.255 Cl
ENDBRANCH  15  16
ENDBRANCH  14  15
ENDBRANCH  13  14
ENDBRANCH   5  13
BRANCH   1  18
HETATM   18  O1  UNL     1      27.474  -0.509  54.081  1.00  0.00    -0.351 OA
BRANCH  18  19
HETATM   19  C2  UNL     1      28.779  -0.244  54.545  1.00  0.00     0.171 C 
HETATM   20  C1  UNL     1      29.786  -1.057  53.766  1.00  0.00     0.034 C 
ENDBRANCH  18  19
ENDBRANCH   1  18
TORSDOF 6
ENDMDL
MODEL 3
REMARK VINA RESULT:      -6.7      3.735      6.520
REMARK  6 active torsions:
REMARK  status: ('A' for Active; 'I' for Inactive)
REMARK    1  A    between atoms: C2_2  and  O1_3 
REMARK    2  A    between atoms: O1_3  and  C3_4 
REMARK    3  A    between atoms: C7_8  and  C8_9 
REMARK    4  A    between atoms: C8_9  and  C9_10 
REMARK    5  A    between atoms: C9_10  and  C10_11 
REMARK    6  A    between atoms: C10_11  and  C11_12 
ROOT
HETATM    1  C3  UNL     1      26.719   0.911  54.104  1.00  0.00     0.077 A 
HETATM    2  C4  UNL     1      25.539   0.257  54.079  1.00  0.00    -0.016 A 
HETATM    3  C5  UNL     1      25.179  -0.873  54.943  1.00  0.00     0.052 C 
HETATM    4  C6  UNL     1      24.684   0.856  53.061  1.00  0.00     0.005 A 
HETATM    5  C7  UNL     1      23.486   0.675  52.515  1.00  0.00    -0.044 A 
HETATM    6  C12 UNL     1      22.877   1.526  51.466  1.00  0.00     0.163 A 
HETATM    7  C13 UNL     1      21.729   2.220  52.078  1.00  0.00     0.073 C 
HETATM    8  N1  UNL     1      20.824   2.790  52.558  1.00  0.00    -0.196 NA
HETATM    9  C14 UNL     1      23.902   2.542  51.063  1.00  0.00     0.114 A 
HETATM   10  N2  UNL     1      25.098   2.776  51.489  1.00  0.00    -0.263 NA
HETATM   11  C15 UNL     1      25.578   1.918  52.550  1.00  0.00     0.070 A 
HETATM   12  C16 UNL     1      26.750   1.970  53.131  1.00  0.00     0.069 A 
ENDROOT
BRANCH   5  13
HETATM   13  C8  UNL     1      22.741  -0.467  53.051  1.00  0.00     0.037 C 
BRANCH  13  14
HETATM   14  C9  UNL     1      21.968  -0.269  54.294  1.00  0.00     0.011 C 
BRANCH  14  15
HETATM   15  C10 UNL     1      20.633  -0.926  54.118  1.00  0.00     0.011 C 
BRANCH  15  16
HETATM   16  C11 UNL     1      19.696  -0.576  53.267  1.00  0.00     0.237 C 
HETATM   17 CL1  UNL     1      18.862  -0.123  51.794  1.00  0.00    -0.255 Cl
ENDBRANCH  15  16
ENDBRANCH  14  15
ENDBRANCH  13  14
ENDBRANCH   5  13
BRANCH   1  18
HETATM   18  O1  UNL     1      27.774   0.593  54.971  1.00  0.00    -0.351 OA
BRANCH  18  19
HETATM   19  C2  UNL     1      29.064   0.393  54.437  1.00  0.00     0.171 C 
HETATM   20  C1  UNL     1      29.110  -0.893  53.647  1.00  0.00     0.034 C 
ENDBRANCH  18  19
ENDBRANCH   1  18
TORSDOF 6
ENDMDL
MODEL 4
REMARK VINA RESULT:      -6.7      2.522      4.896
REMARK  6 active torsions:
REMARK  status: ('A' for Active; 'I' for Inactive)
REMARK    1  A    between atoms: C2_2  and  O1_3 
REMARK    2  A    between atoms: O1_3  and  C3_4 
REMARK    3  A    between atoms: C7_8  and  C8_9 
REMARK    4  A    between atoms: C8_9  and  C9_10 
REMARK    5  A    between atoms: C9_10  and  C10_11 
REMARK    6  A    between atoms: C10_11  and  C11_12 
ROOT
HETATM    1  C3  UNL     1      26.232  -0.429  53.513  1.00  0.00     0.077 A 
HETATM    2  C4  UNL     1      25.877   0.508  52.610  1.00  0.00    -0.016 A 
HETATM    3  C5  UNL     1      26.797   1.191  51.694  1.00  0.00     0.052 C 
HETATM    4  C6  UNL     1      24.437   0.726  52.690  1.00  0.00     0.005 A 
HETATM    5  C7  UNL     1      23.502   1.500  52.149  1.00  0.00    -0.044 A 
HETATM    6  C12 UNL     1      22.052   1.442  52.449  1.00  0.00     0.163 A 
HETATM    7  C13 UNL     1      21.374   0.957  51.233  1.00  0.00     0.073 C 
HETATM    8  N1  UNL     1      20.825   0.556  50.277  1.00  0.00    -0.196 NA
HETATM    9  C14 UNL     1      21.862   0.439  53.545  1.00  0.00     0.114 A 
HETATM   10  N2  UNL     1      22.695  -0.326  54.168  1.00  0.00    -0.263 NA
HETATM   11  C15 UNL     1      24.080  -0.227  53.763  1.00  0.00     0.070 A 
HETATM   12  C16 UNL     1      25.090  -0.900  54.252  1.00  0.00     0.069 A 
ENDROOT
BRANCH   5  13
HETATM   13  C8  UNL     1      24.005   2.462  51.164  1.00  0.00     0.037 C 
BRANCH  13  14
HETATM   14  C9  UNL     1      23.974   3.896  51.517  1.00  0.00     0.011 C 
BRANCH  14  15
HETATM   15  C10 UNL     1      24.697   4.652  50.445  1.00  0.00     0.011 C 
BRANCH  15  16
HETATM   16  C11 UNL     1      25.818   4.297  49.859  1.00  0.00     0.237 C 
HETATM   17 CL1  UNL     1      27.301   4.338  48.927  1.00  0.00    -0.255 Cl
ENDBRANCH  15  16
ENDBRANCH  14  15
ENDBRANCH  13  14
ENDBRANCH   5  13
BRANCH   1  18
HETATM   18  O1  UNL     1      27.545  -0.880  53.701  1.00  0.00    -0.351 OA
BRANCH  18  19
HETATM   19  C2  UNL     1      28.419  -0.128  54.514  1.00  0.00     0.171 C 
HETATM   20  C1  UNL     1      29.690   0.188  53.763  1.00  0.00     0.034 C 
ENDBRANCH  18  19
ENDBRANCH   1  18
TORSDOF 6
ENDMDL
MODEL 5
REMARK VINA RESULT:      -6.6      3.205      5.350
REMARK  6 active torsions:
REMARK  status: ('A' for Active; 'I' for Inactive)
REMARK    1  A    between atoms: C2_2  and  O1_3 
REMARK    2  A    between atoms: O1_3  and  C3_4 
REMARK    3  A    between atoms: C7_8  and  C8_9 
REMARK    4  A    between atoms: C8_9  and  C9_10 
REMARK    5  A    between atoms: C9_10  and  C10_11 
REMARK    6  A    between atoms: C10_11  and  C11_12 
ROOT
HETATM    1  C3  UNL     1      24.730   2.869  50.845  1.00  0.00     0.077 A 
HETATM    2  C4  UNL     1      24.263   1.795  51.514  1.00  0.00    -0.016 A 
HETATM    3  C5  UNL     1      22.868   1.339  51.514  1.00  0.00     0.052 C 
HETATM    4  C6  UNL     1      25.366   1.162  52.229  1.00  0.00     0.005 A 
HETATM    5  C7  UNL     1      25.578   0.154  53.067  1.00  0.00    -0.044 A 
HETATM    6  C12 UNL     1      26.895  -0.257  53.610  1.00  0.00     0.163 A 
HETATM    7  C13 UNL     1      27.212  -1.576  53.035  1.00  0.00     0.073 C 
HETATM    8  N1  UNL     1      27.484  -2.618  52.571  1.00  0.00    -0.196 NA
HETATM    9  C14 UNL     1      27.906   0.740  53.131  1.00  0.00     0.114 A 
HETATM   10  N2  UNL     1      27.803   1.771  52.361  1.00  0.00    -0.263 NA
HETATM   11  C15 UNL     1      26.482   2.054  51.845  1.00  0.00     0.070 A 
HETATM   12  C16 UNL     1      26.144   3.040  51.053  1.00  0.00     0.069 A 
ENDROOT
BRANCH   5  13
HETATM   13  C8  UNL     1      24.373  -0.593  53.437  1.00  0.00     0.037 C 
BRANCH  13  14
HETATM   14  C9  UNL     1      24.171  -0.922  54.863  1.00  0.00     0.011 C 
BRANCH  14  15
HETATM   15  C10 UNL     1      22.718  -1.228  55.065  1.00  0.00     0.011 C 
BRANCH  15  16
HETATM   16  C11 UNL     1      21.750  -1.036  54.198  1.00  0.00     0.237 C 
HETATM   17 CL1  UNL     1      20.313  -0.419  53.409  1.00  0.00    -0.255 Cl
ENDBRANCH  15  16
ENDBRANCH  14  15
ENDBRANCH  13  14
ENDBRANCH   5  13
BRANCH   1  18
HETATM   18  O1  UNL     1      23.934   3.706  50.052  1.00  0.00    -0.351 OA
BRANCH  18  19
HETATM   19  C2  UNL     1      23.847   5.077  50.373  1.00  0.00     0.171 C 
HETATM   20  C1  UNL     1      23.205   5.257  51.728  1.00  0.00     0.034 C 
ENDBRANCH  18  19
ENDBRANCH   1  18
TORSDOF 6
ENDMDL
MODEL 6
REMARK VINA RESULT:      -6.5      3.635      6.417
REMARK  6 active torsions:
REMARK  status: ('A' for Active; 'I' for Inactive)
REMARK    1  A    between atoms: C2_2  and  O1_3 
REMARK    2  A    between atoms: O1_3  and  C3_4 
REMARK    3  A    between atoms: C7_8  and  C8_9 
REMARK    4  A    between atoms: C8_9  and  C9_10 
REMARK    5  A    between atoms: C9_10  and  C10_11 
REMARK    6  A    between atoms: C10_11  and  C11_12 
ROOT
HETATM    1  C3  UNL     1      24.430   3.730  50.394  1.00  0.00     0.077 A 
HETATM    2  C4  UNL     1      24.012   3.000  51.449  1.00  0.00    -0.016 A 
HETATM    3  C5  UNL     1      24.513   3.132  52.822  1.00  0.00     0.052 C 
HETATM    4  C6  UNL     1      22.984   2.065  51.004  1.00  0.00     0.005 A 
HETATM    5  C7  UNL     1      22.234   1.083  51.493  1.00  0.00    -0.044 A 
HETATM    6  C12 UNL     1      21.215   0.317  50.738  1.00  0.00     0.163 A 
HETATM    7  C13 UNL     1      19.898   0.670  51.299  1.00  0.00     0.073 C 
HETATM    8  N1  UNL     1      18.844   0.955  51.726  1.00  0.00    -0.196 NA
HETATM    9  C14 UNL     1      21.276   0.776  49.312  1.00  0.00     0.114 A 
HETATM   10  N2  UNL     1      21.989   1.678  48.727  1.00  0.00    -0.263 NA
HETATM   11  C15 UNL     1      22.918   2.403  49.566  1.00  0.00     0.070 A 
HETATM   12  C16 UNL     1      23.737   3.353  49.191  1.00  0.00     0.069 A 
ENDROOT
BRANCH   5  13
HETATM   13  C8  UNL     1      22.464   0.791  52.910  1.00  0.00     0.037 C 
BRANCH  13  14
HETATM   14  C9  UNL     1      22.863  -0.583  53.278  1.00  0.00     0.011 C 
BRANCH  14  15
HETATM   15  C10 UNL     1      24.258  -0.529  53.824  1.00  0.00     0.011 C 
BRANCH  15  16
HETATM   16  C11 UNL     1      25.365  -0.408  53.128  1.00  0.00     0.237 C 
HETATM   17 CL1  UNL     1      26.524   0.065  51.902  1.00  0.00    -0.255 Cl
ENDBRANCH  15  16
ENDBRANCH  14  15
ENDBRANCH  13  14
ENDBRANCH   5  13
BRANCH   1  18
HETATM   18  O1  UNL     1      25.414   4.725  50.470  1.00  0.00    -0.351 OA
BRANCH  18  19
HETATM   19  C2  UNL     1      25.953   5.249  49.276  1.00  0.00     0.171 C 
HETATM   20  C1  UNL     1      27.235   4.533  48.924  1.00  0.00     0.034 C 
ENDBRANCH  18  19
ENDBRANCH   1  18
TORSDOF 6
ENDMDL
MODEL 7
REMARK VINA RESULT:      -6.4      2.478      4.105
REMARK  6 active torsions:
REMARK  status: ('A' for Active; 'I' for Inactive)
REMARK    1  A    between atoms: C2_2  and  O1_3 
REMARK    2  A    between atoms: O1_3  and  C3_4 
REMARK    3  A    between atoms: C7_8  and  C8_9 
REMARK    4  A    between atoms: C8_9  and  C9_10 
REMARK    5  A    between atoms: C9_10  and  C10_11 
REMARK    6  A    between atoms: C10_11  and  C11_12 
ROOT
HETATM    1  C3  UNL     1      20.804   0.444  52.927  1.00  0.00     0.077 A 
HETATM    2  C4  UNL     1      22.044  -0.039  53.151  1.00  0.00    -0.016 A 
HETATM    3  C5  UNL     1      22.363  -1.431  53.488  1.00  0.00     0.052 C 
HETATM    4  C6  UNL     1      23.011   1.043  53.001  1.00  0.00     0.005 A 
HETATM    5  C7  UNL     1      24.317   1.254  53.125  1.00  0.00    -0.044 A 
HETATM    6  C12 UNL     1      25.015   2.533  52.855  1.00  0.00     0.163 A 
HETATM    7  C13 UNL     1      25.863   2.325  51.667  1.00  0.00     0.073 C 
HETATM    8  N1  UNL     1      26.528   2.177  50.713  1.00  0.00    -0.196 NA
HETATM    9  C14 UNL     1      23.968   3.555  52.534  1.00  0.00     0.114 A 
HETATM   10  N2  UNL     1      22.684   3.472  52.432  1.00  0.00    -0.263 NA
HETATM   11  C15 UNL     1      22.108   2.166  52.667  1.00  0.00     0.070 A 
HETATM   12  C16 UNL     1      20.839   1.848  52.619  1.00  0.00     0.069 A 
ENDROOT
BRANCH   5  13
HETATM   13  C8  UNL     1      25.084   0.079  53.549  1.00  0.00     0.037 C 
BRANCH  13  14
HETATM   14  C9  UNL     1      25.926   0.200  54.757  1.00  0.00     0.011 C 
BRANCH  14  15
HETATM   15  C10 UNL     1      27.356   0.028  54.344  1.00  0.00     0.011 C 
BRANCH  15  16
HETATM   16  C11 UNL     1      28.196   0.984  54.021  1.00  0.00     0.237 C 
HETATM   17 CL1  UNL     1      28.893   2.561  53.711  1.00  0.00    -0.255 Cl
ENDBRANCH  15  16
ENDBRANCH  14  15
ENDBRANCH  13  14
ENDBRANCH   5  13
BRANCH   1  18
HETATM   18  O1  UNL     1      19.638  -0.332  52.989  1.00  0.00    -0.351 OA
BRANCH  18  19
HETATM   19  C2  UNL     1      18.670  -0.197  51.972  1.00  0.00     0.171 C 
HETATM   20  C1  UNL     1      17.415  -0.951  52.342  1.00  0.00     0.034 C 
ENDBRANCH  18  19
ENDBRANCH   1  18
TORSDOF 6
ENDMDL
MODEL 8
REMARK VINA RESULT:      -5.9      3.708      5.589
REMARK  6 active torsions:
REMARK  status: ('A' for Active; 'I' for Inactive)
REMARK    1  A    between atoms: C2_2  and  O1_3 
REMARK    2  A    between atoms: O1_3  and  C3_4 
REMARK    3  A    between atoms: C7_8  and  C8_9 
REMARK    4  A    between atoms: C8_9  and  C9_10 
REMARK    5  A    between atoms: C9_10  and  C10_11 
REMARK    6  A    between atoms: C10_11  and  C11_12 
ROOT
HETATM    1  C3  UNL     1      21.952   2.621  50.158  1.00  0.00     0.077 A 
HETATM    2  C4  UNL     1      21.937   1.460  50.845  1.00  0.00    -0.016 A 
HETATM    3  C5  UNL     1      20.880   0.446  50.771  1.00  0.00     0.052 C 
HETATM    4  C6  UNL     1      23.140   1.378  51.667  1.00  0.00     0.005 A 
HETATM    5  C7  UNL     1      23.693   0.574  52.568  1.00  0.00    -0.044 A 
HETATM    6  C12 UNL     1      25.007   0.782  53.222  1.00  0.00     0.163 A 
HETATM    7  C13 UNL     1      25.909  -0.279  52.737  1.00  0.00     0.073 C 
HETATM    8  N1  UNL     1      26.640  -1.107  52.347  1.00  0.00    -0.196 NA
HETATM    9  C14 UNL     1      25.528   2.111  52.765  1.00  0.00     0.114 A 
HETATM   10  N2  UNL     1      25.057   2.984  51.939  1.00  0.00    -0.263 NA
HETATM   11  C15 UNL     1      23.792   2.659  51.318  1.00  0.00     0.070 A 
HETATM   12  C16 UNL     1      23.131   3.390  50.456  1.00  0.00     0.069 A 
ENDROOT
BRANCH   5  13
HETATM   13  C8  UNL     1      22.900  -0.616  52.889  1.00  0.00     0.037 C 
BRANCH  13  14
HETATM   14  C9  UNL     1      22.560  -0.861  54.306  1.00  0.00     0.011 C 
BRANCH  14  15
HETATM   15  C10 UNL     1      21.327  -0.074  54.629  1.00  0.00     0.011 C 
BRANCH  15  16
HETATM   16  C11 UNL     1      20.125  -0.268  54.136  1.00  0.00     0.237 C 
HETATM   17 CL1  UNL     1      18.748  -0.986  53.325  1.00  0.00    -0.255 Cl
ENDBRANCH  15  16
ENDBRANCH  14  15
ENDBRANCH  13  14
ENDBRANCH   5  13
BRANCH   1  18
HETATM   18  O1  UNL     1      20.944   3.019  49.269  1.00  0.00    -0.351 OA
BRANCH  18  19
HETATM   19  C2  UNL     1      20.339   4.282  49.439  1.00  0.00     0.171 C 
HETATM   20  C1  UNL     1      19.450   4.276  50.659  1.00  0.00     0.034 C 
ENDBRANCH  18  19
ENDBRANCH   1  18
TORSDOF 6
ENDMDL
MODEL 9
REMARK VINA RESULT:      -5.8      3.925      6.285
REMARK  6 active torsions:
REMARK  status: ('A' for Active; 'I' for Inactive)
REMARK    1  A    between atoms: C2_2  and  O1_3 
REMARK    2  A    between atoms: O1_3  and  C3_4 
REMARK    3  A    between atoms: C7_8  and  C8_9 
REMARK    4  A    between atoms: C8_9  and  C9_10 
REMARK    5  A    between atoms: C9_10  and  C10_11 
REMARK    6  A    between atoms: C10_11  and  C11_12 
ROOT
HETATM    1  C3  UNL     1      25.122   3.444  49.978  1.00  0.00     0.077 A 
HETATM    2  C4  UNL     1      24.718   4.663  49.565  1.00  0.00    -0.016 A 
HETATM    3  C5  UNL     1      23.349   5.183  49.670  1.00  0.00     0.052 C 
HETATM    4  C6  UNL     1      25.858   5.377  49.001  1.00  0.00     0.005 A 
HETATM    5  C7  UNL     1      26.130   6.532  48.404  1.00  0.00    -0.044 A 
HETATM    6  C12 UNL     1      27.471   6.980  47.959  1.00  0.00     0.163 A 
HETATM    7  C13 UNL     1      27.855   8.122  48.809  1.00  0.00     0.073 C 
HETATM    8  N1  UNL     1      28.178   9.020  49.490  1.00  0.00    -0.196 NA
HETATM    9  C14 UNL     1      28.424   5.850  48.203  1.00  0.00     0.114 A 
HETATM   10  N2  UNL     1      28.260   4.682  48.727  1.00  0.00    -0.263 NA
HETATM   11  C15 UNL     1      26.922   4.364  49.175  1.00  0.00     0.070 A 
HETATM   12  C16 UNL     1      26.525   3.248  49.732  1.00  0.00     0.069 A 
ENDROOT
BRANCH   5  13
HETATM   13  C8  UNL     1      24.970   7.406  48.213  1.00  0.00     0.037 C 
BRANCH  13  14
HETATM   14  C9  UNL     1      24.710   7.928  46.856  1.00  0.00     0.011 C 
BRANCH  14  15
HETATM   15  C10 UNL     1      23.245   7.783  46.576  1.00  0.00     0.011 C 
BRANCH  15  16
HETATM   16  C11 UNL     1      22.593   6.658  46.394  1.00  0.00     0.237 C 
HETATM   17 CL1  UNL     1      22.214   4.956  46.216  1.00  0.00    -0.255 Cl
ENDBRANCH  15  16
ENDBRANCH  14  15
ENDBRANCH  13  14
ENDBRANCH   5  13
BRANCH   1  18
HETATM   18  O1  UNL     1      24.275   2.498  50.572  1.00  0.00    -0.351 OA
BRANCH  18  19
HETATM   19  C2  UNL     1      24.587   2.010  51.859  1.00  0.00     0.171 C 
HETATM   20  C1  UNL     1      24.228   3.036  52.907  1.00  0.00     0.034 C 
ENDBRANCH  18  19
ENDBRANCH   1  18
TORSDOF 6
ENDMDL
