MODEL 1
REMARK VINA RESULT:      -9.9      0.000      0.000
REMARK  1 active torsions:
REMARK  status: ('A' for Active; 'I' for Inactive)
REMARK       I    between atoms: N1_1  and  C1_2 
REMARK    1  A    between atoms: C8_12  and  C9_13 
ROOT
HETATM    1  N1  UNL     1      24.542   6.982  52.333  1.00  0.00    -0.231 N 
HETATM    2  C1  UNL     1      23.734   6.202  51.461  1.00  0.00     0.718 C 
HETATM    3  N2  UNL     1      22.650   6.478  50.949  1.00  0.00    -0.076 NA
HETATM    4  C2  UNL     1      21.675   7.417  50.833  1.00  0.00     0.134 C 
HETATM    5  C3  UNL     1      20.982   6.672  49.917  1.00  0.00     0.018 C 
HETATM    6  C4  UNL     1      21.780   5.457  49.752  1.00  0.00     0.110 C 
HETATM    7  C5  UNL     1      21.093   4.312  48.965  1.00  0.00     0.080 C 
HETATM    8  P1  UNL     1      22.283   2.923  49.090  1.00  0.00    -0.006 P 
HETATM    9 BR1  UNL     1      22.597   1.654  47.339  1.00  0.00    -0.055 Br
HETATM   10  C6  UNL     1      22.447   2.194  50.732  1.00  0.00    -0.011 A 
HETATM   11  C7  UNL     1      21.301   1.474  51.007  1.00  0.00     0.026 A 
HETATM   12  C8  UNL     1      20.972   0.734  52.156  1.00  0.00    -0.025 A 
HETATM   13  C15 UNL     1      21.942   0.727  53.168  1.00  0.00     0.013 A 
HETATM   14  C16 UNL     1      23.096   1.449  52.899  1.00  0.00     0.011 A 
HETATM   15  C17 UNL     1      23.408   2.171  51.764  1.00  0.00    -0.028 A 
HETATM   16  C18 UNL     1      24.787   2.752  51.995  1.00  0.00     0.164 C 
HETATM   17  N3  UNL     1      25.207   3.596  50.952  1.00  0.00    -0.356 N 
HETATM   18  C19 UNL     1      26.414   3.420  50.299  1.00  0.00     0.075 A 
HETATM   19  C20 UNL     1      26.464   4.374  49.314  1.00  0.00     0.115 A 
HETATM   20  C21 UNL     1      25.488   5.308  49.048  1.00  0.00     0.001 A 
HETATM   21  C22 UNL     1      24.994   4.590  50.116  1.00  0.00     0.184 A 
HETATM   22  N4  UNL     1      24.263   4.936  51.124  1.00  0.00    -0.067 NA
HETATM   23  C23 UNL     1      24.416   6.092  48.855  1.00  0.00     0.091 C 
HETATM   24  N5  UNL     1      23.054   5.682  49.165  1.00  0.00    -0.390 N 
HETATM   25  H1  UNL     1      24.777   7.350  53.278  1.00  0.00     0.174 HD
HETATM   26  H2  UNL     1      25.259   7.389  51.692  1.00  0.00     0.174 HD
HETATM   27  H21 UNL     1      23.134   5.234  48.194  1.00  0.00     0.159 HD
ENDROOT
BRANCH  12  28
HETATM   28  C9  UNL     1      19.749  -0.012  52.407  1.00  0.00    -0.026 A 
HETATM   29  C10 UNL     1      19.703  -0.892  53.457  1.00  0.00     0.012 A 
HETATM   30  C11 UNL     1      18.527  -1.582  53.662  1.00  0.00     0.001 A 
HETATM   31  C12 UNL     1      17.421  -1.413  52.856  1.00  0.00     0.000 A 
HETATM   32  C13 UNL     1      17.467  -0.518  51.787  1.00  0.00     0.001 A 
HETATM   33  C14 UNL     1      18.646   0.157  51.602  1.00  0.00     0.012 A 
ENDBRANCH  12  28
TORSDOF 1
ENDMDL
MODEL 2
REMARK VINA RESULT:      -8.7      3.404      8.032
REMARK  1 active torsions:
REMARK  status: ('A' for Active; 'I' for Inactive)
REMARK       I    between atoms: N1_1  and  C1_2 
REMARK    1  A    between atoms: C8_12  and  C9_13 
ROOT
HETATM    1  N1  UNL     1      21.917   1.172  47.832  1.00  0.00    -0.231 N 
HETATM    2  C1  UNL     1      22.209   2.564  47.835  1.00  0.00     0.718 C 
HETATM    3  N2  UNL     1      22.033   3.398  46.947  1.00  0.00    -0.076 NA
HETATM    4  C2  UNL     1      21.580   3.608  45.683  1.00  0.00     0.134 C 
HETATM    5  C3  UNL     1      21.783   4.959  45.769  1.00  0.00     0.018 C 
HETATM    6  C4  UNL     1      22.321   5.165  47.114  1.00  0.00     0.110 C 
HETATM    7  C5  UNL     1      22.892   6.579  47.392  1.00  0.00     0.080 C 
HETATM    8  P1  UNL     1      23.612   6.435  49.073  1.00  0.00    -0.006 P 
HETATM    9 BR1  UNL     1      23.375   8.108  50.459  1.00  0.00    -0.055 Br
HETATM   10  C6  UNL     1      25.092   5.410  49.192  1.00  0.00    -0.011 A 
HETATM   11  C7  UNL     1      26.142   6.089  48.605  1.00  0.00     0.026 A 
HETATM   12  C8  UNL     1      27.483   5.695  48.460  1.00  0.00    -0.025 A 
HETATM   13  C15 UNL     1      27.802   4.434  48.985  1.00  0.00     0.013 A 
HETATM   14  C16 UNL     1      26.751   3.746  49.576  1.00  0.00     0.011 A 
HETATM   15  C17 UNL     1      25.437   4.146  49.712  1.00  0.00    -0.028 A 
HETATM   16  C18 UNL     1      24.724   3.022  50.435  1.00  0.00     0.164 C 
HETATM   17  N3  UNL     1      23.343   3.247  50.567  1.00  0.00    -0.356 N 
HETATM   18  C19 UNL     1      22.698   3.186  51.790  1.00  0.00     0.075 A 
HETATM   19  C20 UNL     1      21.387   3.514  51.554  1.00  0.00     0.115 A 
HETATM   20  C21 UNL     1      20.847   3.838  50.329  1.00  0.00     0.001 A 
HETATM   21  C22 UNL     1      22.175   3.582  50.061  1.00  0.00     0.184 A 
HETATM   22  N4  UNL     1      22.763   3.060  49.036  1.00  0.00    -0.067 NA
HETATM   23  C23 UNL     1      20.491   4.219  49.092  1.00  0.00     0.091 C 
HETATM   24  N5  UNL     1      21.403   4.856  48.153  1.00  0.00    -0.390 N 
HETATM   25  H1  UNL     1      22.151   0.189  47.581  1.00  0.00     0.174 HD
HETATM   26  H2  UNL     1      21.008   1.119  48.341  1.00  0.00     0.174 HD
HETATM   27  H21 UNL     1      21.115   5.729  48.707  1.00  0.00     0.159 HD
ENDROOT
BRANCH  12  28
HETATM   28  C9  UNL     1      28.561   6.442  47.832  1.00  0.00    -0.026 A 
HETATM   29  C10 UNL     1      29.855   6.018  47.995  1.00  0.00     0.012 A 
HETATM   30  C11 UNL     1      30.850   6.753  47.385  1.00  0.00     0.001 A 
HETATM   31  C12 UNL     1      30.582   7.879  46.633  1.00  0.00     0.000 A 
HETATM   32  C13 UNL     1      29.266   8.310  46.467  1.00  0.00     0.001 A 
HETATM   33  C14 UNL     1      28.293   7.564  47.083  1.00  0.00     0.012 A 
ENDBRANCH  12  28
TORSDOF 1
ENDMDL
MODEL 3
REMARK VINA RESULT:      -8.7      6.797      9.507
REMARK  1 active torsions:
REMARK  status: ('A' for Active; 'I' for Inactive)
REMARK       I    between atoms: N1_1  and  C1_2 
REMARK    1  A    between atoms: C8_12  and  C9_13 
ROOT
HETATM    1  N1  UNL     1      31.745  12.231  48.207  1.00  0.00    -0.231 N 
HETATM    2  C1  UNL     1      30.480  11.752  47.768  1.00  0.00     0.718 C 
HETATM    3  N2  UNL     1      29.352  12.117  48.100  1.00  0.00    -0.076 NA
HETATM    4  C2  UNL     1      28.636  12.969  48.879  1.00  0.00     0.134 C 
HETATM    5  C3  UNL     1      27.445  12.547  48.352  1.00  0.00     0.018 C 
HETATM    6  C4  UNL     1      27.817  11.523  47.375  1.00  0.00     0.110 C 
HETATM    7  C5  UNL     1      26.643  10.684  46.812  1.00  0.00     0.080 C 
HETATM    8  P1  UNL     1      27.470   9.422  45.769  1.00  0.00    -0.006 P 
HETATM    9 BR1  UNL     1      26.550   8.872  43.865  1.00  0.00    -0.055 Br
HETATM   10  C6  UNL     1      28.415   8.177  46.670  1.00  0.00    -0.011 A 
HETATM   11  C7  UNL     1      27.527   7.330  47.305  1.00  0.00     0.026 A 
HETATM   12  C8  UNL     1      27.793   6.215  48.119  1.00  0.00    -0.025 A 
HETATM   13  C15 UNL     1      29.149   5.918  48.314  1.00  0.00     0.013 A 
HETATM   14  C16 UNL     1      30.046   6.766  47.679  1.00  0.00     0.011 A 
HETATM   15  C17 UNL     1      29.772   7.858  46.882  1.00  0.00    -0.028 A 
HETATM   16  C18 UNL     1      31.113   8.413  46.446  1.00  0.00     0.164 C 
HETATM   17  N3  UNL     1      30.996   9.596  45.694  1.00  0.00    -0.356 N 
HETATM   18  C19 UNL     1      31.585   9.742  44.451  1.00  0.00     0.075 A 
HETATM   19  C20 UNL     1      31.218  10.981  43.991  1.00  0.00     0.115 A 
HETATM   20  C21 UNL     1      30.416  11.881  44.657  1.00  0.00     0.001 A 
HETATM   21  C22 UNL     1      30.505  10.803  45.512  1.00  0.00     0.184 A 
HETATM   22  N4  UNL     1      30.529  10.724  46.801  1.00  0.00    -0.067 NA
HETATM   23  C23 UNL     1      29.554  12.609  45.385  1.00  0.00     0.091 C 
HETATM   24  N5  UNL     1      28.559  12.026  46.272  1.00  0.00    -0.390 N 
HETATM   25  H1  UNL     1      32.523  12.258  48.899  1.00  0.00     0.174 HD
HETATM   26  H2  UNL     1      32.030  12.883  47.444  1.00  0.00     0.174 HD
HETATM   27  H21 UNL     1      28.010  11.952  45.353  1.00  0.00     0.159 HD
ENDROOT
BRANCH  12  28
HETATM   28  C9  UNL     1      26.826   5.347  48.772  1.00  0.00    -0.026 A 
HETATM   29  C10 UNL     1      25.558   5.813  49.010  1.00  0.00     0.012 A 
HETATM   30  C11 UNL     1      24.670   4.960  49.632  1.00  0.00     0.001 A 
HETATM   31  C12 UNL     1      25.017   3.680  50.012  1.00  0.00     0.000 A 
HETATM   32  C13 UNL     1      26.306   3.205  49.769  1.00  0.00     0.001 A 
HETATM   33  C14 UNL     1      27.172   4.070  49.150  1.00  0.00     0.012 A 
ENDBRANCH  12  28
TORSDOF 1
ENDMDL
MODEL 4
REMARK VINA RESULT:      -8.4      7.554     10.779
REMARK  1 active torsions:
REMARK  status: ('A' for Active; 'I' for Inactive)
REMARK       I    between atoms: N1_1  and  C1_2 
REMARK    1  A    between atoms: C8_12  and  C9_13 
ROOT
HETATM    1  N1  UNL     1      31.989   8.241  42.344  1.00  0.00    -0.231 N 
HETATM    2  C1  UNL     1      32.047   7.689  43.653  1.00  0.00     0.718 C 
HETATM    3  N2  UNL     1      32.410   6.568  44.010  1.00  0.00    -0.076 NA
HETATM    4  C2  UNL     1      32.885   5.363  43.599  1.00  0.00     0.134 C 
HETATM    5  C3  UNL     1      33.019   4.910  44.884  1.00  0.00     0.018 C 
HETATM    6  C4  UNL     1      32.564   6.024  45.717  1.00  0.00     0.110 C 
HETATM    7  C5  UNL     1      32.360   5.693  47.216  1.00  0.00     0.080 C 
HETATM    8  P1  UNL     1      31.647   7.234  47.909  1.00  0.00    -0.006 P 
HETATM    9 BR1  UNL     1      32.302   7.892  49.887  1.00  0.00    -0.055 Br
HETATM   10  C6  UNL     1      29.963   7.609  47.382  1.00  0.00    -0.011 A 
HETATM   11  C7  UNL     1      29.104   6.721  47.999  1.00  0.00     0.026 A 
HETATM   12  C8  UNL     1      27.705   6.625  47.899  1.00  0.00    -0.025 A 
HETATM   13  C15 UNL     1      27.094   7.562  47.053  1.00  0.00     0.013 A 
HETATM   14  C16 UNL     1      27.952   8.457  46.428  1.00  0.00     0.011 A 
HETATM   15  C17 UNL     1      29.325   8.541  46.537  1.00  0.00    -0.028 A 
HETATM   16  C18 UNL     1      29.751   9.695  45.653  1.00  0.00     0.164 C 
HETATM   17  N3  UNL     1      31.147   9.848  45.588  1.00  0.00    -0.356 N 
HETATM   18  C19 UNL     1      31.772  11.051  45.863  1.00  0.00     0.075 A 
HETATM   19  C20 UNL     1      33.121  10.819  45.762  1.00  0.00     0.115 A 
HETATM   20  C21 UNL     1      33.709   9.614  45.450  1.00  0.00     0.001 A 
HETATM   21  C22 UNL     1      32.355   9.353  45.421  1.00  0.00     0.184 A 
HETATM   22  N4  UNL     1      31.645   8.559  44.691  1.00  0.00    -0.067 NA
HETATM   23  C23 UNL     1      34.132   8.360  45.225  1.00  0.00     0.091 C 
HETATM   24  N5  UNL     1      33.392   7.176  45.636  1.00  0.00    -0.390 N 
HETATM   25  H1  UNL     1      31.519   8.365  41.423  1.00  0.00     0.174 HD
HETATM   26  H2  UNL     1      32.864   8.806  42.286  1.00  0.00     0.174 HD
HETATM   27  H21 UNL     1      33.891   7.377  46.564  1.00  0.00     0.159 HD
ENDROOT
BRANCH  12  28
HETATM   28  C9  UNL     1      26.834   5.672  48.567  1.00  0.00    -0.026 A 
HETATM   29  C10 UNL     1      25.527   6.010  48.808  1.00  0.00     0.012 A 
HETATM   30  C11 UNL     1      24.733   5.079  49.445  1.00  0.00     0.001 A 
HETATM   31  C12 UNL     1      25.210   3.845  49.838  1.00  0.00     0.000 A 
HETATM   32  C13 UNL     1      26.540   3.501  49.593  1.00  0.00     0.001 A 
HETATM   33  C14 UNL     1      27.310   4.441  48.959  1.00  0.00     0.012 A 
ENDBRANCH  12  28
TORSDOF 1
ENDMDL
MODEL 5
REMARK VINA RESULT:      -8.3      9.770     12.003
REMARK  1 active torsions:
REMARK  status: ('A' for Active; 'I' for Inactive)
REMARK       I    between atoms: N1_1  and  C1_2 
REMARK    1  A    between atoms: C8_12  and  C9_13 
ROOT
HETATM    1  N1  UNL     1      26.685   9.837  48.878  1.00  0.00    -0.231 N 
HETATM    2  C1  UNL     1      27.642   9.706  47.834  1.00  0.00     0.718 C 
HETATM    3  N2  UNL     1      27.503   9.234  46.705  1.00  0.00    -0.076 NA
HETATM    4  C2  UNL     1      26.635   8.657  45.833  1.00  0.00     0.134 C 
HETATM    5  C3  UNL     1      27.562   8.645  44.826  1.00  0.00     0.018 C 
HETATM    6  C4  UNL     1      28.759   9.241  45.419  1.00  0.00     0.110 C 
HETATM    7  C5  UNL     1      30.053   9.113  44.577  1.00  0.00     0.080 C 
HETATM    8  P1  UNL     1      31.354   9.804  45.668  1.00  0.00    -0.006 P 
HETATM    9 BR1  UNL     1      32.917  11.043  44.777  1.00  0.00    -0.055 Br
HETATM   10  C6  UNL     1      31.756   8.806  47.116  1.00  0.00    -0.011 A 
HETATM   11  C7  UNL     1      32.450   7.688  46.697  1.00  0.00     0.026 A 
HETATM   12  C8  UNL     1      32.971   6.629  47.461  1.00  0.00    -0.025 A 
HETATM   13  C15 UNL     1      32.757   6.719  48.843  1.00  0.00     0.013 A 
HETATM   14  C16 UNL     1      32.059   7.839  49.272  1.00  0.00     0.011 A 
HETATM   15  C17 UNL     1      31.553   8.874  48.510  1.00  0.00    -0.028 A 
HETATM   16  C18 UNL     1      30.893   9.831  49.480  1.00  0.00     0.164 C 
HETATM   17  N3  UNL     1      30.246  10.901  48.837  1.00  0.00    -0.356 N 
HETATM   18  C19 UNL     1      30.501  12.222  49.161  1.00  0.00     0.075 A 
HETATM   19  C20 UNL     1      29.748  12.984  48.304  1.00  0.00     0.115 A 
HETATM   20  C21 UNL     1      28.913  12.502  47.321  1.00  0.00     0.001 A 
HETATM   21  C22 UNL     1      29.434  11.371  47.913  1.00  0.00     0.184 A 
HETATM   22  N4  UNL     1      28.930  10.202  48.133  1.00  0.00    -0.067 NA
HETATM   23  C23 UNL     1      28.216  11.884  46.354  1.00  0.00     0.091 C 
HETATM   24  N5  UNL     1      28.605  10.609  45.770  1.00  0.00    -0.390 N 
HETATM   25  H1  UNL     1      26.139   9.445  49.673  1.00  0.00     0.174 HD
HETATM   26  H2  UNL     1      26.382  10.832  48.798  1.00  0.00     0.174 HD
HETATM   27  H21 UNL     1      29.225  11.249  45.173  1.00  0.00     0.159 HD
ENDROOT
BRANCH  12  28
HETATM   28  C9  UNL     1      33.698   5.465  46.979  1.00  0.00    -0.026 A 
HETATM   29  C10 UNL     1      33.945   5.336  45.636  1.00  0.00     0.012 A 
HETATM   30  C11 UNL     1      34.636   4.219  45.218  1.00  0.00     0.001 A 
HETATM   31  C12 UNL     1      35.075   3.249  46.095  1.00  0.00     0.000 A 
HETATM   32  C13 UNL     1      34.825   3.380  47.462  1.00  0.00     0.001 A 
HETATM   33  C14 UNL     1      34.136   4.498  47.855  1.00  0.00     0.012 A 
ENDBRANCH  12  28
TORSDOF 1
ENDMDL
MODEL 6
REMARK VINA RESULT:      -7.7      6.400      8.948
REMARK  1 active torsions:
REMARK  status: ('A' for Active; 'I' for Inactive)
REMARK       I    between atoms: N1_1  and  C1_2 
REMARK    1  A    between atoms: C8_12  and  C9_13 
ROOT
HETATM    1  N1  UNL     1      27.479  13.329  46.437  1.00  0.00    -0.231 N 
HETATM    2  C1  UNL     1      27.843  11.974  46.202  1.00  0.00     0.718 C 
HETATM    3  N2  UNL     1      27.622  11.269  45.217  1.00  0.00    -0.076 NA
HETATM    4  C2  UNL     1      27.055  11.215  43.984  1.00  0.00     0.134 C 
HETATM    5  C3  UNL     1      27.514   9.945  43.761  1.00  0.00     0.018 C 
HETATM    6  C4  UNL     1      28.250   9.601  44.978  1.00  0.00     0.110 C 
HETATM    7  C5  UNL     1      28.658   8.112  45.109  1.00  0.00     0.080 C 
HETATM    8  P1  UNL     1      29.396   8.008  46.785  1.00  0.00    -0.006 P 
HETATM    9 BR1  UNL     1      31.169   6.764  47.072  1.00  0.00    -0.055 Br
HETATM   10  C6  UNL     1      28.233   8.193  48.152  1.00  0.00    -0.011 A 
HETATM   11  C7  UNL     1      27.460   7.051  48.226  1.00  0.00     0.026 A 
HETATM   12  C8  UNL     1      26.428   6.734  49.126  1.00  0.00    -0.025 A 
HETATM   13  C15 UNL     1      26.140   7.716  50.084  1.00  0.00     0.013 A 
HETATM   14  C16 UNL     1      26.912   8.868  50.015  1.00  0.00     0.011 A 
HETATM   15  C17 UNL     1      27.925   9.165  49.126  1.00  0.00    -0.028 A 
HETATM   16  C18 UNL     1      28.430  10.543  49.503  1.00  0.00     0.164 C 
HETATM   17  N3  UNL     1      29.412  11.025  48.621  1.00  0.00    -0.356 N 
HETATM   18  C19 UNL     1      30.643  11.478  49.061  1.00  0.00     0.075 A 
HETATM   19  C20 UNL     1      31.358  11.811  47.938  1.00  0.00     0.115 A 
HETATM   20  C21 UNL     1      30.914  11.702  46.639  1.00  0.00     0.001 A 
HETATM   21  C22 UNL     1      29.853  11.263  47.403  1.00  0.00     0.184 A 
HETATM   22  N4  UNL     1      28.575  11.360  47.241  1.00  0.00    -0.067 NA
HETATM   23  C23 UNL     1      30.374  11.453  45.435  1.00  0.00     0.091 C 
HETATM   24  N5  UNL     1      29.412  10.389  45.189  1.00  0.00    -0.390 N 
HETATM   25  H1  UNL     1      26.787  14.054  46.719  1.00  0.00     0.174 HD
HETATM   26  H2  UNL     1      28.351  13.852  46.208  1.00  0.00     0.174 HD
HETATM   27  H21 UNL     1      30.311   9.808  45.114  1.00  0.00     0.159 HD
ENDROOT
BRANCH  12  28
HETATM   28  C9  UNL     1      25.636   5.516  49.169  1.00  0.00    -0.026 A 
HETATM   29  C10 UNL     1      26.230   4.342  49.557  1.00  0.00     0.012 A 
HETATM   30  C11 UNL     1      25.446   3.208  49.585  1.00  0.00     0.001 A 
HETATM   31  C12 UNL     1      24.110   3.224  49.240  1.00  0.00     0.000 A 
HETATM   32  C13 UNL     1      23.505   4.418  48.846  1.00  0.00     0.001 A 
HETATM   33  C14 UNL     1      24.303   5.532  48.825  1.00  0.00     0.012 A 
ENDBRANCH  12  28
TORSDOF 1
ENDMDL
MODEL 7
REMARK VINA RESULT:      -7.6      8.249     10.849
REMARK  1 active torsions:
REMARK  status: ('A' for Active; 'I' for Inactive)
REMARK       I    between atoms: N1_1  and  C1_2 
REMARK    1  A    between atoms: C8_12  and  C9_13 
ROOT
HETATM    1  N1  UNL     1      25.072   8.796  44.566  1.00  0.00    -0.231 N 
HETATM    2  C1  UNL     1      26.392   9.129  44.978  1.00  0.00     0.718 C 
HETATM    3  N2  UNL     1      27.352   9.487  44.296  1.00  0.00    -0.076 NA
HETATM    4  C2  UNL     1      27.792   9.762  43.040  1.00  0.00     0.134 C 
HETATM    5  C3  UNL     1      29.018  10.170  43.494  1.00  0.00     0.018 C 
HETATM    6  C4  UNL     1      28.945  10.011  44.946  1.00  0.00     0.110 C 
HETATM    7  C5  UNL     1      30.292  10.152  45.699  1.00  0.00     0.080 C 
HETATM    8  P1  UNL     1      29.867   9.738  47.434  1.00  0.00    -0.006 P 
HETATM    9 BR1  UNL     1      30.788  10.897  49.041  1.00  0.00    -0.055 Br
HETATM   10  C6  UNL     1      29.456   8.008  47.736  1.00  0.00    -0.011 A 
HETATM   11  C7  UNL     1      30.616   7.262  47.653  1.00  0.00     0.026 A 
HETATM   12  C8  UNL     1      30.794   5.877  47.816  1.00  0.00    -0.025 A 
HETATM   13  C15 UNL     1      29.631   5.148  48.102  1.00  0.00     0.013 A 
HETATM   14  C16 UNL     1      28.462   5.891  48.186  1.00  0.00     0.011 A 
HETATM   15  C17 UNL     1      28.301   7.252  48.024  1.00  0.00    -0.028 A 
HETATM   16  C18 UNL     1      26.826   7.532  48.227  1.00  0.00     0.164 C 
HETATM   17  N3  UNL     1      26.489   8.879  48.001  1.00  0.00    -0.356 N 
HETATM   18  C19 UNL     1      25.804   9.635  48.935  1.00  0.00     0.075 A 
HETATM   19  C20 UNL     1      25.703  10.899  48.411  1.00  0.00     0.115 A 
HETATM   20  C21 UNL     1      26.200  11.308  47.194  1.00  0.00     0.001 A 
HETATM   21  C22 UNL     1      26.535   9.973  47.271  1.00  0.00     0.184 A 
HETATM   22  N4  UNL     1      26.625   9.052  46.368  1.00  0.00    -0.067 NA
HETATM   23  C23 UNL     1      26.816  11.574  46.031  1.00  0.00     0.091 C 
HETATM   24  N5  UNL     1      28.006  10.873  45.572  1.00  0.00    -0.390 N 
HETATM   25  H1  UNL     1      24.378   8.127  44.172  1.00  0.00     0.174 HD
HETATM   26  H2  UNL     1      24.535   9.668  44.762  1.00  0.00     0.174 HD
HETATM   27  H21 UNL     1      28.485  11.595  46.206  1.00  0.00     0.159 HD
ENDROOT
BRANCH  12  28
HETATM   28  C9  UNL     1      32.037   5.129  47.720  1.00  0.00    -0.026 A 
HETATM   29  C10 UNL     1      32.032   3.892  47.129  1.00  0.00     0.012 A 
HETATM   30  C11 UNL     1      33.230   3.213  47.058  1.00  0.00     0.001 A 
HETATM   31  C12 UNL     1      34.406   3.734  47.555  1.00  0.00     0.000 A 
HETATM   32  C13 UNL     1      34.412   4.994  48.157  1.00  0.00     0.001 A 
HETATM   33  C14 UNL     1      33.210   5.650  48.217  1.00  0.00     0.012 A 
ENDBRANCH  12  28
TORSDOF 1
ENDMDL
MODEL 8
REMARK VINA RESULT:      -7.6      5.607      8.735
REMARK  1 active torsions:
REMARK  status: ('A' for Active; 'I' for Inactive)
REMARK       I    between atoms: N1_1  and  C1_2 
REMARK    1  A    between atoms: C8_12  and  C9_13 
ROOT
HETATM    1  N1  UNL     1      12.971   4.523  53.065  1.00  0.00    -0.231 N 
HETATM    2  C1  UNL     1      13.457   3.240  52.689  1.00  0.00     0.718 C 
HETATM    3  N2  UNL     1      13.279   2.150  53.233  1.00  0.00    -0.076 NA
HETATM    4  C2  UNL     1      12.687   1.500  54.269  1.00  0.00     0.134 C 
HETATM    5  C3  UNL     1      13.093   0.275  53.811  1.00  0.00     0.018 C 
HETATM    6  C4  UNL     1      13.839   0.568  52.587  1.00  0.00     0.110 C 
HETATM    7  C5  UNL     1      14.641  -0.619  51.998  1.00  0.00     0.080 C 
HETATM    8  P1  UNL     1      15.563   0.129  50.600  1.00  0.00    -0.006 P 
HETATM    9 BR1  UNL     1      15.767  -1.016  48.750  1.00  0.00    -0.055 Br
HETATM   10  C6  UNL     1      16.882   1.267  51.069  1.00  0.00    -0.011 A 
HETATM   11  C7  UNL     1      17.925   0.533  51.599  1.00  0.00     0.026 A 
HETATM   12  C8  UNL     1      19.162   0.979  52.096  1.00  0.00    -0.025 A 
HETATM   13  C15 UNL     1      19.367   2.365  52.049  1.00  0.00     0.013 A 
HETATM   14  C16 UNL     1      18.322   3.109  51.518  1.00  0.00     0.011 A 
HETATM   15  C17 UNL     1      17.112   2.657  51.032  1.00  0.00    -0.028 A 
HETATM   16  C18 UNL     1      16.354   3.886  50.572  1.00  0.00     0.164 C 
HETATM   17  N3  UNL     1      15.052   3.591  50.130  1.00  0.00    -0.356 N 
HETATM   18  C19 UNL     1      14.585   3.988  48.890  1.00  0.00     0.075 A 
HETATM   19  C20 UNL     1      13.315   3.483  48.775  1.00  0.00     0.115 A 
HETATM   20  C21 UNL     1      12.659   2.729  49.723  1.00  0.00     0.001 A 
HETATM   21  C22 UNL     1      13.885   3.005  50.291  1.00  0.00     0.184 A 
HETATM   22  N4  UNL     1      14.241   3.216  51.515  1.00  0.00    -0.067 NA
HETATM   23  C23 UNL     1      12.190   1.935  50.699  1.00  0.00     0.091 C 
HETATM   24  N5  UNL     1      13.042   1.114  51.546  1.00  0.00    -0.390 N 
HETATM   25  H1  UNL     1      13.023   5.387  53.643  1.00  0.00     0.174 HD
HETATM   26  H2  UNL     1      12.145   4.656  52.443  1.00  0.00     0.174 HD
HETATM   27  H21 UNL     1      12.964   0.446  50.709  1.00  0.00     0.159 HD
ENDROOT
BRANCH  12  28
HETATM   28  C9  UNL     1      20.236   0.170  52.648  1.00  0.00    -0.026 A 
HETATM   29  C10 UNL     1      21.505   0.307  52.147  1.00  0.00     0.012 A 
HETATM   30  C11 UNL     1      22.497  -0.478  52.696  1.00  0.00     0.001 A 
HETATM   31  C12 UNL     1      22.251  -1.378  53.713  1.00  0.00     0.000 A 
HETATM   32  C13 UNL     1      20.960  -1.517  54.223  1.00  0.00     0.001 A 
HETATM   33  C14 UNL     1      19.990  -0.727  53.662  1.00  0.00     0.012 A 
ENDBRANCH  12  28
TORSDOF 1
ENDMDL
MODEL 9
REMARK VINA RESULT:      -7.6      4.238      8.039
REMARK  1 active torsions:
REMARK  status: ('A' for Active; 'I' for Inactive)
REMARK       I    between atoms: N1_1  and  C1_2 
REMARK    1  A    between atoms: C8_12  and  C9_13 
ROOT
HETATM    1  N1  UNL     1      20.199   2.478  47.078  1.00  0.00    -0.231 N 
HETATM    2  C1  UNL     1      20.839   3.735  46.895  1.00  0.00     0.718 C 
HETATM    3  N2  UNL     1      21.156   4.302  45.850  1.00  0.00    -0.076 NA
HETATM    4  C2  UNL     1      21.158   4.227  44.493  1.00  0.00     0.134 C 
HETATM    5  C3  UNL     1      21.682   5.485  44.364  1.00  0.00     0.018 C 
HETATM    6  C4  UNL     1      21.845   5.959  45.739  1.00  0.00     0.110 C 
HETATM    7  C5  UNL     1      22.669   7.261  45.900  1.00  0.00     0.080 C 
HETATM    8  P1  UNL     1      22.810   7.466  47.717  1.00  0.00    -0.006 P 
HETATM    9 BR1  UNL     1      22.642   9.474  48.560  1.00  0.00    -0.055 Br
HETATM   10  C6  UNL     1      23.863   6.259  48.549  1.00  0.00    -0.011 A 
HETATM   11  C7  UNL     1      25.178   6.537  48.234  1.00  0.00     0.026 A 
HETATM   12  C8  UNL     1      26.348   5.876  48.647  1.00  0.00    -0.025 A 
HETATM   13  C15 UNL     1      26.153   4.778  49.497  1.00  0.00     0.013 A 
HETATM   14  C16 UNL     1      24.833   4.492  49.816  1.00  0.00     0.011 A 
HETATM   15  C17 UNL     1      23.693   5.151  49.404  1.00  0.00    -0.028 A 
HETATM   16  C18 UNL     1      22.528   4.429  50.051  1.00  0.00     0.164 C 
HETATM   17  N3  UNL     1      21.280   4.936  49.648  1.00  0.00    -0.356 N 
HETATM   18  C19 UNL     1      20.320   5.343  50.557  1.00  0.00     0.075 A 
HETATM   19  C20 UNL     1      19.269   5.828  49.820  1.00  0.00     0.115 A 
HETATM   20  C21 UNL     1      19.211   5.890  48.445  1.00  0.00     0.001 A 
HETATM   21  C22 UNL     1      20.441   5.326  48.712  1.00  0.00     0.184 A 
HETATM   22  N4  UNL     1      21.136   4.436  48.084  1.00  0.00    -0.067 NA
HETATM   23  C23 UNL     1      19.341   5.966  47.111  1.00  0.00     0.091 C 
HETATM   24  N5  UNL     1      20.620   6.131  46.436  1.00  0.00    -0.390 N 
HETATM   25  H1  UNL     1      20.223   1.438  47.131  1.00  0.00     0.174 HD
HETATM   26  H2  UNL     1      19.202   2.740  47.240  1.00  0.00     0.174 HD
HETATM   27  H21 UNL     1      20.430   7.162  46.664  1.00  0.00     0.159 HD
ENDROOT
BRANCH  12  28
HETATM   28  C9  UNL     1      27.720   6.201  48.291  1.00  0.00    -0.026 A 
HETATM   29  C10 UNL     1      28.669   5.212  48.300  1.00  0.00     0.012 A 
HETATM   30  C11 UNL     1      29.959   5.560  47.957  1.00  0.00     0.001 A 
HETATM   31  C12 UNL     1      30.310   6.850  47.616  1.00  0.00     0.000 A 
HETATM   32  C13 UNL     1      29.345   7.857  47.607  1.00  0.00     0.001 A 
HETATM   33  C14 UNL     1      28.070   7.488  47.950  1.00  0.00     0.012 A 
ENDBRANCH  12  28
TORSDOF 1
ENDMDL
