MODEL 1
REMARK VINA RESULT:      -8.2      0.000      0.000
REMARK  5 active torsions:
REMARK  status: ('A' for Active; 'I' for Inactive)
REMARK    1  A    between atoms: C1_2  and  C2_3 
REMARK       I    between atoms: C1_2  and  N1_5 
REMARK    2  A    between atoms: N1_5  and  C3_6 
REMARK    3  A    between atoms: C7_10  and  N2_11 
REMARK    4  A    between atoms: N2_11  and  C8_12 
REMARK    5  A    between atoms: C11_16  and  C12_17 
ROOT
HETATM    1  N2  UNL     1      21.782   1.078  52.398  1.00  0.00    -0.188 N 
HETATM    2  H7  UNL     1      20.875   1.462  52.805  1.00  0.00     0.184 HD
ENDROOT
BRANCH   1   3
HETATM    3  C7  UNL     1      22.560   0.309  53.263  1.00  0.00     0.051 A 
HETATM    4  C6  UNL     1      21.939  -0.434  54.274  1.00  0.00     0.030 A 
HETATM    5  C5  UNL     1      22.647  -1.211  55.158  1.00  0.00     0.004 A 
HETATM    6  C4  UNL     1      24.012  -1.277  55.066  1.00  0.00     0.029 A 
HETATM    7  C3  UNL     1      24.696  -0.577  54.099  1.00  0.00     0.036 A 
HETATM    8  C17 UNL     1      23.929   0.172  53.257  1.00  0.00     0.059 A 
BRANCH   7   9
HETATM    9  N1  UNL     1      26.094  -0.709  54.083  1.00  0.00    -0.325 N 
HETATM   10  C1  UNL     1      27.126   0.151  54.539  1.00  0.00     0.250 C 
HETATM   11  O1  UNL     1      26.780   1.239  55.058  1.00  0.00    -0.271 OA
HETATM   12  H3  UNL     1      26.535  -1.582  53.672  1.00  0.00     0.169 HD
BRANCH  10  13
HETATM   13  C2  UNL     1      28.575  -0.118  54.458  1.00  0.00     0.325 C 
HETATM   14  F1  UNL     1      28.857  -1.261  53.734  1.00  0.00    -0.246 F 
ENDBRANCH  10  13
ENDBRANCH   7   9
ENDBRANCH   1   3
BRANCH   1  15
HETATM   15  C8  UNL     1      22.026   1.423  51.045  1.00  0.00     0.727 A 
HETATM   16  N3  UNL     1      21.369   0.959  49.974  1.00  0.00    -0.075 NA
HETATM   17  C9  UNL     1      21.601   1.286  48.707  1.00  0.00     0.139 A 
HETATM   18  C10 UNL     1      22.606   2.184  48.447  1.00  0.00     0.053 A 
HETATM   19  C11 UNL     1      23.318   2.698  49.505  1.00  0.00     0.089 A 
HETATM   20  N5  UNL     1      22.998   2.299  50.742  1.00  0.00    -0.062 NA
BRANCH  19  21
HETATM   21  C12 UNL     1      24.401   3.656  49.327  1.00  0.00     0.011 A 
HETATM   22  C13 UNL     1      25.731   3.347  49.495  1.00  0.00     0.017 A 
HETATM   23  C14 UNL     1      26.740   4.277  49.320  1.00  0.00     0.020 A 
HETATM   24  C15 UNL     1      26.414   5.574  48.958  1.00  0.00     0.116 A 
HETATM   25  N4  UNL     1      25.124   5.859  48.798  1.00  0.00    -0.272 NA
HETATM   26  C16 UNL     1      24.136   4.959  48.968  1.00  0.00     0.130 A 
ENDBRANCH  19  21
ENDBRANCH   1  15
TORSDOF 5
ENDMDL
MODEL 2
REMARK VINA RESULT:      -8.2      1.886      2.505
REMARK  5 active torsions:
REMARK  status: ('A' for Active; 'I' for Inactive)
REMARK    1  A    between atoms: C1_2  and  C2_3 
REMARK       I    between atoms: C1_2  and  N1_5 
REMARK    2  A    between atoms: N1_5  and  C3_6 
REMARK    3  A    between atoms: C7_10  and  N2_11 
REMARK    4  A    between atoms: N2_11  and  C8_12 
REMARK    5  A    between atoms: C11_16  and  C12_17 
ROOT
HETATM    1  N2  UNL     1      23.609   3.072  52.501  1.00  0.00    -0.188 N 
HETATM    2  H7  UNL     1      23.177   3.606  53.316  1.00  0.00     0.184 HD
ENDROOT
BRANCH   1   3
HETATM    3  C7  UNL     1      24.118   1.809  52.803  1.00  0.00     0.051 A 
HETATM    4  C6  UNL     1      23.243   0.786  53.188  1.00  0.00     0.030 A 
HETATM    5  C5  UNL     1      23.680  -0.478  53.498  1.00  0.00     0.004 A 
HETATM    6  C4  UNL     1      25.016  -0.773  53.435  1.00  0.00     0.029 A 
HETATM    7  C3  UNL     1      25.939   0.178  53.064  1.00  0.00     0.036 A 
HETATM    8  C17 UNL     1      25.435   1.409  52.771  1.00  0.00     0.059 A 
BRANCH   7   9
HETATM    9  N1  UNL     1      27.285  -0.219  53.028  1.00  0.00    -0.325 N 
HETATM   10  C1  UNL     1      28.352  -0.016  53.942  1.00  0.00     0.250 C 
HETATM   11  O1  UNL     1      28.098   0.629  54.986  1.00  0.00    -0.271 OA
HETATM   12  H3  UNL     1      27.648  -0.775  52.200  1.00  0.00     0.169 HD
BRANCH  10  13
HETATM   13  C2  UNL     1      29.738  -0.496  53.774  1.00  0.00     0.325 C 
HETATM   14  F1  UNL     1      29.793  -1.840  53.459  1.00  0.00    -0.246 F 
ENDBRANCH  10  13
ENDBRANCH   7   9
ENDBRANCH   1   3
BRANCH   1  15
HETATM   15  C8  UNL     1      23.584   3.752  51.257  1.00  0.00     0.727 A 
HETATM   16  N3  UNL     1      22.498   4.024  50.522  1.00  0.00    -0.075 NA
HETATM   17  C9  UNL     1      22.479   4.662  49.356  1.00  0.00     0.139 A 
HETATM   18  C10 UNL     1      23.675   5.092  48.836  1.00  0.00     0.053 A 
HETATM   19  C11 UNL     1      24.826   4.843  49.545  1.00  0.00     0.089 A 
HETATM   20  N5  UNL     1      24.729   4.191  50.711  1.00  0.00    -0.062 NA
BRANCH  19  21
HETATM   21  C12 UNL     1      26.140   5.261  49.074  1.00  0.00     0.011 A 
HETATM   22  C13 UNL     1      26.434   6.540  48.663  1.00  0.00     0.017 A 
HETATM   23  C14 UNL     1      27.691   6.911  48.219  1.00  0.00     0.020 A 
HETATM   24  C15 UNL     1      28.704   5.966  48.182  1.00  0.00     0.116 A 
HETATM   25  N4  UNL     1      28.406   4.733  48.582  1.00  0.00    -0.272 NA
HETATM   26  C16 UNL     1      27.185   4.365  49.015  1.00  0.00     0.130 A 
ENDBRANCH  19  21
ENDBRANCH   1  15
TORSDOF 5
ENDMDL
MODEL 3
REMARK VINA RESULT:      -8.2      3.992      7.902
REMARK  5 active torsions:
REMARK  status: ('A' for Active; 'I' for Inactive)
REMARK    1  A    between atoms: C1_2  and  C2_3 
REMARK       I    between atoms: C1_2  and  N1_5 
REMARK    2  A    between atoms: N1_5  and  C3_6 
REMARK    3  A    between atoms: C7_10  and  N2_11 
REMARK    4  A    between atoms: N2_11  and  C8_12 
REMARK    5  A    between atoms: C11_16  and  C12_17 
ROOT
HETATM    1  N2  UNL     1      26.082   3.615  49.388  1.00  0.00    -0.188 N 
HETATM    2  H7  UNL     1      25.616   3.074  48.596  1.00  0.00     0.184 HD
ENDROOT
BRANCH   1   3
HETATM    3  C7  UNL     1      26.826   4.731  49.007  1.00  0.00     0.051 A 
HETATM    4  C6  UNL     1      26.231   5.998  49.031  1.00  0.00     0.030 A 
HETATM    5  C5  UNL     1      26.908   7.137  48.668  1.00  0.00     0.004 A 
HETATM    6  C4  UNL     1      28.215   7.054  48.265  1.00  0.00     0.029 A 
HETATM    7  C3  UNL     1      28.870   5.845  48.215  1.00  0.00     0.036 A 
HETATM    8  C17 UNL     1      28.137   4.759  48.589  1.00  0.00     0.059 A 
BRANCH   7   9
HETATM    9  N1  UNL     1      30.208   5.861  47.790  1.00  0.00    -0.325 N 
HETATM   10  C1  UNL     1      31.423   5.665  48.496  1.00  0.00     0.250 C 
HETATM   11  O1  UNL     1      31.342   5.431  49.725  1.00  0.00    -0.271 OA
HETATM   12  H3  UNL     1      30.433   6.048  46.770  1.00  0.00     0.169 HD
BRANCH  10  13
HETATM   13  C2  UNL     1      32.779   5.711  47.913  1.00  0.00     0.325 C 
HETATM   14  F1  UNL     1      33.750   5.961  48.864  1.00  0.00    -0.246 F 
ENDBRANCH  10  13
ENDBRANCH   7   9
ENDBRANCH   1   3
BRANCH   1  15
HETATM   15  C8  UNL     1      25.854   3.092  50.686  1.00  0.00     0.727 A 
HETATM   16  N3  UNL     1      24.830   3.392  51.495  1.00  0.00    -0.075 NA
HETATM   17  C9  UNL     1      24.620   2.899  52.712  1.00  0.00     0.139 A 
HETATM   18  C10 UNL     1      25.527   1.996  53.207  1.00  0.00     0.053 A 
HETATM   19  C11 UNL     1      26.602   1.647  52.423  1.00  0.00     0.089 A 
HETATM   20  N5  UNL     1      26.714   2.205  51.211  1.00  0.00    -0.062 NA
BRANCH  19  21
HETATM   21  C12 UNL     1      27.615   0.697  52.863  1.00  0.00     0.011 A 
HETATM   22  C13 UNL     1      28.867   1.063  53.301  1.00  0.00     0.017 A 
HETATM   23  C14 UNL     1      29.811   0.140  53.714  1.00  0.00     0.020 A 
HETATM   24  C15 UNL     1      29.498  -1.210  53.692  1.00  0.00     0.116 A 
HETATM   25  N4  UNL     1      28.283  -1.549  53.266  1.00  0.00    -0.272 NA
HETATM   26  C16 UNL     1      27.360  -0.656  52.862  1.00  0.00     0.130 A 
ENDBRANCH  19  21
ENDBRANCH   1  15
TORSDOF 5
ENDMDL
MODEL 4
REMARK VINA RESULT:      -8.2      2.302      6.205
REMARK  5 active torsions:
REMARK  status: ('A' for Active; 'I' for Inactive)
REMARK    1  A    between atoms: C1_2  and  C2_3 
REMARK       I    between atoms: C1_2  and  N1_5 
REMARK    2  A    between atoms: N1_5  and  C3_6 
REMARK    3  A    between atoms: C7_10  and  N2_11 
REMARK    4  A    between atoms: N2_11  and  C8_12 
REMARK    5  A    between atoms: C11_16  and  C12_17 
ROOT
HETATM    1  N2  UNL     1      21.412   1.274  52.070  1.00  0.00    -0.188 N 
HETATM    2  H7  UNL     1      20.444   1.640  52.324  1.00  0.00     0.184 HD
ENDROOT
BRANCH   1   3
HETATM    3  C7  UNL     1      21.912   1.681  50.833  1.00  0.00     0.051 A 
HETATM    4  C6  UNL     1      21.425   1.088  49.663  1.00  0.00     0.030 A 
HETATM    5  C5  UNL     1      21.875   1.443  48.414  1.00  0.00     0.004 A 
HETATM    6  C4  UNL     1      22.835   2.411  48.285  1.00  0.00     0.029 A 
HETATM    7  C3  UNL     1      23.364   3.042  49.389  1.00  0.00     0.036 A 
HETATM    8  C17 UNL     1      22.871   2.639  50.593  1.00  0.00     0.059 A 
BRANCH   7   9
HETATM    9  N1  UNL     1      24.343   4.021  49.156  1.00  0.00    -0.325 N 
HETATM   10  C1  UNL     1      25.757   3.984  49.267  1.00  0.00     0.250 C 
HETATM   11  O1  UNL     1      26.276   2.904  49.636  1.00  0.00    -0.271 OA
HETATM   12  H3  UNL     1      24.052   4.990  48.838  1.00  0.00     0.169 HD
BRANCH  10  13
HETATM   13  C2  UNL     1      26.676   5.104  48.986  1.00  0.00     0.325 C 
HETATM   14  F1  UNL     1      27.925   4.670  48.584  1.00  0.00    -0.246 F 
ENDBRANCH  10  13
ENDBRANCH   7   9
ENDBRANCH   1   3
BRANCH   1  15
HETATM   15  C8  UNL     1      22.012   0.439  53.046  1.00  0.00     0.727 A 
HETATM   16  N3  UNL     1      21.375  -0.283  53.976  1.00  0.00    -0.075 NA
HETATM   17  C9  UNL     1      21.942  -1.066  54.888  1.00  0.00     0.139 A 
HETATM   18  C10 UNL     1      23.312  -1.158  54.897  1.00  0.00     0.053 A 
HETATM   19  C11 UNL     1      24.024  -0.440  53.965  1.00  0.00     0.089 A 
HETATM   20  N5  UNL     1      23.349   0.317  53.092  1.00  0.00    -0.062 NA
BRANCH  19  21
HETATM   21  C12 UNL     1      25.479  -0.475  53.898  1.00  0.00     0.011 A 
HETATM   22  C13 UNL     1      26.183  -0.936  52.809  1.00  0.00     0.017 A 
HETATM   23  C14 UNL     1      27.566  -0.959  52.771  1.00  0.00     0.020 A 
HETATM   24  C15 UNL     1      28.284  -0.500  53.865  1.00  0.00     0.116 A 
HETATM   25  N4  UNL     1      27.590  -0.057  54.910  1.00  0.00    -0.272 NA
HETATM   26  C16 UNL     1      26.244  -0.033  54.954  1.00  0.00     0.130 A 
ENDBRANCH  19  21
ENDBRANCH   1  15
TORSDOF 5
ENDMDL
MODEL 5
REMARK VINA RESULT:      -7.7      4.628      8.492
REMARK  5 active torsions:
REMARK  status: ('A' for Active; 'I' for Inactive)
REMARK    1  A    between atoms: C1_2  and  C2_3 
REMARK       I    between atoms: C1_2  and  N1_5 
REMARK    2  A    between atoms: N1_5  and  C3_6 
REMARK    3  A    between atoms: C7_10  and  N2_11 
REMARK    4  A    between atoms: N2_11  and  C8_12 
REMARK    5  A    between atoms: C11_16  and  C12_17 
ROOT
HETATM    1  N2  UNL     1      25.435   3.982  49.419  1.00  0.00    -0.188 N 
HETATM    2  H7  UNL     1      24.830   3.506  48.683  1.00  0.00     0.184 HD
ENDROOT
BRANCH   1   3
HETATM    3  C7  UNL     1      26.262   5.006  48.957  1.00  0.00     0.051 A 
HETATM    4  C6  UNL     1      27.620   4.749  48.732  1.00  0.00     0.030 A 
HETATM    5  C5  UNL     1      28.487   5.713  48.278  1.00  0.00     0.004 A 
HETATM    6  C4  UNL     1      28.029   6.980  48.030  1.00  0.00     0.029 A 
HETATM    7  C3  UNL     1      26.707   7.312  48.226  1.00  0.00     0.036 A 
HETATM    8  C17 UNL     1      25.906   6.306  48.677  1.00  0.00     0.059 A 
BRANCH   7   9
HETATM    9  N1  UNL     1      26.333   8.635  47.943  1.00  0.00    -0.325 N 
HETATM   10  C1  UNL     1      26.272   9.792  48.762  1.00  0.00     0.250 C 
HETATM   11  O1  UNL     1      26.603   9.663  49.964  1.00  0.00    -0.271 OA
HETATM   12  H3  UNL     1      26.025   8.896  46.961  1.00  0.00     0.169 HD
BRANCH  10  13
HETATM   13  C2  UNL     1      25.853  11.139  48.326  1.00  0.00     0.325 C 
HETATM   14  F1  UNL     1      26.821  12.093  48.569  1.00  0.00    -0.246 F 
ENDBRANCH  10  13
ENDBRANCH   7   9
ENDBRANCH   1   3
BRANCH   1  15
HETATM   15  C8  UNL     1      25.284   3.481  50.736  1.00  0.00     0.727 A 
HETATM   16  N3  UNL     1      24.281   3.753  51.580  1.00  0.00    -0.075 NA
HETATM   17  C9  UNL     1      24.142   3.281  52.815  1.00  0.00     0.139 A 
HETATM   18  C10 UNL     1      25.109   2.431  53.292  1.00  0.00     0.053 A 
HETATM   19  C11 UNL     1      26.166   2.113  52.472  1.00  0.00     0.089 A 
HETATM   20  N5  UNL     1      26.204   2.646  51.245  1.00  0.00    -0.062 NA
BRANCH  19  21
HETATM   21  C12 UNL     1      27.238   1.220  52.891  1.00  0.00     0.011 A 
HETATM   22  C13 UNL     1      27.197  -0.147  52.743  1.00  0.00     0.017 A 
HETATM   23  C14 UNL     1      28.230  -0.973  53.150  1.00  0.00     0.020 A 
HETATM   24  C15 UNL     1      29.358  -0.414  53.731  1.00  0.00     0.116 A 
HETATM   25  N4  UNL     1      29.384   0.909  53.867  1.00  0.00    -0.272 NA
HETATM   26  C16 UNL     1      28.382   1.718  53.474  1.00  0.00     0.130 A 
ENDBRANCH  19  21
ENDBRANCH   1  15
TORSDOF 5
ENDMDL
MODEL 6
REMARK VINA RESULT:      -7.6      3.015      6.767
REMARK  5 active torsions:
REMARK  status: ('A' for Active; 'I' for Inactive)
REMARK    1  A    between atoms: C1_2  and  C2_3 
REMARK       I    between atoms: C1_2  and  N1_5 
REMARK    2  A    between atoms: N1_5  and  C3_6 
REMARK    3  A    between atoms: C7_10  and  N2_11 
REMARK    4  A    between atoms: N2_11  and  C8_12 
REMARK    5  A    between atoms: C11_16  and  C12_17 
ROOT
HETATM    1  N2  UNL     1      23.191   4.318  51.984  1.00  0.00    -0.188 N 
HETATM    2  H7  UNL     1      22.667   4.944  52.669  1.00  0.00     0.184 HD
ENDROOT
BRANCH   1   3
HETATM    3  C7  UNL     1      23.549   4.909  50.772  1.00  0.00     0.051 A 
HETATM    4  C6  UNL     1      22.556   5.212  49.832  1.00  0.00     0.030 A 
HETATM    5  C5  UNL     1      22.842   5.793  48.621  1.00  0.00     0.004 A 
HETATM    6  C4  UNL     1      24.138   6.096  48.299  1.00  0.00     0.029 A 
HETATM    7  C3  UNL     1      25.170   5.830  49.169  1.00  0.00     0.036 A 
HETATM    8  C17 UNL     1      24.813   5.253  50.351  1.00  0.00     0.059 A 
BRANCH   7   9
HETATM    9  N1  UNL     1      26.464   6.177  48.750  1.00  0.00    -0.325 N 
HETATM   10  C1  UNL     1      27.637   5.398  48.571  1.00  0.00     0.250 C 
HETATM   11  O1  UNL     1      27.555   4.172  48.817  1.00  0.00    -0.271 OA
HETATM   12  H3  UNL     1      26.685   7.186  48.506  1.00  0.00     0.169 HD
BRANCH  10  13
HETATM   13  C2  UNL     1      28.949   5.902  48.118  1.00  0.00     0.325 C 
HETATM   14  F1  UNL     1      29.816   4.880  47.784  1.00  0.00    -0.246 F 
ENDBRANCH  10  13
ENDBRANCH   7   9
ENDBRANCH   1   3
BRANCH   1  15
HETATM   15  C8  UNL     1      23.428   2.996  52.438  1.00  0.00     0.727 A 
HETATM   16  N3  UNL     1      22.531   2.004  52.500  1.00  0.00    -0.075 NA
HETATM   17  C9  UNL     1      22.757   0.765  52.926  1.00  0.00     0.139 A 
HETATM   18  C10 UNL     1      24.025   0.451  53.349  1.00  0.00     0.053 A 
HETATM   19  C11 UNL     1      24.991   1.428  53.310  1.00  0.00     0.089 A 
HETATM   20  N5  UNL     1      24.652   2.642  52.861  1.00  0.00    -0.062 NA
BRANCH  19  21
HETATM   21  C12 UNL     1      26.363   1.187  53.739  1.00  0.00     0.011 A 
HETATM   22  C13 UNL     1      27.422   1.999  53.403  1.00  0.00     0.017 A 
HETATM   23  C14 UNL     1      28.716   1.747  53.823  1.00  0.00     0.020 A 
HETATM   24  C15 UNL     1      28.970   0.639  54.616  1.00  0.00     0.116 A 
HETATM   25  N4  UNL     1      27.936  -0.136  54.933  1.00  0.00    -0.272 NA
HETATM   26  C16 UNL     1      26.675   0.102  54.527  1.00  0.00     0.130 A 
ENDBRANCH  19  21
ENDBRANCH   1  15
TORSDOF 5
ENDMDL
MODEL 7
REMARK VINA RESULT:      -7.5      4.796      8.114
REMARK  5 active torsions:
REMARK  status: ('A' for Active; 'I' for Inactive)
REMARK    1  A    between atoms: C1_2  and  C2_3 
REMARK       I    between atoms: C1_2  and  N1_5 
REMARK    2  A    between atoms: N1_5  and  C3_6 
REMARK    3  A    between atoms: C7_10  and  N2_11 
REMARK    4  A    between atoms: N2_11  and  C8_12 
REMARK    5  A    between atoms: C11_16  and  C12_17 
ROOT
HETATM    1  N2  UNL     1      28.027   6.152  47.913  1.00  0.00    -0.188 N 
HETATM    2  H7  UNL     1      27.779   6.232  46.879  1.00  0.00     0.184 HD
ENDROOT
BRANCH   1   3
HETATM    3  C7  UNL     1      27.041   5.608  48.735  1.00  0.00     0.051 A 
HETATM    4  C6  UNL     1      25.962   6.404  49.138  1.00  0.00     0.030 A 
HETATM    5  C5  UNL     1      24.958   5.929  49.947  1.00  0.00     0.004 A 
HETATM    6  C4  UNL     1      24.994   4.633  50.389  1.00  0.00     0.029 A 
HETATM    7  C3  UNL     1      26.021   3.788  50.037  1.00  0.00     0.036 A 
HETATM    8  C17 UNL     1      26.981   4.326  49.233  1.00  0.00     0.059 A 
BRANCH   7   9
HETATM    9  N1  UNL     1      25.970   2.478  50.538  1.00  0.00    -0.325 N 
HETATM   10  C1  UNL     1      26.724   1.825  51.547  1.00  0.00     0.250 C 
HETATM   11  O1  UNL     1      27.609   2.497  52.127  1.00  0.00    -0.271 OA
HETATM   12  H3  UNL     1      25.266   1.790  50.140  1.00  0.00     0.169 HD
BRANCH  10  13
HETATM   13  C2  UNL     1      26.561   0.422  51.978  1.00  0.00     0.325 C 
HETATM   14  F1  UNL     1      27.734  -0.113  52.476  1.00  0.00    -0.246 F 
ENDBRANCH  10  13
ENDBRANCH   7   9
ENDBRANCH   1   3
BRANCH   1  15
HETATM   15  C8  UNL     1      29.322   6.616  48.256  1.00  0.00     0.727 A 
HETATM   16  N3  UNL     1      29.632   7.828  48.734  1.00  0.00    -0.075 NA
HETATM   17  C9  UNL     1      30.848   8.258  49.055  1.00  0.00     0.139 A 
HETATM   18  C10 UNL     1      31.902   7.396  48.889  1.00  0.00     0.053 A 
HETATM   19  C11 UNL     1      31.648   6.135  48.402  1.00  0.00     0.089 A 
HETATM   20  N5  UNL     1      30.384   5.807  48.111  1.00  0.00    -0.062 NA
BRANCH  19  21
HETATM   21  C12 UNL     1      32.703   5.152  48.192  1.00  0.00     0.011 A 
HETATM   22  C13 UNL     1      32.481   3.887  47.698  1.00  0.00     0.017 A 
HETATM   23  C14 UNL     1      33.501   2.971  47.509  1.00  0.00     0.020 A 
HETATM   24  C15 UNL     1      34.803   3.329  47.823  1.00  0.00     0.116 A 
HETATM   25  N4  UNL     1      35.002   4.556  48.299  1.00  0.00    -0.272 NA
HETATM   26  C16 UNL     1      34.014   5.451  48.487  1.00  0.00     0.130 A 
ENDBRANCH  19  21
ENDBRANCH   1  15
TORSDOF 5
ENDMDL
MODEL 8
REMARK VINA RESULT:      -7.4      3.221      7.585
REMARK  5 active torsions:
REMARK  status: ('A' for Active; 'I' for Inactive)
REMARK    1  A    between atoms: C1_2  and  C2_3 
REMARK       I    between atoms: C1_2  and  N1_5 
REMARK    2  A    between atoms: N1_5  and  C3_6 
REMARK    3  A    between atoms: C7_10  and  N2_11 
REMARK    4  A    between atoms: N2_11  and  C8_12 
REMARK    5  A    between atoms: C11_16  and  C12_17 
ROOT
HETATM    1  N2  UNL     1      26.814   1.882  51.166  1.00  0.00    -0.188 N 
HETATM    2  H7  UNL     1      27.643   1.533  50.595  1.00  0.00     0.184 HD
ENDROOT
BRANCH   1   3
HETATM    3  C7  UNL     1      26.085   2.929  50.603  1.00  0.00     0.051 A 
HETATM    4  C6  UNL     1      26.715   3.811  49.717  1.00  0.00     0.030 A 
HETATM    5  C5  UNL     1      26.054   4.862  49.129  1.00  0.00     0.004 A 
HETATM    6  C4  UNL     1      24.729   5.074  49.403  1.00  0.00     0.029 A 
HETATM    7  C3  UNL     1      24.039   4.251  50.263  1.00  0.00     0.036 A 
HETATM    8  C17 UNL     1      24.758   3.230  50.810  1.00  0.00     0.059 A 
BRANCH   7   9
HETATM    9  N1  UNL     1      22.684   4.548  50.482  1.00  0.00    -0.325 N 
HETATM   10  C1  UNL     1      21.527   3.728  50.473  1.00  0.00     0.250 C 
HETATM   11  O1  UNL     1      21.689   2.508  50.232  1.00  0.00    -0.271 OA
HETATM   12  H3  UNL     1      22.393   5.545  50.698  1.00  0.00     0.169 HD
BRANCH  10  13
HETATM   13  C2  UNL     1      20.144   4.180  50.723  1.00  0.00     0.325 C 
HETATM   14  F1  UNL     1      19.762   3.999  52.039  1.00  0.00    -0.246 F 
ENDBRANCH  10  13
ENDBRANCH   7   9
ENDBRANCH   1   3
BRANCH   1  15
HETATM   15  C8  UNL     1      26.607   1.210  52.397  1.00  0.00     0.727 A 
HETATM   16  N3  UNL     1      27.514   1.026  53.365  1.00  0.00    -0.075 NA
HETATM   17  C9  UNL     1      27.316   0.395  54.518  1.00  0.00     0.139 A 
HETATM   18  C10 UNL     1      26.069  -0.125  54.763  1.00  0.00     0.053 A 
HETATM   19  C11 UNL     1      25.093   0.033  53.807  1.00  0.00     0.089 A 
HETATM   20  N5  UNL     1      25.404   0.686  52.680  1.00  0.00    -0.062 NA
BRANCH  19  21
HETATM   21  C12 UNL     1      23.742  -0.485  53.977  1.00  0.00     0.011 A 
HETATM   22  C13 UNL     1      22.725  -0.278  53.074  1.00  0.00     0.017 A 
HETATM   23  C14 UNL     1      21.449  -0.781  53.261  1.00  0.00     0.020 A 
HETATM   24  C15 UNL     1      21.171  -1.525  54.397  1.00  0.00     0.116 A 
HETATM   25  N4  UNL     1      22.165  -1.717  55.261  1.00  0.00    -0.272 NA
HETATM   26  C16 UNL     1      23.408  -1.230  55.086  1.00  0.00     0.130 A 
ENDBRANCH  19  21
ENDBRANCH   1  15
TORSDOF 5
ENDMDL
MODEL 9
REMARK VINA RESULT:      -7.4      4.496      8.416
REMARK  5 active torsions:
REMARK  status: ('A' for Active; 'I' for Inactive)
REMARK    1  A    between atoms: C1_2  and  C2_3 
REMARK       I    between atoms: C1_2  and  N1_5 
REMARK    2  A    between atoms: N1_5  and  C3_6 
REMARK    3  A    between atoms: C7_10  and  N2_11 
REMARK    4  A    between atoms: N2_11  and  C8_12 
REMARK    5  A    between atoms: C11_16  and  C12_17 
ROOT
HETATM    1  N2  UNL     1      25.754   3.148  49.646  1.00  0.00    -0.188 N 
HETATM    2  H7  UNL     1      25.537   2.406  48.912  1.00  0.00     0.184 HD
ENDROOT
BRANCH   1   3
HETATM    3  C7  UNL     1      26.037   4.423  49.157  1.00  0.00     0.051 A 
HETATM    4  C6  UNL     1      27.362   4.777  48.878  1.00  0.00     0.030 A 
HETATM    5  C5  UNL     1      27.708   6.016  48.395  1.00  0.00     0.004 A 
HETATM    6  C4  UNL     1      26.737   6.956  48.171  1.00  0.00     0.029 A 
HETATM    7  C3  UNL     1      25.411   6.685  48.422  1.00  0.00     0.036 A 
HETATM    8  C17 UNL     1      25.142   5.437  48.898  1.00  0.00     0.059 A 
BRANCH   7   9
HETATM    9  N1  UNL     1      24.490   7.711  48.161  1.00  0.00    -0.325 N 
HETATM   10  C1  UNL     1      23.621   8.436  49.017  1.00  0.00     0.250 C 
HETATM   11  O1  UNL     1      23.641   8.146  50.236  1.00  0.00    -0.271 OA
HETATM   12  H3  UNL     1      24.362   8.063  47.168  1.00  0.00     0.169 HD
BRANCH  10  13
HETATM   13  C2  UNL     1      22.691   9.505  48.601  1.00  0.00     0.325 C 
HETATM   14  F1  UNL     1      22.827   9.828  47.264  1.00  0.00    -0.246 F 
ENDBRANCH  10  13
ENDBRANCH   7   9
ENDBRANCH   1   3
BRANCH   1  15
HETATM   15  C8  UNL     1      25.712   2.694  50.988  1.00  0.00     0.727 A 
HETATM   16  N3  UNL     1      24.854   3.092  51.936  1.00  0.00    -0.075 NA
HETATM   17  C9  UNL     1      24.818   2.663  53.193  1.00  0.00     0.139 A 
HETATM   18  C10 UNL     1      25.739   1.722  53.580  1.00  0.00     0.053 A 
HETATM   19  C11 UNL     1      26.648   1.273  52.652  1.00  0.00     0.089 A 
HETATM   20  N5  UNL     1      26.593   1.774  51.412  1.00  0.00    -0.062 NA
BRANCH  19  21
HETATM   21  C12 UNL     1      27.663   0.276  52.970  1.00  0.00     0.011 A 
HETATM   22  C13 UNL     1      28.954   0.588  53.329  1.00  0.00     0.017 A 
HETATM   23  C14 UNL     1      29.899  -0.378  53.626  1.00  0.00     0.020 A 
HETATM   24  C15 UNL     1      29.544  -1.717  53.565  1.00  0.00     0.116 A 
HETATM   25  N4  UNL     1      28.292  -2.003  53.217  1.00  0.00    -0.272 NA
HETATM   26  C16 UNL     1      27.368  -1.068  52.926  1.00  0.00     0.130 A 
ENDBRANCH  19  21
ENDBRANCH   1  15
TORSDOF 5
ENDMDL
