MODEL 1
REMARK VINA RESULT:      -8.4      0.000      0.000
REMARK  6 active torsions:
REMARK  status: ('A' for Active; 'I' for Inactive)
REMARK    1  A    between atoms: C2_2  and  N1_3 
REMARK    2  A    between atoms: C2_2  and  C14_19 
REMARK    3  A    between atoms: N1_3  and  C3_4 
REMARK    4  A    between atoms: C6_9  and  C7_10 
REMARK    5  A    between atoms: C7_10  and  N4_11 
REMARK    6  A    between atoms: C7_10  and  C8_12 
ROOT
HETATM    1  C3  UNL     1      24.442   2.795  51.507  1.00  0.00     0.135 A 
HETATM    2  N2  UNL     1      24.202   3.363  50.324  1.00  0.00    -0.224 NA
HETATM    3  C4  UNL     1      25.099   3.646  49.379  1.00  0.00     0.234 A 
HETATM    4  N3  UNL     1      26.375   3.320  49.651  1.00  0.00    -0.253 NA
HETATM    5  C5  UNL     1      26.662   2.747  50.829  1.00  0.00     0.131 A 
HETATM    6  C6  UNL     1      25.729   2.445  51.834  1.00  0.00     0.042 A 
ENDROOT
BRANCH   6   7
HETATM    7  C7  UNL     1      26.123   1.829  53.117  1.00  0.00     0.289 C 
BRANCH   7   8
HETATM    8  N4  UNL     1      26.724   2.709  54.069  1.00  0.00     0.091 NA
HETATM    9  H9  UNL     1      27.735   2.551  54.174  1.00  0.00     0.314 HD
HETATM   10  H10 UNL     1      26.498   3.694  54.023  1.00  0.00     0.314 HD
ENDBRANCH   7   8
BRANCH   7  11
HETATM   11  C8  UNL     1      26.722   0.489  53.014  1.00  0.00    -0.021 A 
HETATM   12  C9  UNL     1      26.178  -0.690  52.557  1.00  0.00     0.012 A 
HETATM   13  C10 UNL     1      26.823  -1.885  52.518  1.00  0.00     0.043 A 
HETATM   14  C11 UNL     1      28.118  -1.995  52.953  1.00  0.00     0.116 A 
HETATM   15  F1  UNL     1      28.754  -3.185  52.913  1.00  0.00    -0.206 F 
HETATM   16  C12 UNL     1      28.754  -0.869  53.430  1.00  0.00     0.043 A 
HETATM   17  C13 UNL     1      28.048   0.315  53.444  1.00  0.00     0.012 A 
ENDBRANCH   7  11
ENDBRANCH   6   7
BRANCH   1  18
HETATM   18  N1  UNL     1      23.342   2.540  52.364  1.00  0.00    -0.366 N 
HETATM   19  H5  UNL     1      23.473   2.893  53.330  1.00  0.00     0.161 HD
BRANCH  18  20
HETATM   20  C2  UNL     1      22.080   1.888  52.185  1.00  0.00     0.112 C 
HETATM   21  C1  UNL     1      20.964   2.923  52.360  1.00  0.00     0.037 C 
BRANCH  20  22
HETATM   22  C14 UNL     1      21.813   0.701  52.979  1.00  0.00    -0.036 A 
HETATM   23  C15 UNL     1      20.638   0.009  53.165  1.00  0.00     0.009 A 
HETATM   24  C16 UNL     1      20.463  -1.115  53.931  1.00  0.00     0.001 A 
HETATM   25  C17 UNL     1      21.544  -1.633  54.594  1.00  0.00     0.000 A 
HETATM   26  C18 UNL     1      22.772  -1.033  54.488  1.00  0.00     0.001 A 
HETATM   27  C19 UNL     1      22.851   0.091  53.697  1.00  0.00     0.009 A 
ENDBRANCH  20  22
ENDBRANCH  18  20
ENDBRANCH   1  18
TORSDOF 6
ENDMDL
MODEL 2
REMARK VINA RESULT:      -8.1      1.732      5.215
REMARK  6 active torsions:
REMARK  status: ('A' for Active; 'I' for Inactive)
REMARK    1  A    between atoms: C2_2  and  N1_3 
REMARK    2  A    between atoms: C2_2  and  C14_19 
REMARK    3  A    between atoms: N1_3  and  C3_4 
REMARK    4  A    between atoms: C6_9  and  C7_10 
REMARK    5  A    between atoms: C7_10  and  N4_11 
REMARK    6  A    between atoms: C7_10  and  C8_12 
ROOT
HETATM    1  C3  UNL     1      23.339   1.434  51.500  1.00  0.00     0.135 A 
HETATM    2  N2  UNL     1      22.183   0.958  51.035  1.00  0.00    -0.224 NA
HETATM    3  C4  UNL     1      21.283   0.244  51.713  1.00  0.00     0.234 A 
HETATM    4  N3  UNL     1      21.576  -0.019  52.999  1.00  0.00    -0.253 NA
HETATM    5  C5  UNL     1      22.729   0.440  53.509  1.00  0.00     0.131 A 
HETATM    6  C6  UNL     1      23.685   1.192  52.807  1.00  0.00     0.042 A 
ENDROOT
BRANCH   6   7
HETATM    7  C7  UNL     1      24.945   1.646  53.432  1.00  0.00     0.289 C 
BRANCH   7   8
HETATM    8  N4  UNL     1      25.262   3.028  53.256  1.00  0.00     0.091 NA
HETATM    9  H9  UNL     1      25.485   3.500  54.142  1.00  0.00     0.314 HD
HETATM   10  H10 UNL     1      25.907   3.283  52.519  1.00  0.00     0.314 HD
ENDBRANCH   7   8
BRANCH   7  11
HETATM   11  C8  UNL     1      26.074   0.709  53.323  1.00  0.00    -0.021 A 
HETATM   12  C9  UNL     1      26.125  -0.556  52.782  1.00  0.00     0.012 A 
HETATM   13  C10 UNL     1      27.228  -1.348  52.746  1.00  0.00     0.043 A 
HETATM   14  C11 UNL     1      28.417  -0.913  53.273  1.00  0.00     0.116 A 
HETATM   15  F1  UNL     1      29.511  -1.704  53.235  1.00  0.00    -0.206 F 
HETATM   16  C12 UNL     1      28.471   0.343  53.839  1.00  0.00     0.043 A 
HETATM   17  C13 UNL     1      27.319   1.099  53.845  1.00  0.00     0.012 A 
ENDBRANCH   7  11
ENDBRANCH   6   7
BRANCH   1  18
HETATM   18  N1  UNL     1      24.145   2.208  50.630  1.00  0.00    -0.366 N 
HETATM   19  H5  UNL     1      25.111   1.847  50.521  1.00  0.00     0.161 HD
BRANCH  18  20
HETATM   20  C2  UNL     1      23.915   3.396  49.864  1.00  0.00     0.112 C 
HETATM   21  C1  UNL     1      23.021   3.046  48.670  1.00  0.00     0.037 C 
BRANCH  20  22
HETATM   22  C14 UNL     1      25.074   4.160  49.436  1.00  0.00    -0.036 A 
HETATM   23  C15 UNL     1      26.399   3.793  49.371  1.00  0.00     0.009 A 
HETATM   24  C16 UNL     1      27.444   4.574  48.948  1.00  0.00     0.001 A 
HETATM   25  C17 UNL     1      27.183   5.857  48.542  1.00  0.00     0.000 A 
HETATM   26  C18 UNL     1      25.901   6.340  48.560  1.00  0.00     0.001 A 
HETATM   27  C19 UNL     1      24.917   5.484  49.001  1.00  0.00     0.009 A 
ENDBRANCH  20  22
ENDBRANCH  18  20
ENDBRANCH   1  18
TORSDOF 6
ENDMDL
MODEL 3
REMARK VINA RESULT:      -8.0      2.130      3.320
REMARK  6 active torsions:
REMARK  status: ('A' for Active; 'I' for Inactive)
REMARK    1  A    between atoms: C2_2  and  N1_3 
REMARK    2  A    between atoms: C2_2  and  C14_19 
REMARK    3  A    between atoms: N1_3  and  C3_4 
REMARK    4  A    between atoms: C6_9  and  C7_10 
REMARK    5  A    between atoms: C7_10  and  N4_11 
REMARK    6  A    between atoms: C7_10  and  C8_12 
ROOT
HETATM    1  C3  UNL     1      23.111   0.835  52.648  1.00  0.00     0.135 A 
HETATM    2  N2  UNL     1      22.711   1.958  52.050  1.00  0.00    -0.224 NA
HETATM    3  C4  UNL     1      23.456   3.036  51.800  1.00  0.00     0.234 A 
HETATM    4  N3  UNL     1      24.741   2.978  52.191  1.00  0.00    -0.253 NA
HETATM    5  C5  UNL     1      25.186   1.867  52.797  1.00  0.00     0.131 A 
HETATM    6  C6  UNL     1      24.414   0.725  53.068  1.00  0.00     0.042 A 
ENDROOT
BRANCH   6   7
HETATM    7  C7  UNL     1      24.969  -0.456  53.759  1.00  0.00     0.289 C 
BRANCH   7   8
HETATM    8  N4  UNL     1      24.243  -0.904  54.905  1.00  0.00     0.091 NA
HETATM    9  H9  UNL     1      23.345  -0.417  55.022  1.00  0.00     0.314 HD
HETATM   10  H10 UNL     1      24.157  -1.901  55.060  1.00  0.00     0.314 HD
ENDBRANCH   7   8
BRANCH   7  11
HETATM   11  C8  UNL     1      26.435  -0.484  53.876  1.00  0.00    -0.021 A 
HETATM   12  C9  UNL     1      27.266   0.182  54.749  1.00  0.00     0.012 A 
HETATM   13  C10 UNL     1      28.621   0.094  54.760  1.00  0.00     0.043 A 
HETATM   14  C11 UNL     1      29.277  -0.704  53.858  1.00  0.00     0.116 A 
HETATM   15  F1  UNL     1      30.624  -0.788  53.874  1.00  0.00    -0.206 F 
HETATM   16  C12 UNL     1      28.534  -1.415  52.940  1.00  0.00     0.043 A 
HETATM   17  C13 UNL     1      27.163  -1.284  52.979  1.00  0.00     0.012 A 
ENDBRANCH   7  11
ENDBRANCH   6   7
BRANCH   1  18
HETATM   18  N1  UNL     1      22.174  -0.220  52.788  1.00  0.00    -0.366 N 
HETATM   19  H5  UNL     1      22.448  -1.090  52.295  1.00  0.00     0.161 HD
BRANCH  18  20
HETATM   20  C2  UNL     1      20.919  -0.345  53.462  1.00  0.00     0.112 C 
HETATM   21  C1  UNL     1      20.944  -1.615  54.318  1.00  0.00     0.037 C 
BRANCH  20  22
HETATM   22  C14 UNL     1      19.709  -0.287  52.659  1.00  0.00    -0.036 A 
HETATM   23  C15 UNL     1      19.482   0.326  51.447  1.00  0.00     0.009 A 
HETATM   24  C16 UNL     1      18.306   0.333  50.742  1.00  0.00     0.001 A 
HETATM   25  C17 UNL     1      17.224  -0.326  51.263  1.00  0.00     0.000 A 
HETATM   26  C18 UNL     1      17.324  -0.976  52.465  1.00  0.00     0.001 A 
HETATM   27  C19 UNL     1      18.543  -0.928  53.101  1.00  0.00     0.009 A 
ENDBRANCH  20  22
ENDBRANCH  18  20
ENDBRANCH   1  18
TORSDOF 6
ENDMDL
MODEL 4
REMARK VINA RESULT:      -8.0      2.687      5.653
REMARK  6 active torsions:
REMARK  status: ('A' for Active; 'I' for Inactive)
REMARK    1  A    between atoms: C2_2  and  N1_3 
REMARK    2  A    between atoms: C2_2  and  C14_19 
REMARK    3  A    between atoms: N1_3  and  C3_4 
REMARK    4  A    between atoms: C6_9  and  C7_10 
REMARK    5  A    between atoms: C7_10  and  N4_11 
REMARK    6  A    between atoms: C7_10  and  C8_12 
ROOT
HETATM    1  C3  UNL     1      25.919   3.274  51.080  1.00  0.00     0.135 A 
HETATM    2  N2  UNL     1      26.943   3.359  50.229  1.00  0.00    -0.224 NA
HETATM    3  C4  UNL     1      27.036   4.168  49.173  1.00  0.00     0.234 A 
HETATM    4  N3  UNL     1      25.987   4.980  48.949  1.00  0.00    -0.253 NA
HETATM    5  C5  UNL     1      24.936   4.928  49.780  1.00  0.00     0.131 A 
HETATM    6  C6  UNL     1      24.824   4.081  50.895  1.00  0.00     0.042 A 
ENDROOT
BRANCH   6   7
HETATM    7  C7  UNL     1      23.623   4.065  51.755  1.00  0.00     0.289 C 
BRANCH   7   8
HETATM    8  N4  UNL     1      23.838   4.395  53.128  1.00  0.00     0.091 NA
HETATM    9  H9  UNL     1      23.401   3.723  53.772  1.00  0.00     0.314 HD
HETATM   10  H10 UNL     1      24.773   4.647  53.422  1.00  0.00     0.314 HD
ENDBRANCH   7   8
BRANCH   7  11
HETATM   11  C8  UNL     1      22.682   2.962  51.500  1.00  0.00    -0.021 A 
HETATM   12  C9  UNL     1      22.641   2.056  50.464  1.00  0.00     0.012 A 
HETATM   13  C10 UNL     1      21.711   1.077  50.318  1.00  0.00     0.043 A 
HETATM   14  C11 UNL     1      20.706   0.926  51.238  1.00  0.00     0.116 A 
HETATM   15  F1  UNL     1      19.783  -0.048  51.087  1.00  0.00    -0.206 F 
HETATM   16  C12 UNL     1      20.658   1.785  52.314  1.00  0.00     0.043 A 
HETATM   17  C13 UNL     1      21.630   2.757  52.409  1.00  0.00     0.012 A 
ENDBRANCH   7  11
ENDBRANCH   6   7
BRANCH   1  18
HETATM   18  N1  UNL     1      26.027   2.375  52.171  1.00  0.00    -0.366 N 
HETATM   19  H5  UNL     1      26.139   2.843  53.089  1.00  0.00     0.161 HD
BRANCH  18  20
HETATM   20  C2  UNL     1      26.022   0.948  52.280  1.00  0.00     0.112 C 
HETATM   21  C1  UNL     1      24.811   0.524  53.117  1.00  0.00     0.037 C 
BRANCH  20  22
HETATM   22  C14 UNL     1      27.232   0.301  52.757  1.00  0.00    -0.036 A 
HETATM   23  C15 UNL     1      27.551  -1.036  52.826  1.00  0.00     0.009 A 
HETATM   24  C16 UNL     1      28.725  -1.575  53.288  1.00  0.00     0.001 A 
HETATM   25  C17 UNL     1      29.705  -0.728  53.734  1.00  0.00     0.000 A 
HETATM   26  C18 UNL     1      29.508   0.628  53.716  1.00  0.00     0.001 A 
HETATM   27  C19 UNL     1      28.298   1.076  53.236  1.00  0.00     0.009 A 
ENDBRANCH  20  22
ENDBRANCH  18  20
ENDBRANCH   1  18
TORSDOF 6
ENDMDL
MODEL 5
REMARK VINA RESULT:      -7.9      2.565      5.937
REMARK  6 active torsions:
REMARK  status: ('A' for Active; 'I' for Inactive)
REMARK    1  A    between atoms: C2_2  and  N1_3 
REMARK    2  A    between atoms: C2_2  and  C14_19 
REMARK    3  A    between atoms: N1_3  and  C3_4 
REMARK    4  A    between atoms: C6_9  and  C7_10 
REMARK    5  A    between atoms: C7_10  and  N4_11 
REMARK    6  A    between atoms: C7_10  and  C8_12 
ROOT
HETATM    1  C3  UNL     1      27.190   1.435  52.690  1.00  0.00     0.135 A 
HETATM    2  N2  UNL     1      28.007   2.442  53.004  1.00  0.00    -0.224 NA
HETATM    3  C4  UNL     1      28.957   2.437  53.940  1.00  0.00     0.234 A 
HETATM    4  N3  UNL     1      29.102   1.295  54.636  1.00  0.00    -0.253 NA
HETATM    5  C5  UNL     1      28.302   0.257  54.355  1.00  0.00     0.131 A 
HETATM    6  C6  UNL     1      27.298   0.248  53.372  1.00  0.00     0.042 A 
ENDROOT
BRANCH   6   7
HETATM    7  C7  UNL     1      26.440  -0.930  53.132  1.00  0.00     0.289 C 
BRANCH   7   8
HETATM    8  N4  UNL     1      26.460  -1.454  51.803  1.00  0.00     0.091 NA
HETATM    9  H9  UNL     1      27.411  -1.669  51.476  1.00  0.00     0.314 HD
HETATM   10  H10 UNL     1      25.803  -2.186  51.564  1.00  0.00     0.314 HD
ENDBRANCH   7   8
BRANCH   7  11
HETATM   11  C8  UNL     1      25.122  -0.891  53.786  1.00  0.00    -0.021 A 
HETATM   12  C9  UNL     1      24.777  -1.137  55.097  1.00  0.00     0.012 A 
HETATM   13  C10 UNL     1      23.515  -1.086  55.595  1.00  0.00     0.043 A 
HETATM   14  C11 UNL     1      22.455  -0.772  54.784  1.00  0.00     0.116 A 
HETATM   15  F1  UNL     1      21.202  -0.723  55.285  1.00  0.00    -0.206 F 
HETATM   16  C12 UNL     1      22.695  -0.508  53.453  1.00  0.00     0.043 A 
HETATM   17  C13 UNL     1      23.997  -0.575  53.006  1.00  0.00     0.012 A 
ENDBRANCH   7  11
ENDBRANCH   6   7
BRANCH   1  18
HETATM   18  N1  UNL     1      26.269   1.624  51.631  1.00  0.00    -0.366 N 
HETATM   19  H5  UNL     1      26.231   0.832  50.962  1.00  0.00     0.161 HD
BRANCH  18  20
HETATM   20  C2  UNL     1      25.374   2.683  51.276  1.00  0.00     0.112 C 
HETATM   21  C1  UNL     1      24.072   2.071  50.748  1.00  0.00     0.037 C 
BRANCH  20  22
HETATM   22  C14 UNL     1      25.865   3.710  50.373  1.00  0.00    -0.036 A 
HETATM   23  C15 UNL     1      26.967   3.709  49.549  1.00  0.00     0.009 A 
HETATM   24  C16 UNL     1      27.367   4.722  48.716  1.00  0.00     0.001 A 
HETATM   25  C17 UNL     1      26.618   5.870  48.671  1.00  0.00     0.000 A 
HETATM   26  C18 UNL     1      25.494   5.993  49.446  1.00  0.00     0.001 A 
HETATM   27  C19 UNL     1      25.172   4.924  50.252  1.00  0.00     0.009 A 
ENDBRANCH  20  22
ENDBRANCH  18  20
ENDBRANCH   1  18
TORSDOF 6
ENDMDL
MODEL 6
REMARK VINA RESULT:      -7.9      2.824      5.407
REMARK  6 active torsions:
REMARK  status: ('A' for Active; 'I' for Inactive)
REMARK    1  A    between atoms: C2_2  and  N1_3 
REMARK    2  A    between atoms: C2_2  and  C14_19 
REMARK    3  A    between atoms: N1_3  and  C3_4 
REMARK    4  A    between atoms: C6_9  and  C7_10 
REMARK    5  A    between atoms: C7_10  and  N4_11 
REMARK    6  A    between atoms: C7_10  and  C8_12 
ROOT
HETATM    1  C3  UNL     1      22.737   0.945  52.067  1.00  0.00     0.135 A 
HETATM    2  N2  UNL     1      21.662   0.370  51.525  1.00  0.00    -0.224 NA
HETATM    3  C4  UNL     1      21.143   0.626  50.323  1.00  0.00     0.234 A 
HETATM    4  N3  UNL     1      21.771   1.560  49.588  1.00  0.00    -0.253 NA
HETATM    5  C5  UNL     1      22.856   2.164  50.094  1.00  0.00     0.131 A 
HETATM    6  C6  UNL     1      23.414   1.906  51.357  1.00  0.00     0.042 A 
ENDROOT
BRANCH   6   7
HETATM    7  C7  UNL     1      24.602   2.627  51.857  1.00  0.00     0.289 C 
BRANCH   7   8
HETATM    8  N4  UNL     1      24.530   3.081  53.209  1.00  0.00     0.091 NA
HETATM    9  H9  UNL     1      23.786   3.776  53.356  1.00  0.00     0.314 HD
HETATM   10  H10 UNL     1      24.556   2.392  53.950  1.00  0.00     0.314 HD
ENDBRANCH   7   8
BRANCH   7  11
HETATM   11  C8  UNL     1      25.220   3.558  50.899  1.00  0.00    -0.021 A 
HETATM   12  C9  UNL     1      24.877   4.852  50.575  1.00  0.00     0.012 A 
HETATM   13  C10 UNL     1      25.515   5.623  49.657  1.00  0.00     0.043 A 
HETATM   14  C11 UNL     1      26.593   5.136  48.963  1.00  0.00     0.116 A 
HETATM   15  F1  UNL     1      27.223   5.906  48.051  1.00  0.00    -0.206 F 
HETATM   16  C12 UNL     1      27.016   3.849  49.215  1.00  0.00     0.043 A 
HETATM   17  C13 UNL     1      26.329   3.116  50.158  1.00  0.00     0.012 A 
ENDBRANCH   7  11
ENDBRANCH   6   7
BRANCH   1  18
HETATM   18  N1  UNL     1      23.158   0.506  53.347  1.00  0.00    -0.366 N 
HETATM   19  H5  UNL     1      22.824   1.103  54.126  1.00  0.00     0.161 HD
BRANCH  18  20
HETATM   20  C2  UNL     1      23.958  -0.591  53.802  1.00  0.00     0.112 C 
HETATM   21  C1  UNL     1      23.420  -1.062  55.157  1.00  0.00     0.037 C 
BRANCH  20  22
HETATM   22  C14 UNL     1      25.398  -0.403  53.854  1.00  0.00    -0.036 A 
HETATM   23  C15 UNL     1      26.192   0.060  54.879  1.00  0.00     0.009 A 
HETATM   24  C16 UNL     1      27.555   0.206  54.855  1.00  0.00     0.001 A 
HETATM   25  C17 UNL     1      28.232  -0.133  53.712  1.00  0.00     0.000 A 
HETATM   26  C18 UNL     1      27.552  -0.609  52.621  1.00  0.00     0.001 A 
HETATM   27  C19 UNL     1      26.185  -0.720  52.738  1.00  0.00     0.009 A 
ENDBRANCH  20  22
ENDBRANCH  18  20
ENDBRANCH   1  18
TORSDOF 6
ENDMDL
MODEL 7
REMARK VINA RESULT:      -7.9      2.993      5.399
REMARK  6 active torsions:
REMARK  status: ('A' for Active; 'I' for Inactive)
REMARK    1  A    between atoms: C2_2  and  N1_3 
REMARK    2  A    between atoms: C2_2  and  C14_19 
REMARK    3  A    between atoms: N1_3  and  C3_4 
REMARK    4  A    between atoms: C6_9  and  C7_10 
REMARK    5  A    between atoms: C7_10  and  N4_11 
REMARK    6  A    between atoms: C7_10  and  C8_12 
ROOT
HETATM    1  C3  UNL     1      25.289   0.704  53.182  1.00  0.00     0.135 A 
HETATM    2  N2  UNL     1      25.652   0.029  54.274  1.00  0.00    -0.224 NA
HETATM    3  C4  UNL     1      26.730   0.252  55.028  1.00  0.00     0.234 A 
HETATM    4  N3  UNL     1      27.529   1.263  54.642  1.00  0.00    -0.253 NA
HETATM    5  C5  UNL     1      27.202   1.968  53.549  1.00  0.00     0.131 A 
HETATM    6  C6  UNL     1      26.072   1.745  52.746  1.00  0.00     0.042 A 
ENDROOT
BRANCH   6   7
HETATM    7  C7  UNL     1      25.787   2.552  51.542  1.00  0.00     0.289 C 
BRANCH   7   8
HETATM    8  N4  UNL     1      26.914   3.196  50.946  1.00  0.00     0.091 NA
HETATM    9  H9  UNL     1      26.926   3.107  49.921  1.00  0.00     0.314 HD
HETATM   10  H10 UNL     1      27.146   4.134  51.246  1.00  0.00     0.314 HD
ENDBRANCH   7   8
BRANCH   7  11
HETATM   11  C8  UNL     1      24.548   3.344  51.595  1.00  0.00    -0.021 A 
HETATM   12  C9  UNL     1      23.898   3.900  52.674  1.00  0.00     0.012 A 
HETATM   13  C10 UNL     1      22.741   4.607  52.611  1.00  0.00     0.043 A 
HETATM   14  C11 UNL     1      22.118   4.821  51.408  1.00  0.00     0.116 A 
HETATM   15  F1  UNL     1      20.967   5.525  51.350  1.00  0.00    -0.206 F 
HETATM   16  C12 UNL     1      22.690   4.305  50.265  1.00  0.00     0.043 A 
HETATM   17  C13 UNL     1      23.865   3.597  50.394  1.00  0.00     0.012 A 
ENDBRANCH   7  11
ENDBRANCH   6   7
BRANCH   1  18
HETATM   18  N1  UNL     1      24.080   0.338  52.539  1.00  0.00    -0.366 N 
HETATM   19  H5  UNL     1      24.204   0.035  51.556  1.00  0.00     0.161 HD
BRANCH  18  20
HETATM   20  C2  UNL     1      22.711   0.303  52.954  1.00  0.00     0.112 C 
HETATM   21  C1  UNL     1      22.357  -1.131  53.361  1.00  0.00     0.037 C 
BRANCH  20  22
HETATM   22  C14 UNL     1      21.714   0.843  52.046  1.00  0.00    -0.036 A 
HETATM   23  C15 UNL     1      21.615   0.736  50.677  1.00  0.00     0.009 A 
HETATM   24  C16 UNL     1      20.635   1.274  49.883  1.00  0.00     0.001 A 
HETATM   25  C17 UNL     1      19.634   1.999  50.476  1.00  0.00     0.000 A 
HETATM   26  C18 UNL     1      19.620   2.176  51.834  1.00  0.00     0.001 A 
HETATM   27  C19 UNL     1      20.646   1.600  52.549  1.00  0.00     0.009 A 
ENDBRANCH  20  22
ENDBRANCH  18  20
ENDBRANCH   1  18
TORSDOF 6
ENDMDL
MODEL 8
REMARK VINA RESULT:      -7.9      2.632      6.657
REMARK  6 active torsions:
REMARK  status: ('A' for Active; 'I' for Inactive)
REMARK    1  A    between atoms: C2_2  and  N1_3 
REMARK    2  A    between atoms: C2_2  and  C14_19 
REMARK    3  A    between atoms: N1_3  and  C3_4 
REMARK    4  A    between atoms: C6_9  and  C7_10 
REMARK    5  A    between atoms: C7_10  and  N4_11 
REMARK    6  A    between atoms: C7_10  and  C8_12 
ROOT
HETATM    1  C3  UNL     1      26.246   2.509  51.751  1.00  0.00     0.135 A 
HETATM    2  N2  UNL     1      27.539   2.459  52.073  1.00  0.00    -0.224 NA
HETATM    3  C4  UNL     1      28.055   2.089  53.246  1.00  0.00     0.234 A 
HETATM    4  N3  UNL     1      27.176   1.730  54.198  1.00  0.00    -0.253 NA
HETATM    5  C5  UNL     1      25.865   1.765  53.918  1.00  0.00     0.131 A 
HETATM    6  C6  UNL     1      25.307   2.152  52.688  1.00  0.00     0.042 A 
ENDROOT
BRANCH   6   7
HETATM    7  C7  UNL     1      23.848   2.185  52.458  1.00  0.00     0.289 C 
BRANCH   7   8
HETATM    8  N4  UNL     1      23.229   3.467  52.580  1.00  0.00     0.091 NA
HETATM    9  H9  UNL     1      22.546   3.507  53.348  1.00  0.00     0.314 HD
HETATM   10  H10 UNL     1      23.817   4.290  52.554  1.00  0.00     0.314 HD
ENDBRANCH   7   8
BRANCH   7  11
HETATM   11  C8  UNL     1      23.098   1.053  53.024  1.00  0.00    -0.021 A 
HETATM   12  C9  UNL     1      23.504  -0.237  53.283  1.00  0.00     0.012 A 
HETATM   13  C10 UNL     1      22.716  -1.216  53.799  1.00  0.00     0.043 A 
HETATM   14  C11 UNL     1      21.404  -0.967  54.108  1.00  0.00     0.116 A 
HETATM   15  F1  UNL     1      20.626  -1.943  54.621  1.00  0.00    -0.206 F 
HETATM   16  C12 UNL     1      20.900   0.297  53.887  1.00  0.00     0.043 A 
HETATM   17  C13 UNL     1      21.748   1.248  53.362  1.00  0.00     0.012 A 
ENDBRANCH   7  11
ENDBRANCH   6   7
BRANCH   1  18
HETATM   18  N1  UNL     1      25.898   2.892  50.432  1.00  0.00    -0.366 N 
HETATM   19  H5  UNL     1      26.004   2.133  49.733  1.00  0.00     0.161 HD
BRANCH  18  20
HETATM   20  C2  UNL     1      25.432   4.112  49.846  1.00  0.00     0.112 C 
HETATM   21  C1  UNL     1      24.244   3.797  48.932  1.00  0.00     0.037 C 
BRANCH  20  22
HETATM   22  C14 UNL     1      26.403   4.949  49.163  1.00  0.00    -0.036 A 
HETATM   23  C15 UNL     1      27.712   4.689  48.826  1.00  0.00     0.009 A 
HETATM   24  C16 UNL     1      28.572   5.533  48.171  1.00  0.00     0.001 A 
HETATM   25  C17 UNL     1      28.119   6.772  47.798  1.00  0.00     0.000 A 
HETATM   26  C18 UNL     1      26.831   7.150  48.077  1.00  0.00     0.001 A 
HETATM   27  C19 UNL     1      26.042   6.236  48.738  1.00  0.00     0.009 A 
ENDBRANCH  20  22
ENDBRANCH  18  20
ENDBRANCH   1  18
TORSDOF 6
ENDMDL
MODEL 9
REMARK VINA RESULT:      -7.9      6.517      8.896
REMARK  6 active torsions:
REMARK  status: ('A' for Active; 'I' for Inactive)
REMARK    1  A    between atoms: C2_2  and  N1_3 
REMARK    2  A    between atoms: C2_2  and  C14_19 
REMARK    3  A    between atoms: N1_3  and  C3_4 
REMARK    4  A    between atoms: C6_9  and  C7_10 
REMARK    5  A    between atoms: C7_10  and  N4_11 
REMARK    6  A    between atoms: C7_10  and  C8_12 
ROOT
HETATM    1  C3  UNL     1      30.167   7.925  48.621  1.00  0.00     0.135 A 
HETATM    2  N2  UNL     1      30.186   9.224  48.321  1.00  0.00    -0.224 NA
HETATM    3  C4  UNL     1      31.256   9.953  48.000  1.00  0.00     0.234 A 
HETATM    4  N3  UNL     1      32.434   9.305  47.976  1.00  0.00    -0.253 NA
HETATM    5  C5  UNL     1      32.462   7.997  48.271  1.00  0.00     0.131 A 
HETATM    6  C6  UNL     1      31.345   7.217  48.612  1.00  0.00     0.042 A 
ENDROOT
BRANCH   6   7
HETATM    7  C7  UNL     1      31.456   5.783  48.945  1.00  0.00     0.289 C 
BRANCH   7   8
HETATM    8  N4  UNL     1      31.367   5.458  50.333  1.00  0.00     0.091 NA
HETATM    9  H9  UNL     1      32.188   5.769  50.868  1.00  0.00     0.314 HD
HETATM   10  H10 UNL     1      30.502   5.658  50.819  1.00  0.00     0.314 HD
ENDBRANCH   7   8
BRANCH   7  11
HETATM   11  C8  UNL     1      32.462   5.035  48.175  1.00  0.00    -0.021 A 
HETATM   12  C9  UNL     1      33.797   4.820  48.436  1.00  0.00     0.012 A 
HETATM   13  C10 UNL     1      34.647   4.119  47.642  1.00  0.00     0.043 A 
HETATM   14  C11 UNL     1      34.205   3.555  46.473  1.00  0.00     0.116 A 
HETATM   15  F1  UNL     1      35.054   2.860  45.686  1.00  0.00    -0.206 F 
HETATM   16  C12 UNL     1      32.882   3.713  46.120  1.00  0.00     0.043 A 
HETATM   17  C13 UNL     1      32.069   4.434  46.967  1.00  0.00     0.012 A 
ENDBRANCH   7  11
ENDBRANCH   6   7
BRANCH   1  18
HETATM   18  N1  UNL     1      28.917   7.318  48.898  1.00  0.00    -0.366 N 
HETATM   19  H5  UNL     1      28.713   7.222  49.910  1.00  0.00     0.161 HD
BRANCH  18  20
HETATM   20  C2  UNL     1      27.866   6.799  48.077  1.00  0.00     0.112 C 
HETATM   21  C1  UNL     1      26.976   7.960  47.624  1.00  0.00     0.037 C 
BRANCH  20  22
HETATM   22  C14 UNL     1      27.065   5.711  48.610  1.00  0.00    -0.036 A 
HETATM   23  C15 UNL     1      27.429   4.426  48.944  1.00  0.00     0.009 A 
HETATM   24  C16 UNL     1      26.611   3.449  49.451  1.00  0.00     0.001 A 
HETATM   25  C17 UNL     1      25.289   3.743  49.660  1.00  0.00     0.000 A 
HETATM   26  C18 UNL     1      24.803   4.991  49.368  1.00  0.00     0.001 A 
HETATM   27  C19 UNL     1      25.699   5.906  48.862  1.00  0.00     0.009 A 
ENDBRANCH  20  22
ENDBRANCH  18  20
ENDBRANCH   1  18
TORSDOF 6
ENDMDL
