MODEL 1
REMARK VINA RESULT:      -7.9      0.000      0.000
REMARK  4 active torsions:
REMARK  status: ('A' for Active; 'I' for Inactive)
REMARK    1  A    between atoms: C7_8  and  C8_9 
REMARK    2  A    between atoms: C8_9  and  N2_10 
REMARK    3  A    between atoms: N2_10  and  C9_11 
REMARK    4  A    between atoms: C9_11  and  C11_13 
ROOT
HETATM    1  C8  UNL     1      25.192   2.737  51.725  1.00  0.00     0.325 C 
ENDROOT
BRANCH   1   2
HETATM    2  C7  UNL     1      23.954   2.077  51.147  1.00  0.00     0.043 C 
HETATM    3  N1  UNL     1      23.456   2.516  50.067  1.00  0.00    -0.292 NA
HETATM    4  C6  UNL     1      22.310   2.031  49.378  1.00  0.00     0.176 C 
HETATM    5  C5  UNL     1      21.454   1.157  50.174  1.00  0.00     0.003 C 
HETATM    6  C4  UNL     1      21.953   0.668  51.273  1.00  0.00    -0.050 C 
HETATM    7  C3  UNL     1      21.408  -0.221  52.303  1.00  0.00     0.010 C 
HETATM    8  C17 UNL     1      23.322   0.916  51.805  1.00  0.00     0.071 C 
HETATM    9  C2  UNL     1      21.997  -0.011  53.498  1.00  0.00    -0.082 C 
HETATM   10  C1  UNL     1      21.683  -0.743  54.767  1.00  0.00     0.043 C 
HETATM   11  C18 UNL     1      23.011   1.089  53.268  1.00  0.00     0.049 C 
ENDBRANCH   1   2
BRANCH   1  12
HETATM   12  N2  UNL     1      26.245   1.806  51.591  1.00  0.00     0.097 N 
HETATM   13  H10 UNL     1      26.799   2.070  50.741  1.00  0.00     0.317 HD
BRANCH  12  14
HETATM   14  C9  UNL     1      27.193   1.703  52.672  1.00  0.00     0.253 C 
HETATM   15  C10 UNL     1      26.543   2.077  53.990  1.00  0.00     0.048 C 
BRANCH  14  16
HETATM   16  C11 UNL     1      27.491   0.237  52.763  1.00  0.00     0.013 A 
HETATM   17  C12 UNL     1      26.603  -0.744  52.347  1.00  0.00     0.012 A 
HETATM   18  C13 UNL     1      26.893  -2.101  52.416  1.00  0.00     0.001 A 
HETATM   19  C14 UNL     1      28.124  -2.455  52.924  1.00  0.00     0.003 A 
HETATM   20  C15 UNL     1      29.039  -1.487  53.351  1.00  0.00     0.043 A 
HETATM   21  C16 UNL     1      28.719  -0.129  53.269  1.00  0.00     0.124 A 
HETATM   22  F1  UNL     1      29.638   0.750  53.700  1.00  0.00    -0.205 F 
ENDBRANCH  14  16
ENDBRANCH  12  14
ENDBRANCH   1  12
TORSDOF 4
ENDMDL
MODEL 2
REMARK VINA RESULT:      -7.9      1.866      3.333
REMARK  4 active torsions:
REMARK  status: ('A' for Active; 'I' for Inactive)
REMARK    1  A    between atoms: C7_8  and  C8_9 
REMARK    2  A    between atoms: C8_9  and  N2_10 
REMARK    3  A    between atoms: N2_10  and  C9_11 
REMARK    4  A    between atoms: C9_11  and  C11_13 
ROOT
HETATM    1  C8  UNL     1      23.610   1.451  51.856  1.00  0.00     0.325 C 
ENDROOT
BRANCH   1   2
HETATM    2  C7  UNL     1      22.893   0.579  52.869  1.00  0.00     0.043 C 
HETATM    3  N1  UNL     1      23.567  -0.140  53.667  1.00  0.00    -0.292 NA
HETATM    4  C6  UNL     1      23.076  -1.013  54.677  1.00  0.00     0.176 C 
HETATM    5  C5  UNL     1      21.660  -1.344  54.550  1.00  0.00     0.003 C 
HETATM    6  C4  UNL     1      20.939  -0.601  53.760  1.00  0.00    -0.050 C 
HETATM    7  C3  UNL     1      19.521  -0.629  53.390  1.00  0.00     0.010 C 
HETATM    8  C17 UNL     1      21.419   0.562  52.965  1.00  0.00     0.071 C 
HETATM    9  C2  UNL     1      19.320  -0.099  52.166  1.00  0.00    -0.082 C 
HETATM   10  C1  UNL     1      17.996   0.032  51.478  1.00  0.00     0.043 C 
HETATM   11  C18 UNL     1      20.688   0.320  51.671  1.00  0.00     0.049 C 
ENDBRANCH   1   2
BRANCH   1  12
HETATM   12  N2  UNL     1      24.886   1.728  52.392  1.00  0.00     0.097 N 
HETATM   13  H10 UNL     1      25.036   1.089  53.209  1.00  0.00     0.317 HD
BRANCH  12  14
HETATM   14  C9  UNL     1      26.029   1.556  51.532  1.00  0.00     0.253 C 
HETATM   15  C10 UNL     1      26.437   2.879  50.913  1.00  0.00     0.048 C 
BRANCH  14  16
HETATM   16  C11 UNL     1      27.140   1.180  52.464  1.00  0.00     0.013 A 
HETATM   17  C12 UNL     1      27.929   2.114  53.119  1.00  0.00     0.012 A 
HETATM   18  C13 UNL     1      28.945   1.758  53.997  1.00  0.00     0.001 A 
HETATM   19  C14 UNL     1      29.154   0.413  54.205  1.00  0.00     0.003 A 
HETATM   20  C15 UNL     1      28.373  -0.552  53.557  1.00  0.00     0.043 A 
HETATM   21  C16 UNL     1      27.357  -0.164  52.680  1.00  0.00     0.124 A 
HETATM   22  F1  UNL     1      26.648  -1.137  52.086  1.00  0.00    -0.205 F 
ENDBRANCH  14  16
ENDBRANCH  12  14
ENDBRANCH   1  12
TORSDOF 4
ENDMDL
MODEL 3
REMARK VINA RESULT:      -7.8      3.328      5.363
REMARK  4 active torsions:
REMARK  status: ('A' for Active; 'I' for Inactive)
REMARK    1  A    between atoms: C7_8  and  C8_9 
REMARK    2  A    between atoms: C8_9  and  N2_10 
REMARK    3  A    between atoms: N2_10  and  C9_11 
REMARK    4  A    between atoms: C9_11  and  C11_13 
ROOT
HETATM    1  C8  UNL     1      26.342   2.604  50.285  1.00  0.00     0.325 C 
ENDROOT
BRANCH   1   2
HETATM    2  C7  UNL     1      25.719   3.878  49.747  1.00  0.00     0.043 C 
HETATM    3  N1  UNL     1      24.468   3.930  49.547  1.00  0.00    -0.292 NA
HETATM    4  C6  UNL     1      23.711   5.028  49.054  1.00  0.00     0.176 C 
HETATM    5  C5  UNL     1      24.509   6.072  48.418  1.00  0.00     0.003 C 
HETATM    6  C4  UNL     1      25.793   6.060  48.633  1.00  0.00    -0.050 C 
HETATM    7  C3  UNL     1      26.886   6.923  48.176  1.00  0.00     0.010 C 
HETATM    8  C17 UNL     1      26.536   5.077  49.469  1.00  0.00     0.071 C 
HETATM    9  C2  UNL     1      28.058   6.257  48.137  1.00  0.00    -0.082 C 
HETATM   10  C1  UNL     1      29.376   6.832  47.718  1.00  0.00     0.043 C 
HETATM   11  C18 UNL     1      27.745   4.849  48.601  1.00  0.00     0.049 C 
ENDBRANCH   1   2
BRANCH   1  12
HETATM   12  N2  UNL     1      26.845   2.910  51.568  1.00  0.00     0.097 N 
HETATM   13  H10 UNL     1      26.663   3.926  51.750  1.00  0.00     0.317 HD
BRANCH  12  14
HETATM   14  C9  UNL     1      26.295   2.196  52.693  1.00  0.00     0.253 C 
HETATM   15  C10 UNL     1      25.040   1.446  52.289  1.00  0.00     0.048 C 
BRANCH  14  16
HETATM   16  C11 UNL     1      27.320   1.146  53.000  1.00  0.00     0.013 A 
HETATM   17  C12 UNL     1      27.125  -0.202  52.738  1.00  0.00     0.012 A 
HETATM   18  C13 UNL     1      28.087  -1.168  53.007  1.00  0.00     0.001 A 
HETATM   19  C14 UNL     1      29.274  -0.737  53.558  1.00  0.00     0.003 A 
HETATM   20  C15 UNL     1      29.497   0.617  53.833  1.00  0.00     0.043 A 
HETATM   21  C16 UNL     1      28.511   1.566  53.551  1.00  0.00     0.124 A 
HETATM   22  F1  UNL     1      28.785   2.848  53.843  1.00  0.00    -0.205 F 
ENDBRANCH  14  16
ENDBRANCH  12  14
ENDBRANCH   1  12
TORSDOF 4
ENDMDL
MODEL 4
REMARK VINA RESULT:      -7.6      2.429      5.403
REMARK  4 active torsions:
REMARK  status: ('A' for Active; 'I' for Inactive)
REMARK    1  A    between atoms: C7_8  and  C8_9 
REMARK    2  A    between atoms: C8_9  and  N2_10 
REMARK    3  A    between atoms: N2_10  and  C9_11 
REMARK    4  A    between atoms: C9_11  and  C11_13 
ROOT
HETATM    1  C8  UNL     1      26.521   2.539  51.168  1.00  0.00     0.325 C 
ENDROOT
BRANCH   1   2
HETATM    2  C7  UNL     1      26.933   1.827  52.443  1.00  0.00     0.043 C 
HETATM    3  N1  UNL     1      28.162   1.738  52.743  1.00  0.00    -0.292 NA
HETATM    4  C6  UNL     1      28.735   1.116  53.886  1.00  0.00     0.176 C 
HETATM    5  C5  UNL     1      27.830   0.220  54.601  1.00  0.00     0.003 C 
HETATM    6  C4  UNL     1      26.559   0.313  54.333  1.00  0.00    -0.050 C 
HETATM    7  C3  UNL     1      25.382  -0.401  54.836  1.00  0.00     0.010 C 
HETATM    8  C17 UNL     1      25.931   1.249  53.360  1.00  0.00     0.071 C 
HETATM    9  C2  UNL     1      24.389  -0.421  53.925  1.00  0.00    -0.082 C 
HETATM   10  C1  UNL     1      23.048  -1.062  54.107  1.00  0.00     0.043 C 
HETATM   11  C18 UNL     1      24.921   0.332  52.723  1.00  0.00     0.049 C 
ENDBRANCH   1   2
BRANCH   1  12
HETATM   12  N2  UNL     1      25.675   3.601  51.554  1.00  0.00     0.097 N 
HETATM   13  H10 UNL     1      26.274   4.445  51.716  1.00  0.00     0.317 HD
BRANCH  12  14
HETATM   14  C9  UNL     1      24.646   4.009  50.632  1.00  0.00     0.253 C 
HETATM   15  C10 UNL     1      25.057   3.707  49.203  1.00  0.00     0.048 C 
BRANCH  14  16
HETATM   16  C11 UNL     1      23.498   3.093  50.930  1.00  0.00     0.013 A 
HETATM   17  C12 UNL     1      23.084   2.090  50.066  1.00  0.00     0.012 A 
HETATM   18  C13 UNL     1      22.031   1.232  50.358  1.00  0.00     0.001 A 
HETATM   19  C14 UNL     1      21.391   1.410  51.565  1.00  0.00     0.003 A 
HETATM   20  C15 UNL     1      21.787   2.414  52.455  1.00  0.00     0.043 A 
HETATM   21  C16 UNL     1      22.850   3.263  52.135  1.00  0.00     0.124 A 
HETATM   22  F1  UNL     1      23.177   4.209  53.029  1.00  0.00    -0.205 F 
ENDBRANCH  14  16
ENDBRANCH  12  14
ENDBRANCH   1  12
TORSDOF 4
ENDMDL
MODEL 5
REMARK VINA RESULT:      -7.6      1.651      3.216
REMARK  4 active torsions:
REMARK  status: ('A' for Active; 'I' for Inactive)
REMARK    1  A    between atoms: C7_8  and  C8_9 
REMARK    2  A    between atoms: C8_9  and  N2_10 
REMARK    3  A    between atoms: N2_10  and  C9_11 
REMARK    4  A    between atoms: C9_11  and  C11_13 
ROOT
HETATM    1  C8  UNL     1      24.307   2.800  53.021  1.00  0.00     0.325 C 
ENDROOT
BRANCH   1   2
HETATM    2  C7  UNL     1      23.179   1.878  52.599  1.00  0.00     0.043 C 
HETATM    3  N1  UNL     1      22.848   0.909  53.346  1.00  0.00    -0.292 NA
HETATM    4  C6  UNL     1      21.824  -0.052  53.121  1.00  0.00     0.176 C 
HETATM    5  C5  UNL     1      21.339  -0.103  51.745  1.00  0.00     0.003 C 
HETATM    6  C4  UNL     1      21.639   0.896  50.965  1.00  0.00    -0.050 C 
HETATM    7  C3  UNL     1      21.337   1.186  49.561  1.00  0.00     0.010 C 
HETATM    8  C17 UNL     1      22.437   2.096  51.341  1.00  0.00     0.071 C 
HETATM    9  C2  UNL     1      22.278   1.978  49.007  1.00  0.00    -0.082 C 
HETATM   10  C1  UNL     1      22.284   2.470  47.593  1.00  0.00     0.043 C 
HETATM   11  C18 UNL     1      23.285   2.248  50.106  1.00  0.00     0.049 C 
ENDBRANCH   1   2
BRANCH   1  12
HETATM   12  N2  UNL     1      25.427   1.979  53.275  1.00  0.00     0.097 N 
HETATM   13  H10 UNL     1      25.102   1.160  53.843  1.00  0.00     0.317 HD
BRANCH  12  14
HETATM   14  C9  UNL     1      26.127   1.429  52.142  1.00  0.00     0.253 C 
HETATM   15  C10 UNL     1      26.670   2.536  51.259  1.00  0.00     0.048 C 
BRANCH  14  16
HETATM   16  C11 UNL     1      27.326   0.756  52.739  1.00  0.00     0.013 A 
HETATM   17  C12 UNL     1      28.336   1.448  53.391  1.00  0.00     0.012 A 
HETATM   18  C13 UNL     1      29.436   0.816  53.960  1.00  0.00     0.001 A 
HETATM   19  C14 UNL     1      29.496  -0.556  53.856  1.00  0.00     0.003 A 
HETATM   20  C15 UNL     1      28.490  -1.279  53.203  1.00  0.00     0.043 A 
HETATM   21  C16 UNL     1      27.396  -0.616  52.641  1.00  0.00     0.124 A 
HETATM   22  F1  UNL     1      26.469  -1.367  52.024  1.00  0.00    -0.205 F 
ENDBRANCH  14  16
ENDBRANCH  12  14
ENDBRANCH   1  12
TORSDOF 4
ENDMDL
MODEL 6
REMARK VINA RESULT:      -7.6      2.719      5.409
REMARK  4 active torsions:
REMARK  status: ('A' for Active; 'I' for Inactive)
REMARK    1  A    between atoms: C7_8  and  C8_9 
REMARK    2  A    between atoms: C8_9  and  N2_10 
REMARK    3  A    between atoms: N2_10  and  C9_11 
REMARK    4  A    between atoms: C9_11  and  C11_13 
ROOT
HETATM    1  C8  UNL     1      24.027   3.549  52.305  1.00  0.00     0.325 C 
ENDROOT
BRANCH   1   2
HETATM    2  C7  UNL     1      23.809   2.101  52.704  1.00  0.00     0.043 C 
HETATM    3  N1  UNL     1      22.629   1.657  52.834  1.00  0.00    -0.292 NA
HETATM    4  C6  UNL     1      22.229   0.341  53.196  1.00  0.00     0.176 C 
HETATM    5  C5  UNL     1      23.292  -0.469  53.785  1.00  0.00     0.003 C 
HETATM    6  C4  UNL     1      24.516  -0.051  53.638  1.00  0.00    -0.050 C 
HETATM    7  C3  UNL     1      25.808  -0.584  54.078  1.00  0.00     0.010 C 
HETATM    8  C17 UNL     1      24.945   1.184  52.924  1.00  0.00     0.071 C 
HETATM    9  C2  UNL     1      26.721   0.397  54.232  1.00  0.00    -0.082 C 
HETATM   10  C1  UNL     1      28.141   0.209  54.669  1.00  0.00     0.043 C 
HETATM   11  C18 UNL     1      26.006   1.682  53.870  1.00  0.00     0.049 C 
ENDBRANCH   1   2
BRANCH   1  12
HETATM   12  N2  UNL     1      23.428   3.714  51.037  1.00  0.00     0.097 N 
HETATM   13  H10 UNL     1      23.416   4.738  50.819  1.00  0.00     0.317 HD
BRANCH  12  14
HETATM   14  C9  UNL     1      24.052   3.070  49.910  1.00  0.00     0.253 C 
HETATM   15  C10 UNL     1      23.064   2.905  48.772  1.00  0.00     0.048 C 
BRANCH  14  16
HETATM   16  C11 UNL     1      25.066   4.065  49.432  1.00  0.00     0.013 A 
HETATM   17  C12 UNL     1      24.735   5.351  49.030  1.00  0.00     0.012 A 
HETATM   18  C13 UNL     1      25.682   6.274  48.606  1.00  0.00     0.001 A 
HETATM   19  C14 UNL     1      26.997   5.866  48.595  1.00  0.00     0.003 A 
HETATM   20  C15 UNL     1      27.360   4.575  48.995  1.00  0.00     0.043 A 
HETATM   21  C16 UNL     1      26.385   3.667  49.417  1.00  0.00     0.124 A 
HETATM   22  F1  UNL     1      26.798   2.442  49.783  1.00  0.00    -0.205 F 
ENDBRANCH  14  16
ENDBRANCH  12  14
ENDBRANCH   1  12
TORSDOF 4
ENDMDL
MODEL 7
REMARK VINA RESULT:      -7.6      1.986      2.700
REMARK  4 active torsions:
REMARK  status: ('A' for Active; 'I' for Inactive)
REMARK    1  A    between atoms: C7_8  and  C8_9 
REMARK    2  A    between atoms: C8_9  and  N2_10 
REMARK    3  A    between atoms: N2_10  and  C9_11 
REMARK    4  A    between atoms: C9_11  and  C11_13 
ROOT
HETATM    1  C8  UNL     1      24.044  -0.328  53.520  1.00  0.00     0.325 C 
ENDROOT
BRANCH   1   2
HETATM    2  C7  UNL     1      22.886   0.506  53.005  1.00  0.00     0.043 C 
HETATM    3  N1  UNL     1      23.045   1.750  52.814  1.00  0.00    -0.292 NA
HETATM    4  C6  UNL     1      22.086   2.686  52.339  1.00  0.00     0.176 C 
HETATM    5  C5  UNL     1      20.706   2.212  52.390  1.00  0.00     0.003 C 
HETATM    6  C4  UNL     1      20.516   0.935  52.553  1.00  0.00    -0.050 C 
HETATM    7  C3  UNL     1      19.306   0.114  52.652  1.00  0.00     0.010 C 
HETATM    8  C17 UNL     1      21.576  -0.101  52.696  1.00  0.00     0.071 C 
HETATM    9  C2  UNL     1      19.524  -1.004  53.374  1.00  0.00    -0.082 C 
HETATM   10  C1  UNL     1      18.509  -2.063  53.673  1.00  0.00     0.043 C 
HETATM   11  C18 UNL     1      20.979  -0.943  53.793  1.00  0.00     0.049 C 
ENDBRANCH   1   2
BRANCH   1  12
HETATM   12  N2  UNL     1      25.204   0.465  53.387  1.00  0.00     0.097 N 
HETATM   13  H10 UNL     1      25.829   0.257  54.202  1.00  0.00     0.317 HD
BRANCH  12  14
HETATM   14  C9  UNL     1      26.011   0.283  52.207  1.00  0.00     0.253 C 
HETATM   15  C10 UNL     1      26.276   1.614  51.530  1.00  0.00     0.048 C 
BRANCH  14  16
HETATM   16  C11 UNL     1      27.335  -0.181  52.732  1.00  0.00     0.013 A 
HETATM   17  C12 UNL     1      28.286   0.681  53.259  1.00  0.00     0.012 A 
HETATM   18  C13 UNL     1      29.504   0.241  53.763  1.00  0.00     0.001 A 
HETATM   19  C14 UNL     1      29.749  -1.114  53.723  1.00  0.00     0.003 A 
HETATM   20  C15 UNL     1      28.808  -2.006  53.197  1.00  0.00     0.043 A 
HETATM   21  C16 UNL     1      27.591  -1.535  52.697  1.00  0.00     0.124 A 
HETATM   22  F1  UNL     1      26.733  -2.442  52.201  1.00  0.00    -0.205 F 
ENDBRANCH  14  16
ENDBRANCH  12  14
ENDBRANCH   1  12
TORSDOF 4
ENDMDL
MODEL 8
REMARK VINA RESULT:      -7.2      3.345      5.663
REMARK  4 active torsions:
REMARK  status: ('A' for Active; 'I' for Inactive)
REMARK    1  A    between atoms: C7_8  and  C8_9 
REMARK    2  A    between atoms: C8_9  and  N2_10 
REMARK    3  A    between atoms: N2_10  and  C9_11 
REMARK    4  A    between atoms: C9_11  and  C11_13 
ROOT
HETATM    1  C8  UNL     1      24.688   3.156  51.607  1.00  0.00     0.325 C 
ENDROOT
BRANCH   1   2
HETATM    2  C7  UNL     1      25.156   1.846  52.211  1.00  0.00     0.043 C 
HETATM    3  N1  UNL     1      26.259   1.344  51.840  1.00  0.00    -0.292 NA
HETATM    4  C6  UNL     1      26.860   0.135  52.291  1.00  0.00     0.176 C 
HETATM    5  C5  UNL     1      25.951  -0.757  53.005  1.00  0.00     0.003 C 
HETATM    6  C4  UNL     1      24.825  -0.257  53.424  1.00  0.00    -0.050 C 
HETATM    7  C3  UNL     1      23.693  -0.832  54.156  1.00  0.00     0.010 C 
HETATM    8  C17 UNL     1      24.365   1.148  53.243  1.00  0.00     0.071 C 
HETATM    9  C2  UNL     1      22.545  -0.181  53.881  1.00  0.00    -0.082 C 
HETATM   10  C1  UNL     1      21.199  -0.502  54.455  1.00  0.00     0.043 C 
HETATM   11  C18 UNL     1      22.917   0.911  52.900  1.00  0.00     0.049 C 
ENDBRANCH   1   2
BRANCH   1  12
HETATM   12  N2  UNL     1      25.810   3.735  50.976  1.00  0.00     0.097 N 
HETATM   13  H10 UNL     1      26.641   3.130  51.182  1.00  0.00     0.317 HD
BRANCH  12  14
HETATM   14  C9  UNL     1      25.771   3.890  49.544  1.00  0.00     0.253 C 
HETATM   15  C10 UNL     1      24.338   3.932  49.049  1.00  0.00     0.048 C 
BRANCH  14  16
HETATM   16  C11 UNL     1      26.328   5.260  49.305  1.00  0.00     0.013 A 
HETATM   17  C12 UNL     1      25.709   6.418  49.754  1.00  0.00     0.012 A 
HETATM   18  C13 UNL     1      26.241   7.685  49.546  1.00  0.00     0.001 A 
HETATM   19  C14 UNL     1      27.434   7.762  48.861  1.00  0.00     0.003 A 
HETATM   20  C15 UNL     1      28.079   6.610  48.397  1.00  0.00     0.043 A 
HETATM   21  C16 UNL     1      27.521   5.349  48.621  1.00  0.00     0.124 A 
HETATM   22  F1  UNL     1      28.187   4.284  48.145  1.00  0.00    -0.205 F 
ENDBRANCH  14  16
ENDBRANCH  12  14
ENDBRANCH   1  12
TORSDOF 4
ENDMDL
MODEL 9
REMARK VINA RESULT:      -7.2      1.415      2.114
REMARK  4 active torsions:
REMARK  status: ('A' for Active; 'I' for Inactive)
REMARK    1  A    between atoms: C7_8  and  C8_9 
REMARK    2  A    between atoms: C8_9  and  N2_10 
REMARK    3  A    between atoms: N2_10  and  C9_11 
REMARK    4  A    between atoms: C9_11  and  C11_13 
ROOT
HETATM    1  C8  UNL     1      24.262   3.025  53.131  1.00  0.00     0.325 C 
ENDROOT
BRANCH   1   2
HETATM    2  C7  UNL     1      23.355   2.358  52.115  1.00  0.00     0.043 C 
HETATM    3  N1  UNL     1      23.012   2.988  51.070  1.00  0.00    -0.292 NA
HETATM    4  C6  UNL     1      22.177   2.532  50.013  1.00  0.00     0.176 C 
HETATM    5  C5  UNL     1      21.389   1.347  50.339  1.00  0.00     0.003 C 
HETATM    6  C4  UNL     1      21.739   0.663  51.390  1.00  0.00    -0.050 C 
HETATM    7  C3  UNL     1      21.201  -0.549  52.012  1.00  0.00     0.010 C 
HETATM    8  C17 UNL     1      22.873   0.974  52.303  1.00  0.00     0.071 C 
HETATM    9  C2  UNL     1      21.461  -0.583  53.335  1.00  0.00    -0.082 C 
HETATM   10  C1  UNL     1      21.057  -1.675  54.277  1.00  0.00     0.043 C 
HETATM   11  C18 UNL     1      22.229   0.688  53.634  1.00  0.00     0.049 C 
ENDBRANCH   1   2
BRANCH   1  12
HETATM   12  N2  UNL     1      25.535   3.129  52.529  1.00  0.00     0.097 N 
HETATM   13  H10 UNL     1      26.240   3.271  53.291  1.00  0.00     0.317 HD
BRANCH  12  14
HETATM   14  C9  UNL     1      26.005   2.010  51.752  1.00  0.00     0.253 C 
HETATM   15  C10 UNL     1      26.609   2.483  50.444  1.00  0.00     0.048 C 
BRANCH  14  16
HETATM   16  C11 UNL     1      27.143   1.456  52.553  1.00  0.00     0.013 A 
HETATM   17  C12 UNL     1      28.024   2.253  53.269  1.00  0.00     0.012 A 
HETATM   18  C13 UNL     1      29.067   1.731  54.026  1.00  0.00     0.001 A 
HETATM   19  C14 UNL     1      29.205   0.361  54.046  1.00  0.00     0.003 A 
HETATM   20  C15 UNL     1      28.330  -0.467  53.333  1.00  0.00     0.043 A 
HETATM   21  C16 UNL     1      27.291   0.086  52.580  1.00  0.00     0.124 A 
HETATM   22  F1  UNL     1      26.490  -0.762  51.914  1.00  0.00    -0.205 F 
ENDBRANCH  14  16
ENDBRANCH  12  14
ENDBRANCH   1  12
TORSDOF 4
ENDMDL
