MODEL 1
REMARK VINA RESULT:      -8.5      0.000      0.000
REMARK  5 active torsions:
REMARK  status: ('A' for Active; 'I' for Inactive)
REMARK    1  A    between atoms: O1_2  and  C2_3 
REMARK    2  A    between atoms: C2_3  and  C3_5 
REMARK    3  A    between atoms: C3_5  and  C4_6 
REMARK    4  A    between atoms: C5_7  and  S1_8 
REMARK    5  A    between atoms: S1_8  and  C6_9 
ROOT
HETATM    1  C4  UNL     1      23.049   0.828  51.951  1.00  0.00    -0.002 A 
HETATM    2  C5  UNL     1      24.133   1.655  52.071  1.00  0.00     0.084 A 
HETATM    3  N1  UNL     1      24.154   2.509  51.029  1.00  0.00    -0.344 N 
HETATM    4  C14 UNL     1      25.164   3.535  50.820  1.00  0.00     0.157 C 
HETATM    5  C15 UNL     1      23.122   2.299  50.193  1.00  0.00     0.045 A 
HETATM    6  C16 UNL     1      22.724   2.895  49.030  1.00  0.00     0.030 A 
HETATM    7  C17 UNL     1      21.580   2.392  48.446  1.00  0.00     0.002 A 
HETATM    8  C18 UNL     1      20.828   1.348  48.949  1.00  0.00     0.001 A 
HETATM    9  C19 UNL     1      21.280   0.788  50.126  1.00  0.00     0.014 A 
HETATM   10  C20 UNL     1      22.425   1.241  50.774  1.00  0.00     0.000 A 
ENDROOT
BRANCH   2  11
HETATM   11  S1  UNL     1      25.311   1.625  53.378  1.00  0.00    -0.072 SA
BRANCH  11  12
HETATM   12  C6  UNL     1      26.624   0.455  53.154  1.00  0.00     0.007 C 
HETATM   13  C7  UNL     1      26.231  -0.784  52.852  1.00  0.00     0.019 C 
HETATM   14  C8  UNL     1      26.958  -2.034  52.589  1.00  0.00     0.001 C 
HETATM   15  C9  UNL     1      28.190  -2.476  52.801  1.00  0.00     0.000 C 
HETATM   16  C10 UNL     1      29.422  -1.940  53.395  1.00  0.00     0.000 C 
HETATM   17  C11 UNL     1      29.813  -0.713  53.689  1.00  0.00     0.000 C 
HETATM   18  C12 UNL     1      29.204   0.628  53.557  1.00  0.00     0.001 C 
HETATM   19  C13 UNL     1      27.962   1.040  53.349  1.00  0.00     0.019 C 
ENDBRANCH  11  12
ENDBRANCH   2  11
BRANCH   1  20
HETATM   20  C3  UNL     1      22.541  -0.280  52.785  1.00  0.00     0.153 C 
BRANCH  20  21
HETATM   21  C2  UNL     1      21.538   0.251  53.737  1.00  0.00     0.262 C 
HETATM   22  O2  UNL     1      20.580   0.992  54.064  1.00  0.00    -0.265 OA
BRANCH  21  23
HETATM   23  O1  UNL     1      21.662  -0.357  54.977  1.00  0.00    -0.326 OA
HETATM   24  C1  UNL     1      22.741  -1.245  55.193  1.00  0.00     0.213 C 
ENDBRANCH  21  23
ENDBRANCH  20  21
ENDBRANCH   1  20
TORSDOF 5
ENDMDL
MODEL 2
REMARK VINA RESULT:      -8.3      2.394      3.861
REMARK  5 active torsions:
REMARK  status: ('A' for Active; 'I' for Inactive)
REMARK    1  A    between atoms: O1_2  and  C2_3 
REMARK    2  A    between atoms: C2_3  and  C3_5 
REMARK    3  A    between atoms: C3_5  and  C4_6 
REMARK    4  A    between atoms: C5_7  and  S1_8 
REMARK    5  A    between atoms: S1_8  and  C6_9 
ROOT
HETATM    1  C4  UNL     1      24.382   2.515  50.625  1.00  0.00    -0.002 A 
HETATM    2  C5  UNL     1      24.313   1.895  51.842  1.00  0.00     0.084 A 
HETATM    3  N1  UNL     1      23.145   1.227  51.932  1.00  0.00    -0.344 N 
HETATM    4  C14 UNL     1      22.724   0.450  53.087  1.00  0.00     0.157 C 
HETATM    5  C15 UNL     1      22.407   1.366  50.817  1.00  0.00     0.045 A 
HETATM    6  C16 UNL     1      21.183   0.889  50.441  1.00  0.00     0.030 A 
HETATM    7  C17 UNL     1      20.745   1.254  49.185  1.00  0.00     0.002 A 
HETATM    8  C18 UNL     1      21.448   2.052  48.303  1.00  0.00     0.001 A 
HETATM    9  C19 UNL     1      22.676   2.501  48.740  1.00  0.00     0.014 A 
HETATM   10  C20 UNL     1      23.186   2.176  49.993  1.00  0.00     0.000 A 
ENDROOT
BRANCH   2  11
HETATM   11  S1  UNL     1      25.548   1.945  53.095  1.00  0.00    -0.072 SA
BRANCH  11  12
HETATM   12  C6  UNL     1      26.768   0.663  52.972  1.00  0.00     0.007 C 
HETATM   13  C7  UNL     1      26.288  -0.545  52.670  1.00  0.00     0.019 C 
HETATM   14  C8  UNL     1      26.920  -1.858  52.473  1.00  0.00     0.001 C 
HETATM   15  C9  UNL     1      28.095  -2.396  52.767  1.00  0.00     0.000 C 
HETATM   16  C10 UNL     1      29.332  -1.952  53.424  1.00  0.00     0.000 C 
HETATM   17  C11 UNL     1      29.808  -0.756  53.719  1.00  0.00     0.000 C 
HETATM   18  C12 UNL     1      29.325   0.629  53.525  1.00  0.00     0.001 C 
HETATM   19  C13 UNL     1      28.137   1.138  53.236  1.00  0.00     0.019 C 
ENDBRANCH  11  12
ENDBRANCH   2  11
BRANCH   1  20
HETATM   20  C3  UNL     1      25.409   3.371  49.997  1.00  0.00     0.153 C 
BRANCH  20  21
HETATM   21  C2  UNL     1      25.091   4.791  50.276  1.00  0.00     0.262 C 
HETATM   22  O2  UNL     1      24.389   5.713  50.759  1.00  0.00    -0.265 OA
BRANCH  21  23
HETATM   23  O1  UNL     1      26.058   5.629  49.741  1.00  0.00    -0.326 OA
HETATM   24  C1  UNL     1      26.984   5.094  48.817  1.00  0.00     0.213 C 
ENDBRANCH  21  23
ENDBRANCH  20  21
ENDBRANCH   1  20
TORSDOF 5
ENDMDL
MODEL 3
REMARK VINA RESULT:      -7.7      2.522      6.523
REMARK  5 active torsions:
REMARK  status: ('A' for Active; 'I' for Inactive)
REMARK    1  A    between atoms: O1_2  and  C2_3 
REMARK    2  A    between atoms: C2_3  and  C3_5 
REMARK    3  A    between atoms: C3_5  and  C4_6 
REMARK    4  A    between atoms: C5_7  and  S1_8 
REMARK    5  A    between atoms: S1_8  and  C6_9 
ROOT
HETATM    1  C4  UNL     1      23.924   1.232  52.568  1.00  0.00    -0.002 A 
HETATM    2  C5  UNL     1      23.252   2.365  52.198  1.00  0.00     0.084 A 
HETATM    3  N1  UNL     1      21.947   2.225  52.506  1.00  0.00    -0.344 N 
HETATM    4  C14 UNL     1      20.926   3.230  52.258  1.00  0.00     0.157 C 
HETATM    5  C15 UNL     1      21.697   1.033  53.077  1.00  0.00     0.045 A 
HETATM    6  C16 UNL     1      20.559   0.444  53.551  1.00  0.00     0.030 A 
HETATM    7  C17 UNL     1      20.702  -0.821  54.082  1.00  0.00     0.002 A 
HETATM    8  C18 UNL     1      21.893  -1.516  54.161  1.00  0.00     0.001 A 
HETATM    9  C19 UNL     1      23.006  -0.869  53.666  1.00  0.00     0.014 A 
HETATM   10  C20 UNL     1      22.942   0.408  53.116  1.00  0.00     0.000 A 
ENDROOT
BRANCH   2  11
HETATM   11  S1  UNL     1      23.966   3.788  51.449  1.00  0.00    -0.072 SA
BRANCH  11  12
HETATM   12  C6  UNL     1      23.504   4.035  49.755  1.00  0.00     0.007 C 
HETATM   13  C7  UNL     1      23.518   5.305  49.346  1.00  0.00     0.019 C 
HETATM   14  C8  UNL     1      23.215   5.951  48.060  1.00  0.00     0.001 C 
HETATM   15  C9  UNL     1      22.584   5.598  46.949  1.00  0.00     0.000 C 
HETATM   16  C10 UNL     1      21.886   4.402  46.458  1.00  0.00     0.000 C 
HETATM   17  C11 UNL     1      21.876   3.144  46.861  1.00  0.00     0.000 C 
HETATM   18  C12 UNL     1      22.542   2.400  47.952  1.00  0.00     0.001 C 
HETATM   19  C13 UNL     1      23.163   2.782  49.058  1.00  0.00     0.019 C 
ENDBRANCH  11  12
ENDBRANCH   2  11
BRANCH   1  20
HETATM   20  C3  UNL     1      25.344   0.835  52.468  1.00  0.00     0.153 C 
BRANCH  20  21
HETATM   21  C2  UNL     1      26.086   1.406  53.616  1.00  0.00     0.262 C 
HETATM   22  O2  UNL     1      26.600   2.347  54.267  1.00  0.00    -0.265 OA
BRANCH  21  23
HETATM   23  O1  UNL     1      26.450   0.412  54.514  1.00  0.00    -0.326 OA
HETATM   24  C1  UNL     1      27.824   0.156  54.721  1.00  0.00     0.213 C 
ENDBRANCH  21  23
ENDBRANCH  20  21
ENDBRANCH   1  20
TORSDOF 5
ENDMDL
MODEL 4
REMARK VINA RESULT:      -7.6      2.776      6.009
REMARK  5 active torsions:
REMARK  status: ('A' for Active; 'I' for Inactive)
REMARK    1  A    between atoms: O1_2  and  C2_3 
REMARK    2  A    between atoms: C2_3  and  C3_5 
REMARK    3  A    between atoms: C3_5  and  C4_6 
REMARK    4  A    between atoms: C5_7  and  S1_8 
REMARK    5  A    between atoms: S1_8  and  C6_9 
ROOT
HETATM    1  C4  UNL     1      23.315   0.979  51.990  1.00  0.00    -0.002 A 
HETATM    2  C5  UNL     1      22.400   1.344  51.042  1.00  0.00     0.084 A 
HETATM    3  N1  UNL     1      21.209   0.785  51.338  1.00  0.00    -0.344 N 
HETATM    4  C14 UNL     1      19.998   0.952  50.550  1.00  0.00     0.157 C 
HETATM    5  C15 UNL     1      21.273   0.047  52.460  1.00  0.00     0.045 A 
HETATM    6  C16 UNL     1      20.352  -0.693  53.146  1.00  0.00     0.030 A 
HETATM    7  C17 UNL     1      20.803  -1.325  54.286  1.00  0.00     0.002 A 
HETATM    8  C18 UNL     1      22.096  -1.261  54.767  1.00  0.00     0.001 A 
HETATM    9  C19 UNL     1      22.979  -0.498  54.032  1.00  0.00     0.014 A 
HETATM   10  C20 UNL     1      22.599   0.169  52.871  1.00  0.00     0.000 A 
ENDROOT
BRANCH   2  11
HETATM   11  S1  UNL     1      22.711   2.385  49.657  1.00  0.00    -0.072 SA
BRANCH  11  12
HETATM   12  C6  UNL     1      23.648   3.844  50.033  1.00  0.00     0.007 C 
HETATM   13  C7  UNL     1      23.006   4.752  50.771  1.00  0.00     0.019 C 
HETATM   14  C8  UNL     1      23.388   6.068  51.301  1.00  0.00     0.001 C 
HETATM   15  C9  UNL     1      24.347   6.948  51.051  1.00  0.00     0.000 C 
HETATM   16  C10 UNL     1      25.490   7.040  50.133  1.00  0.00     0.000 C 
HETATM   17  C11 UNL     1      26.128   6.139  49.406  1.00  0.00     0.000 C 
HETATM   18  C12 UNL     1      25.982   4.682  49.198  1.00  0.00     0.001 C 
HETATM   19  C13 UNL     1      25.003   3.827  49.456  1.00  0.00     0.019 C 
ENDBRANCH  11  12
ENDBRANCH   2  11
BRANCH   1  20
HETATM   20  C3  UNL     1      24.749   1.287  52.166  1.00  0.00     0.153 C 
BRANCH  20  21
HETATM   21  C2  UNL     1      24.888   2.418  53.112  1.00  0.00     0.262 C 
HETATM   22  O2  UNL     1      24.530   3.505  53.625  1.00  0.00    -0.265 OA
BRANCH  21  23
HETATM   23  O1  UNL     1      26.016   2.264  53.905  1.00  0.00    -0.326 OA
HETATM   24  C1  UNL     1      27.192   1.746  53.318  1.00  0.00     0.213 C 
ENDBRANCH  21  23
ENDBRANCH  20  21
ENDBRANCH   1  20
TORSDOF 5
ENDMDL
MODEL 5
REMARK VINA RESULT:      -7.3      1.976      6.423
REMARK  5 active torsions:
REMARK  status: ('A' for Active; 'I' for Inactive)
REMARK    1  A    between atoms: O1_2  and  C2_3 
REMARK    2  A    between atoms: C2_3  and  C3_5 
REMARK    3  A    between atoms: C3_5  and  C4_6 
REMARK    4  A    between atoms: C5_7  and  S1_8 
REMARK    5  A    between atoms: S1_8  and  C6_9 
ROOT
HETATM    1  C4  UNL     1      23.357   0.280  53.082  1.00  0.00    -0.002 A 
HETATM    2  C5  UNL     1      22.970   1.553  52.765  1.00  0.00     0.084 A 
HETATM    3  N1  UNL     1      24.022   2.384  52.907  1.00  0.00    -0.344 N 
HETATM    4  C14 UNL     1      23.985   3.816  52.657  1.00  0.00     0.157 C 
HETATM    5  C15 UNL     1      25.122   1.726  53.312  1.00  0.00     0.045 A 
HETATM    6  C16 UNL     1      26.401   2.123  53.586  1.00  0.00     0.030 A 
HETATM    7  C17 UNL     1      27.275   1.133  53.984  1.00  0.00     0.002 A 
HETATM    8  C18 UNL     1      26.949  -0.203  54.121  1.00  0.00     0.001 A 
HETATM    9  C19 UNL     1      25.644  -0.541  53.829  1.00  0.00     0.014 A 
HETATM   10  C20 UNL     1      24.704   0.401  53.422  1.00  0.00     0.000 A 
ENDROOT
BRANCH   2  11
HETATM   11  S1  UNL     1      21.361   2.040  52.242  1.00  0.00    -0.072 SA
BRANCH  11  12
HETATM   12  C6  UNL     1      21.258   2.518  50.537  1.00  0.00     0.007 C 
HETATM   13  C7  UNL     1      22.060   1.843  49.713  1.00  0.00     0.019 C 
HETATM   14  C8  UNL     1      22.296   1.906  48.263  1.00  0.00     0.001 C 
HETATM   15  C9  UNL     1      22.036   2.778  47.299  1.00  0.00     0.000 C 
HETATM   16  C10 UNL     1      21.391   4.094  47.203  1.00  0.00     0.000 C 
HETATM   17  C11 UNL     1      20.593   4.761  48.018  1.00  0.00     0.000 C 
HETATM   18  C12 UNL     1      20.010   4.488  49.350  1.00  0.00     0.001 C 
HETATM   19  C13 UNL     1      20.296   3.608  50.298  1.00  0.00     0.019 C 
ENDBRANCH  11  12
ENDBRANCH   2  11
BRANCH   1  20
HETATM   20  C3  UNL     1      22.633  -1.007  53.109  1.00  0.00     0.153 C 
BRANCH  20  21
HETATM   21  C2  UNL     1      22.362  -1.379  54.517  1.00  0.00     0.262 C 
HETATM   22  O2  UNL     1      22.683  -1.544  55.719  1.00  0.00    -0.265 OA
BRANCH  21  23
HETATM   23  O1  UNL     1      21.042  -1.774  54.679  1.00  0.00    -0.326 OA
HETATM   24  C1  UNL     1      20.046  -1.155  53.890  1.00  0.00     0.213 C 
ENDBRANCH  21  23
ENDBRANCH  20  21
ENDBRANCH   1  20
TORSDOF 5
ENDMDL
MODEL 6
REMARK VINA RESULT:      -7.2      3.068      7.431
REMARK  5 active torsions:
REMARK  status: ('A' for Active; 'I' for Inactive)
REMARK    1  A    between atoms: O1_2  and  C2_3 
REMARK    2  A    between atoms: C2_3  and  C3_5 
REMARK    3  A    between atoms: C3_5  and  C4_6 
REMARK    4  A    between atoms: C5_7  and  S1_8 
REMARK    5  A    between atoms: S1_8  and  C6_9 
ROOT
HETATM    1  C4  UNL     1      23.029   1.339  52.677  1.00  0.00    -0.002 A 
HETATM    2  C5  UNL     1      22.366   0.518  53.548  1.00  0.00     0.084 A 
HETATM    3  N1  UNL     1      23.198  -0.461  53.954  1.00  0.00    -0.344 N 
HETATM    4  C14 UNL     1      22.838  -1.520  54.883  1.00  0.00     0.157 C 
HETATM    5  C15 UNL     1      24.414  -0.344  53.392  1.00  0.00     0.045 A 
HETATM    6  C16 UNL     1      25.564  -1.076  53.489  1.00  0.00     0.030 A 
HETATM    7  C17 UNL     1      26.635  -0.632  52.743  1.00  0.00     0.002 A 
HETATM    8  C18 UNL     1      26.621   0.478  51.920  1.00  0.00     0.001 A 
HETATM    9  C19 UNL     1      25.432   1.175  51.864  1.00  0.00     0.014 A 
HETATM   10  C20 UNL     1      24.308   0.790  52.588  1.00  0.00     0.000 A 
ENDROOT
BRANCH   2  11
HETATM   11  S1  UNL     1      20.696   0.707  54.072  1.00  0.00    -0.072 SA
BRANCH  11  12
HETATM   12  C6  UNL     1      19.493   0.113  52.912  1.00  0.00     0.007 C 
HETATM   13  C7  UNL     1      19.463   0.763  51.747  1.00  0.00     0.019 C 
HETATM   14  C8  UNL     1      18.649   0.614  50.533  1.00  0.00     0.001 C 
HETATM   15  C9  UNL     1      17.513   0.005  50.223  1.00  0.00     0.000 C 
HETATM   16  C10 UNL     1      16.519  -0.812  50.932  1.00  0.00     0.000 C 
HETATM   17  C11 UNL     1      16.550  -1.459  52.084  1.00  0.00     0.000 C 
HETATM   18  C12 UNL     1      17.568  -1.645  53.141  1.00  0.00     0.001 C 
HETATM   19  C13 UNL     1      18.697  -1.014  53.429  1.00  0.00     0.019 C 
ENDBRANCH  11  12
ENDBRANCH   2  11
BRANCH   1  20
HETATM   20  C3  UNL     1      22.618   2.545  51.931  1.00  0.00     0.153 C 
BRANCH  20  21
HETATM   21  C2  UNL     1      22.406   2.186  50.510  1.00  0.00     0.262 C 
HETATM   22  O2  UNL     1      22.221   1.375  49.570  1.00  0.00    -0.265 OA
BRANCH  21  23
HETATM   23  O1  UNL     1      22.390   3.319  49.710  1.00  0.00    -0.326 OA
HETATM   24  C1  UNL     1      23.528   3.611  48.924  1.00  0.00     0.213 C 
ENDBRANCH  21  23
ENDBRANCH  20  21
ENDBRANCH   1  20
TORSDOF 5
ENDMDL
MODEL 7
REMARK VINA RESULT:      -7.1      1.475      2.491
REMARK  5 active torsions:
REMARK  status: ('A' for Active; 'I' for Inactive)
REMARK    1  A    between atoms: O1_2  and  C2_3 
REMARK    2  A    between atoms: C2_3  and  C3_5 
REMARK    3  A    between atoms: C3_5  and  C4_6 
REMARK    4  A    between atoms: C5_7  and  S1_8 
REMARK    5  A    between atoms: S1_8  and  C6_9 
ROOT
HETATM    1  C4  UNL     1      22.799   2.125  50.768  1.00  0.00    -0.002 A 
HETATM    2  C5  UNL     1      23.549   3.086  51.388  1.00  0.00     0.084 A 
HETATM    3  N1  UNL     1      23.735   4.117  50.539  1.00  0.00    -0.344 N 
HETATM    4  C14 UNL     1      24.486   5.322  50.853  1.00  0.00     0.157 C 
HETATM    5  C15 UNL     1      23.139   3.898  49.354  1.00  0.00     0.045 A 
HETATM    6  C16 UNL     1      23.047   4.630  48.204  1.00  0.00     0.030 A 
HETATM    7  C17 UNL     1      22.330   4.060  47.172  1.00  0.00     0.002 A 
HETATM    8  C18 UNL     1      21.714   2.825  47.225  1.00  0.00     0.001 A 
HETATM    9  C19 UNL     1      21.842   2.135  48.412  1.00  0.00     0.014 A 
HETATM   10  C20 UNL     1      22.549   2.644  49.497  1.00  0.00     0.000 A 
ENDROOT
BRANCH   2  11
HETATM   11  S1  UNL     1      24.167   3.008  53.033  1.00  0.00    -0.072 SA
BRANCH  11  12
HETATM   12  C6  UNL     1      25.476   1.836  53.269  1.00  0.00     0.007 C 
HETATM   13  C7  UNL     1      26.694   2.367  53.391  1.00  0.00     0.019 C 
HETATM   14  C8  UNL     1      28.029   1.787  53.594  1.00  0.00     0.001 C 
HETATM   15  C9  UNL     1      28.566   0.581  53.470  1.00  0.00     0.000 C 
HETATM   16  C10 UNL     1      28.099  -0.754  53.074  1.00  0.00     0.000 C 
HETATM   17  C11 UNL     1      26.893  -1.281  52.958  1.00  0.00     0.000 C 
HETATM   18  C12 UNL     1      25.518  -0.779  53.169  1.00  0.00     0.001 C 
HETATM   19  C13 UNL     1      25.009   0.439  53.284  1.00  0.00     0.019 C 
ENDBRANCH  11  12
ENDBRANCH   2  11
BRANCH   1  20
HETATM   20  C3  UNL     1      22.304   0.805  51.209  1.00  0.00     0.153 C 
BRANCH  20  21
HETATM   21  C2  UNL     1      20.936   0.961  51.756  1.00  0.00     0.262 C 
HETATM   22  O2  UNL     1      19.684   0.935  51.678  1.00  0.00    -0.265 OA
BRANCH  21  23
HETATM   23  O1  UNL     1      20.976   1.348  53.087  1.00  0.00    -0.326 OA
HETATM   24  C1  UNL     1      21.076   0.348  54.082  1.00  0.00     0.213 C 
ENDBRANCH  21  23
ENDBRANCH  20  21
ENDBRANCH   1  20
TORSDOF 5
ENDMDL
MODEL 8
REMARK VINA RESULT:      -7.0      3.101      6.431
REMARK  5 active torsions:
REMARK  status: ('A' for Active; 'I' for Inactive)
REMARK    1  A    between atoms: O1_2  and  C2_3 
REMARK    2  A    between atoms: C2_3  and  C3_5 
REMARK    3  A    between atoms: C3_5  and  C4_6 
REMARK    4  A    between atoms: C5_7  and  S1_8 
REMARK    5  A    between atoms: S1_8  and  C6_9 
ROOT
HETATM    1  C4  UNL     1      21.433   0.932  51.552  1.00  0.00    -0.002 A 
HETATM    2  C5  UNL     1      22.647   1.435  51.172  1.00  0.00     0.084 A 
HETATM    3  N1  UNL     1      23.595   0.988  52.020  1.00  0.00    -0.344 N 
HETATM    4  C14 UNL     1      25.008   1.318  51.927  1.00  0.00     0.157 C 
HETATM    5  C15 UNL     1      23.076   0.194  52.972  1.00  0.00     0.045 A 
HETATM    6  C16 UNL     1      23.622  -0.480  54.028  1.00  0.00     0.030 A 
HETATM    7  C17 UNL     1      22.747  -1.213  54.803  1.00  0.00     0.002 A 
HETATM    8  C18 UNL     1      21.386  -1.305  54.587  1.00  0.00     0.001 A 
HETATM    9  C19 UNL     1      20.894  -0.603  53.506  1.00  0.00     0.014 A 
HETATM   10  C20 UNL     1      21.714   0.158  52.678  1.00  0.00     0.000 A 
ENDROOT
BRANCH   2  11
HETATM   11  S1  UNL     1      22.939   2.488  49.793  1.00  0.00    -0.072 SA
BRANCH  11  12
HETATM   12  C6  UNL     1      23.083   4.208  50.201  1.00  0.00     0.007 C 
HETATM   13  C7  UNL     1      21.927   4.831  50.436  1.00  0.00     0.019 C 
HETATM   14  C8  UNL     1      21.585   6.214  50.798  1.00  0.00     0.001 C 
HETATM   15  C9  UNL     1      22.210   7.383  50.767  1.00  0.00     0.000 C 
HETATM   16  C10 UNL     1      23.537   7.867  50.363  1.00  0.00     0.000 C 
HETATM   17  C11 UNL     1      24.683   7.250  50.135  1.00  0.00     0.000 C 
HETATM   18  C12 UNL     1      25.128   5.840  50.183  1.00  0.00     0.001 C 
HETATM   19  C13 UNL     1      24.476   4.687  50.208  1.00  0.00     0.019 C 
ENDBRANCH  11  12
ENDBRANCH   2  11
BRANCH   1  20
HETATM   20  C3  UNL     1      20.070   1.089  51.004  1.00  0.00     0.153 C 
BRANCH  20  21
HETATM   21  C2  UNL     1      19.459   2.314  51.571  1.00  0.00     0.262 C 
HETATM   22  O2  UNL     1      19.400   3.269  52.382  1.00  0.00    -0.265 OA
BRANCH  21  23
HETATM   23  O1  UNL     1      18.313   2.664  50.872  1.00  0.00    -0.326 OA
HETATM   24  C1  UNL     1      17.236   3.241  51.582  1.00  0.00     0.213 C 
ENDBRANCH  21  23
ENDBRANCH  20  21
ENDBRANCH   1  20
TORSDOF 5
ENDMDL
MODEL 9
REMARK VINA RESULT:      -6.9      1.987      6.328
REMARK  5 active torsions:
REMARK  status: ('A' for Active; 'I' for Inactive)
REMARK    1  A    between atoms: O1_2  and  C2_3 
REMARK    2  A    between atoms: C2_3  and  C3_5 
REMARK    3  A    between atoms: C3_5  and  C4_6 
REMARK    4  A    between atoms: C5_7  and  S1_8 
REMARK    5  A    between atoms: S1_8  and  C6_9 
ROOT
HETATM    1  C4  UNL     1      23.748   1.671  52.487  1.00  0.00    -0.002 A 
HETATM    2  C5  UNL     1      24.310   2.676  51.748  1.00  0.00     0.084 A 
HETATM    3  N1  UNL     1      25.583   2.348  51.450  1.00  0.00    -0.344 N 
HETATM    4  C14 UNL     1      26.491   3.178  50.676  1.00  0.00     0.157 C 
HETATM    5  C15 UNL     1      25.919   1.150  51.961  1.00  0.00     0.045 A 
HETATM    6  C16 UNL     1      27.066   0.409  51.929  1.00  0.00     0.030 A 
HETATM    7  C17 UNL     1      27.028  -0.804  52.584  1.00  0.00     0.002 A 
HETATM    8  C18 UNL     1      25.930  -1.306  53.256  1.00  0.00     0.001 A 
HETATM    9  C19 UNL     1      24.803  -0.512  53.252  1.00  0.00     0.014 A 
HETATM   10  C20 UNL     1      24.764   0.724  52.614  1.00  0.00     0.000 A 
ENDROOT
BRANCH   2  11
HETATM   11  S1  UNL     1      23.505   4.159  51.247  1.00  0.00    -0.072 SA
BRANCH  11  12
HETATM   12  C6  UNL     1      22.820   4.105  49.612  1.00  0.00     0.007 C 
HETATM   13  C7  UNL     1      22.797   2.895  49.050  1.00  0.00     0.019 C 
HETATM   14  C8  UNL     1      22.331   2.400  47.746  1.00  0.00     0.001 C 
HETATM   15  C9  UNL     1      22.026   2.950  46.579  1.00  0.00     0.000 C 
HETATM   16  C10 UNL     1      22.000   4.308  46.019  1.00  0.00     0.000 C 
HETATM   17  C11 UNL     1      22.018   5.505  46.577  1.00  0.00     0.000 C 
HETATM   18  C12 UNL     1      22.070   5.999  47.970  1.00  0.00     0.001 C 
HETATM   19  C13 UNL     1      22.386   5.424  49.121  1.00  0.00     0.019 C 
ENDBRANCH  11  12
ENDBRANCH   2  11
BRANCH   1  20
HETATM   20  C3  UNL     1      22.407   1.497  53.081  1.00  0.00     0.153 C 
BRANCH  20  21
HETATM   21  C2  UNL     1      21.594   0.634  52.193  1.00  0.00     0.262 C 
HETATM   22  O2  UNL     1      21.145   0.274  51.078  1.00  0.00    -0.265 OA
BRANCH  21  23
HETATM   23  O1  UNL     1      20.932  -0.343  52.922  1.00  0.00    -0.326 OA
HETATM   24  C1  UNL     1      21.153  -0.415  54.316  1.00  0.00     0.213 C 
ENDBRANCH  21  23
ENDBRANCH  20  21
ENDBRANCH   1  20
TORSDOF 5
ENDMDL
