MODEL 1
REMARK VINA RESULT:      -9.5      0.000      0.000
REMARK  2 active torsions:
REMARK  status: ('A' for Active; 'I' for Inactive)
REMARK    1  A    between atoms: C2_2  and  C3_3 
REMARK    2  A    between atoms: C7_8  and  C8_9 
ROOT
HETATM    1  C3  UNL     1      21.526  -0.696  54.575  1.00  0.00     0.003 C 
HETATM    2  C4  UNL     1      22.603  -0.582  53.863  1.00  0.00    -0.052 C 
HETATM    3  C5  UNL     1      23.882  -1.143  54.305  1.00  0.00     0.037 C 
HETATM    4  C6  UNL     1      24.959  -0.413  53.988  1.00  0.00     0.040 C 
HETATM    5  N1  UNL     1      26.332  -0.701  54.306  1.00  0.00    -0.377 N 
HETATM    6  C7  UNL     1      26.820   0.686  54.367  1.00  0.00     0.138 C 
HETATM    7  C10 UNL     1      26.364   1.293  53.057  1.00  0.00    -0.021 C 
HETATM    8  C11 UNL     1      27.132   2.105  52.312  1.00  0.00     0.003 C 
HETATM    9  C12 UNL     1      26.773   2.706  51.085  1.00  0.00     0.142 C 
HETATM   10  N2  UNL     1      26.459   3.262  49.902  1.00  0.00    -0.418 N 
HETATM   11  C13 UNL     1      25.235   3.898  49.532  1.00  0.00     0.114 C 
HETATM   12  C14 UNL     1      23.992   3.157  49.295  1.00  0.00     0.020 C 
HETATM   13  C15 UNL     1      23.138   2.420  50.276  1.00  0.00     0.010 C 
HETATM   14  C16 UNL     1      23.814   2.097  51.514  1.00  0.00     0.012 C 
HETATM   15  C17 UNL     1      23.875   3.309  52.359  1.00  0.00     0.015 C 
HETATM   16  C18 UNL     1      23.812   0.991  52.431  1.00  0.00    -0.059 C 
HETATM   17  C19 UNL     1      25.006   0.701  53.059  1.00  0.00     0.002 C 
HETATM   18  C20 UNL     1      22.651   0.157  52.601  1.00  0.00     0.074 C 
HETATM   19  H6  UNL     1      26.779  -1.645  54.429  1.00  0.00     0.160 HD
HETATM   20  H14 UNL     1      27.084   3.010  49.135  1.00  0.00     0.153 HD
ENDROOT
BRANCH   1  21
HETATM   21  C2  UNL     1      20.314  -0.104  54.038  1.00  0.00    -0.026 C 
HETATM   22  C1  UNL     1      19.294  -0.661  53.413  1.00  0.00     0.031 C 
ENDBRANCH   1  21
BRANCH   6  23
HETATM   23  C8  UNL     1      28.251   0.619  54.566  1.00  0.00    -0.007 C 
HETATM   24  C9  UNL     1      29.172  -0.301  54.205  1.00  0.00     0.009 C 
ENDBRANCH   6  23
TORSDOF 2
ENDMDL
MODEL 2
REMARK VINA RESULT:      -8.8      1.661      6.291
REMARK  2 active torsions:
REMARK  status: ('A' for Active; 'I' for Inactive)
REMARK    1  A    between atoms: C2_2  and  C3_3 
REMARK    2  A    between atoms: C7_8  and  C8_9 
ROOT
HETATM    1  C3  UNL     1      24.760   4.858  49.118  1.00  0.00     0.003 C 
HETATM    2  C4  UNL     1      24.636   3.637  49.532  1.00  0.00    -0.052 C 
HETATM    3  C5  UNL     1      23.418   2.861  49.291  1.00  0.00     0.037 C 
HETATM    4  C6  UNL     1      23.071   2.030  50.283  1.00  0.00     0.040 C 
HETATM    5  N1  UNL     1      21.922   1.166  50.335  1.00  0.00    -0.377 N 
HETATM    6  C7  UNL     1      21.743   1.156  51.795  1.00  0.00     0.138 C 
HETATM    7  C10 UNL     1      23.110   0.781  52.329  1.00  0.00    -0.021 C 
HETATM    8  C11 UNL     1      23.296  -0.082  53.342  1.00  0.00     0.003 C 
HETATM    9  C12 UNL     1      24.537  -0.476  53.890  1.00  0.00     0.142 C 
HETATM   10  N2  UNL     1      25.710  -0.885  54.404  1.00  0.00    -0.418 N 
HETATM   11  C13 UNL     1      26.849  -0.086  54.728  1.00  0.00     0.114 C 
HETATM   12  C14 UNL     1      27.722   0.507  53.711  1.00  0.00     0.020 C 
HETATM   13  C15 UNL     1      27.420   1.600  52.737  1.00  0.00     0.010 C 
HETATM   14  C16 UNL     1      26.004   1.831  52.537  1.00  0.00     0.012 C 
HETATM   15  C17 UNL     1      25.477   2.600  53.684  1.00  0.00     0.015 C 
HETATM   16  C18 UNL     1      25.165   2.178  51.425  1.00  0.00    -0.059 C 
HETATM   17  C19 UNL     1      23.892   1.645  51.415  1.00  0.00     0.002 C 
HETATM   18  C20 UNL     1      25.663   2.952  50.318  1.00  0.00     0.074 C 
HETATM   19  H6  UNL     1      21.425   0.709  49.529  1.00  0.00     0.160 HD
HETATM   20  H14 UNL     1      25.867  -1.892  54.354  1.00  0.00     0.153 HD
ENDROOT
BRANCH   1  21
HETATM   21  C2  UNL     1      26.013   5.532  49.410  1.00  0.00    -0.026 C 
HETATM   22  C1  UNL     1      26.994   5.899  48.608  1.00  0.00     0.031 C 
ENDBRANCH   1  21
BRANCH   6  23
HETATM   23  C8  UNL     1      20.677   0.222  52.081  1.00  0.00    -0.007 C 
HETATM   24  C9  UNL     1      19.382   0.183  51.696  1.00  0.00     0.009 C 
ENDBRANCH   6  23
TORSDOF 2
ENDMDL
MODEL 3
REMARK VINA RESULT:      -8.3      1.535      4.882
REMARK  2 active torsions:
REMARK  status: ('A' for Active; 'I' for Inactive)
REMARK    1  A    between atoms: C2_2  and  C3_3 
REMARK    2  A    between atoms: C7_8  and  C8_9 
ROOT
HETATM    1  C3  UNL     1      24.398   3.686  49.160  1.00  0.00     0.003 C 
HETATM    2  C4  UNL     1      24.575   3.216  50.353  1.00  0.00    -0.052 C 
HETATM    3  C5  UNL     1      25.911   2.917  50.874  1.00  0.00     0.037 C 
HETATM    4  C6  UNL     1      25.980   1.842  51.670  1.00  0.00     0.040 C 
HETATM    5  N1  UNL     1      27.153   1.301  52.304  1.00  0.00    -0.377 N 
HETATM    6  C7  UNL     1      26.727  -0.107  52.347  1.00  0.00     0.138 C 
HETATM    7  C10 UNL     1      25.360  -0.057  52.997  1.00  0.00    -0.021 C 
HETATM    8  C11 UNL     1      24.949  -0.937  53.925  1.00  0.00     0.003 C 
HETATM    9  C12 UNL     1      23.693  -0.951  54.570  1.00  0.00     0.142 C 
HETATM   10  N2  UNL     1      22.514  -0.962  55.215  1.00  0.00    -0.418 N 
HETATM   11  C13 UNL     1      21.211  -0.771  54.661  1.00  0.00     0.114 C 
HETATM   12  C14 UNL     1      20.726   0.532  54.196  1.00  0.00     0.020 C 
HETATM   13  C15 UNL     1      21.180   1.339  53.022  1.00  0.00     0.010 C 
HETATM   14  C16 UNL     1      22.484   0.958  52.520  1.00  0.00     0.012 C 
HETATM   15  C17 UNL     1      22.349  -0.277  51.720  1.00  0.00     0.015 C 
HETATM   16  C18 UNL     1      23.618   1.648  51.971  1.00  0.00    -0.059 C 
HETATM   17  C19 UNL     1      24.862   1.125  52.255  1.00  0.00     0.002 C 
HETATM   18  C20 UNL     1      23.469   2.888  51.254  1.00  0.00     0.074 C 
HETATM   19  H6  UNL     1      28.009   1.820  52.622  1.00  0.00     0.160 HD
HETATM   20  H14 UNL     1      22.584  -0.887  56.230  1.00  0.00     0.153 HD
ENDROOT
BRANCH   1  21
HETATM   21  C2  UNL     1      23.031   3.948  48.748  1.00  0.00    -0.026 C 
HETATM   22  C1  UNL     1      22.303   3.397  47.795  1.00  0.00     0.031 C 
ENDBRANCH   1  21
BRANCH   6  23
HETATM   23  C8  UNL     1      27.744  -0.832  53.076  1.00  0.00    -0.007 C 
HETATM   24  C9  UNL     1      28.974  -0.475  53.506  1.00  0.00     0.009 C 
ENDBRANCH   6  23
TORSDOF 2
ENDMDL
MODEL 4
REMARK VINA RESULT:      -8.2      2.321      5.488
REMARK  2 active torsions:
REMARK  status: ('A' for Active; 'I' for Inactive)
REMARK    1  A    between atoms: C2_2  and  C3_3 
REMARK    2  A    between atoms: C7_8  and  C8_9 
ROOT
HETATM    1  C3  UNL     1      25.779  -1.054  53.436  1.00  0.00     0.003 C 
HETATM    2  C4  UNL     1      24.729  -0.337  53.684  1.00  0.00    -0.052 C 
HETATM    3  C5  UNL     1      23.560  -0.893  54.370  1.00  0.00     0.037 C 
HETATM    4  C6  UNL     1      22.380  -0.427  53.943  1.00  0.00     0.040 C 
HETATM    5  N1  UNL     1      21.073  -0.803  54.413  1.00  0.00    -0.377 N 
HETATM    6  C7  UNL     1      20.333  -0.562  53.164  1.00  0.00     0.138 C 
HETATM    7  C10 UNL     1      20.719   0.850  52.776  1.00  0.00    -0.021 C 
HETATM    8  C11 UNL     1      19.844   1.753  52.303  1.00  0.00     0.003 C 
HETATM    9  C12 UNL     1      20.133   3.082  51.922  1.00  0.00     0.142 C 
HETATM   10  N2  UNL     1      20.384   4.358  51.583  1.00  0.00    -0.418 N 
HETATM   11  C13 UNL     1      21.482   4.860  50.819  1.00  0.00     0.114 C 
HETATM   12  C14 UNL     1      22.849   4.932  51.343  1.00  0.00     0.020 C 
HETATM   13  C15 UNL     1      23.786   3.817  51.677  1.00  0.00     0.010 C 
HETATM   14  C16 UNL     1      23.133   2.536  51.850  1.00  0.00     0.012 C 
HETATM   15  C17 UNL     1      22.815   1.976  50.520  1.00  0.00     0.015 C 
HETATM   16  C18 UNL     1      23.305   1.401  52.713  1.00  0.00    -0.059 C 
HETATM   17  C19 UNL     1      22.163   0.722  53.084  1.00  0.00     0.002 C 
HETATM   18  C20 UNL     1      24.594   1.056  53.255  1.00  0.00     0.074 C 
HETATM   19  H6  UNL     1      20.805  -1.128  55.376  1.00  0.00     0.160 HD
HETATM   20  H14 UNL     1      19.848   5.050  52.106  1.00  0.00     0.153 HD
ENDROOT
BRANCH   1  21
HETATM   21  C2  UNL     1      26.880  -0.399  52.753  1.00  0.00    -0.026 C 
HETATM   22  C1  UNL     1      28.124  -0.188  53.141  1.00  0.00     0.031 C 
ENDBRANCH   1  21
BRANCH   6  23
HETATM   23  C8  UNL     1      18.933  -0.773  53.457  1.00  0.00    -0.007 C 
HETATM   24  C9  UNL     1      18.168  -1.887  53.458  1.00  0.00     0.009 C 
ENDBRANCH   6  23
TORSDOF 2
ENDMDL
MODEL 5
REMARK VINA RESULT:      -8.0      1.446      4.510
REMARK  2 active torsions:
REMARK  status: ('A' for Active; 'I' for Inactive)
REMARK    1  A    between atoms: C2_2  and  C3_3 
REMARK    2  A    between atoms: C7_8  and  C8_9 
ROOT
HETATM    1  C3  UNL     1      20.913   0.890  51.500  1.00  0.00     0.003 C 
HETATM    2  C4  UNL     1      21.967   1.547  51.869  1.00  0.00    -0.052 C 
HETATM    3  C5  UNL     1      22.425   2.737  51.151  1.00  0.00     0.037 C 
HETATM    4  C6  UNL     1      23.755   2.879  51.080  1.00  0.00     0.040 C 
HETATM    5  N1  UNL     1      24.486   3.931  50.425  1.00  0.00    -0.377 N 
HETATM    6  C7  UNL     1      25.693   3.158  50.089  1.00  0.00     0.138 C 
HETATM    7  C10 UNL     1      26.105   2.531  51.404  1.00  0.00    -0.021 C 
HETATM    8  C11 UNL     1      27.381   2.458  51.820  1.00  0.00     0.003 C 
HETATM    9  C12 UNL     1      27.837   1.889  53.029  1.00  0.00     0.142 C 
HETATM   10  N2  UNL     1      28.286   1.379  54.189  1.00  0.00    -0.418 N 
HETATM   11  C13 UNL     1      27.895   0.157  54.817  1.00  0.00     0.114 C 
HETATM   12  C14 UNL     1      26.592  -0.026  55.463  1.00  0.00     0.020 C 
HETATM   13  C15 UNL     1      25.235  -0.087  54.839  1.00  0.00     0.010 C 
HETATM   14  C16 UNL     1      25.181   0.465  53.502  1.00  0.00     0.012 C 
HETATM   15  C17 UNL     1      25.748  -0.518  52.554  1.00  0.00     0.015 C 
HETATM   16  C18 UNL     1      24.232   1.228  52.741  1.00  0.00    -0.059 C 
HETATM   17  C19 UNL     1      24.745   2.138  51.839  1.00  0.00     0.002 C 
HETATM   18  C20 UNL     1      22.817   1.130  52.986  1.00  0.00     0.074 C 
HETATM   19  H6  UNL     1      24.187   4.928  50.282  1.00  0.00     0.160 HD
HETATM   20  H14 UNL     1      28.798   2.040  54.774  1.00  0.00     0.153 HD
ENDROOT
BRANCH   1  21
HETATM   21  C2  UNL     1      20.549  -0.274  52.287  1.00  0.00    -0.026 C 
HETATM   22  C1  UNL     1      19.549  -0.461  53.127  1.00  0.00     0.031 C 
ENDBRANCH   1  21
BRANCH   6  23
HETATM   23  C8  UNL     1      26.638   4.086  49.509  1.00  0.00    -0.007 C 
HETATM   24  C9  UNL     1      26.477   5.296  48.930  1.00  0.00     0.009 C 
ENDBRANCH   6  23
TORSDOF 2
ENDMDL
MODEL 6
REMARK VINA RESULT:      -7.8      2.703      5.859
REMARK  2 active torsions:
REMARK  status: ('A' for Active; 'I' for Inactive)
REMARK    1  A    between atoms: C2_2  and  C3_3 
REMARK    2  A    between atoms: C7_8  and  C8_9 
ROOT
HETATM    1  C3  UNL     1      26.449   2.951  50.488  1.00  0.00     0.003 C 
HETATM    2  C4  UNL     1      25.263   2.846  51.000  1.00  0.00    -0.052 C 
HETATM    3  C5  UNL     1      25.023   2.118  52.247  1.00  0.00     0.037 C 
HETATM    4  C6  UNL     1      23.866   1.446  52.296  1.00  0.00     0.040 C 
HETATM    5  N1  UNL     1      23.376   0.632  53.377  1.00  0.00    -0.377 N 
HETATM    6  C7  UNL     1      22.574  -0.306  52.575  1.00  0.00     0.138 C 
HETATM    7  C10 UNL     1      21.698   0.593  51.726  1.00  0.00    -0.021 C 
HETATM    8  C11 UNL     1      20.397   0.353  51.494  1.00  0.00     0.003 C 
HETATM    9  C12 UNL     1      19.524   1.144  50.716  1.00  0.00     0.142 C 
HETATM   10  N2  UNL     1      18.672   1.901  50.003  1.00  0.00    -0.418 N 
HETATM   11  C13 UNL     1      18.898   2.514  48.734  1.00  0.00     0.114 C 
HETATM   12  C14 UNL     1      19.775   3.675  48.555  1.00  0.00     0.020 C 
HETATM   13  C15 UNL     1      21.262   3.758  48.692  1.00  0.00     0.010 C 
HETATM   14  C16 UNL     1      21.842   2.664  49.442  1.00  0.00     0.012 C 
HETATM   15  C17 UNL     1      21.910   1.469  48.574  1.00  0.00     0.015 C 
HETATM   16  C18 UNL     1      22.918   2.517  50.382  1.00  0.00    -0.059 C 
HETATM   17  C19 UNL     1      22.752   1.575  51.377  1.00  0.00     0.002 C 
HETATM   18  C20 UNL     1      24.065   3.386  50.355  1.00  0.00     0.074 C 
HETATM   19  H6  UNL     1      23.567   0.745  54.404  1.00  0.00     0.160 HD
HETATM   20  H14 UNL     1      17.864   2.239  50.527  1.00  0.00     0.153 HD
ENDROOT
BRANCH   1  21
HETATM   21  C2  UNL     1      26.571   3.698  49.249  1.00  0.00    -0.026 C 
HETATM   22  C1  UNL     1      27.398   4.671  48.914  1.00  0.00     0.031 C 
ENDBRANCH   1  21
BRANCH   6  23
HETATM   23  C8  UNL     1      21.878  -1.166  53.505  1.00  0.00    -0.007 C 
HETATM   24  C9  UNL     1      21.668  -1.075  54.837  1.00  0.00     0.009 C 
ENDBRANCH   6  23
TORSDOF 2
ENDMDL
MODEL 7
REMARK VINA RESULT:      -7.8      2.617      5.355
REMARK  2 active torsions:
REMARK  status: ('A' for Active; 'I' for Inactive)
REMARK    1  A    between atoms: C2_2  and  C3_3 
REMARK    2  A    between atoms: C7_8  and  C8_9 
ROOT
HETATM    1  C3  UNL     1      19.242   4.460  50.649  1.00  0.00     0.003 C 
HETATM    2  C4  UNL     1      20.317   4.163  51.307  1.00  0.00    -0.052 C 
HETATM    3  C5  UNL     1      21.607   4.782  50.998  1.00  0.00     0.037 C 
HETATM    4  C6  UNL     1      22.668   3.976  51.131  1.00  0.00     0.040 C 
HETATM    5  N1  UNL     1      24.047   4.301  50.879  1.00  0.00    -0.377 N 
HETATM    6  C7  UNL     1      24.504   2.955  50.497  1.00  0.00     0.138 C 
HETATM    7  C10 UNL     1      24.036   2.072  51.636  1.00  0.00    -0.021 C 
HETATM    8  C11 UNL     1      24.787   1.094  52.169  1.00  0.00     0.003 C 
HETATM    9  C12 UNL     1      24.416   0.235  53.227  1.00  0.00     0.142 C 
HETATM   10  N2  UNL     1      24.092  -0.571  54.253  1.00  0.00    -0.418 N 
HETATM   11  C13 UNL     1      22.855  -1.249  54.475  1.00  0.00     0.114 C 
HETATM   12  C14 UNL     1      21.629  -0.556  54.884  1.00  0.00     0.020 C 
HETATM   13  C15 UNL     1      20.790   0.405  54.105  1.00  0.00     0.010 C 
HETATM   14  C16 UNL     1      21.472   0.990  52.969  1.00  0.00     0.012 C 
HETATM   15  C17 UNL     1      21.504   0.004  51.868  1.00  0.00     0.015 C 
HETATM   16  C18 UNL     1      21.493   2.277  52.332  1.00  0.00    -0.059 C 
HETATM   17  C19 UNL     1      22.692   2.678  51.779  1.00  0.00     0.002 C 
HETATM   18  C20 UNL     1      20.351   3.153  52.366  1.00  0.00     0.074 C 
HETATM   19  H6  UNL     1      24.515   5.237  50.974  1.00  0.00     0.160 HD
HETATM   20  H14 UNL     1      24.723  -0.516  55.052  1.00  0.00     0.153 HD
ENDROOT
BRANCH   1  21
HETATM   21  C2  UNL     1      18.017   3.787  51.042  1.00  0.00    -0.026 C 
HETATM   22  C1  UNL     1      16.824   4.276  51.323  1.00  0.00     0.031 C 
ENDBRANCH   1  21
BRANCH   6  23
HETATM   23  C8  UNL     1      25.935   3.035  50.309  1.00  0.00    -0.007 C 
HETATM   24  C9  UNL     1      26.698   3.787  49.486  1.00  0.00     0.009 C 
ENDBRANCH   6  23
TORSDOF 2
ENDMDL
MODEL 8
REMARK VINA RESULT:      -7.5      2.547      5.189
REMARK  2 active torsions:
REMARK  status: ('A' for Active; 'I' for Inactive)
REMARK    1  A    between atoms: C2_2  and  C3_3 
REMARK    2  A    between atoms: C7_8  and  C8_9 
ROOT
HETATM    1  C3  UNL     1      26.285   1.065  53.512  1.00  0.00     0.003 C 
HETATM    2  C4  UNL     1      25.999   1.419  52.300  1.00  0.00    -0.052 C 
HETATM    3  C5  UNL     1      26.876   2.300  51.525  1.00  0.00     0.037 C 
HETATM    4  C6  UNL     1      26.244   3.158  50.715  1.00  0.00     0.040 C 
HETATM    5  N1  UNL     1      26.840   4.148  49.857  1.00  0.00    -0.377 N 
HETATM    6  C7  UNL     1      25.736   5.121  49.875  1.00  0.00     0.138 C 
HETATM    7  C10 UNL     1      24.518   4.301  49.504  1.00  0.00    -0.021 C 
HETATM    8  C11 UNL     1      23.566   4.732  48.660  1.00  0.00     0.003 C 
HETATM    9  C12 UNL     1      22.407   4.024  48.270  1.00  0.00     0.142 C 
HETATM   10  N2  UNL     1      21.316   3.353  47.865  1.00  0.00    -0.418 N 
HETATM   11  C13 UNL     1      20.415   2.585  48.664  1.00  0.00     0.114 C 
HETATM   12  C14 UNL     1      20.768   1.282  49.234  1.00  0.00     0.020 C 
HETATM   13  C15 UNL     1      21.755   0.964  50.310  1.00  0.00     0.010 C 
HETATM   14  C16 UNL     1      22.724   2.015  50.544  1.00  0.00     0.012 C 
HETATM   15  C17 UNL     1      22.086   3.088  51.337  1.00  0.00     0.015 C 
HETATM   16  C18 UNL     1      24.120   2.074  50.874  1.00  0.00    -0.059 C 
HETATM   17  C19 UNL     1      24.841   3.126  50.347  1.00  0.00     0.002 C 
HETATM   18  C20 UNL     1      24.761   1.026  51.625  1.00  0.00     0.074 C 
HETATM   19  H6  UNL     1      27.779   4.109  49.387  1.00  0.00     0.160 HD
HETATM   20  H14 UNL     1      21.254   3.210  46.857  1.00  0.00     0.153 HD
ENDROOT
BRANCH   1  21
HETATM   21  C2  UNL     1      25.345   0.187  54.185  1.00  0.00    -0.026 C 
HETATM   22  C1  UNL     1      25.507  -0.599  55.233  1.00  0.00     0.031 C 
ENDBRANCH   1  21
BRANCH   6  23
HETATM   23  C8  UNL     1      26.090   6.176  48.953  1.00  0.00    -0.007 C 
HETATM   24  C9  UNL     1      27.242   6.462  48.306  1.00  0.00     0.009 C 
ENDBRANCH   6  23
TORSDOF 2
ENDMDL
MODEL 9
REMARK VINA RESULT:      -7.3      6.281      9.244
REMARK  2 active torsions:
REMARK  status: ('A' for Active; 'I' for Inactive)
REMARK    1  A    between atoms: C2_2  and  C3_3 
REMARK    2  A    between atoms: C7_8  and  C8_9 
ROOT
HETATM    1  C3  UNL     1      26.990   4.347  49.107  1.00  0.00     0.003 C 
HETATM    2  C4  UNL     1      27.635   5.314  48.536  1.00  0.00    -0.052 C 
HETATM    3  C5  UNL     1      29.053   5.197  48.188  1.00  0.00     0.037 C 
HETATM    4  C6  UNL     1      29.764   6.323  48.328  1.00  0.00     0.040 C 
HETATM    5  N1  UNL     1      31.171   6.502  48.083  1.00  0.00    -0.377 N 
HETATM    6  C7  UNL     1      31.410   7.579  49.057  1.00  0.00     0.138 C 
HETATM    7  C10 UNL     1      30.354   8.613  48.725  1.00  0.00    -0.021 C 
HETATM    8  C11 UNL     1      30.597   9.934  48.699  1.00  0.00     0.003 C 
HETATM    9  C12 UNL     1      29.664  10.952  48.400  1.00  0.00     0.142 C 
HETATM   10  N2  UNL     1      28.798  11.931  48.089  1.00  0.00    -0.418 N 
HETATM   11  C13 UNL     1      27.447  12.076  48.529  1.00  0.00     0.114 C 
HETATM   12  C14 UNL     1      26.356  11.223  48.048  1.00  0.00     0.020 C 
HETATM   13  C15 UNL     1      26.124   9.767  48.299  1.00  0.00     0.010 C 
HETATM   14  C16 UNL     1      27.300   9.057  48.753  1.00  0.00     0.012 C 
HETATM   15  C17 UNL     1      27.514   9.350  50.187  1.00  0.00     0.015 C 
HETATM   16  C18 UNL     1      27.861   7.752  48.541  1.00  0.00    -0.059 C 
HETATM   17  C19 UNL     1      29.237   7.660  48.530  1.00  0.00     0.002 C 
HETATM   18  C20 UNL     1      27.029   6.614  48.244  1.00  0.00     0.074 C 
HETATM   19  H6  UNL     1      31.773   5.988  47.391  1.00  0.00     0.160 HD
HETATM   20  H14 UNL     1      29.074  12.506  47.293  1.00  0.00     0.153 HD
ENDROOT
BRANCH   1  21
HETATM   21  C2  UNL     1      25.587   4.572  49.404  1.00  0.00    -0.026 C 
HETATM   22  C1  UNL     1      24.567   3.734  49.404  1.00  0.00     0.031 C 
ENDBRANCH   1  21
BRANCH   6  23
HETATM   23  C8  UNL     1      32.782   8.002  48.887  1.00  0.00    -0.007 C 
HETATM   24  C9  UNL     1      33.618   7.953  47.827  1.00  0.00     0.009 C 
ENDBRANCH   6  23
TORSDOF 2
ENDMDL
