MODEL 1
REMARK VINA RESULT:      -7.6      0.000      0.000
REMARK  6 active torsions:
REMARK  status: ('A' for Active; 'I' for Inactive)
REMARK    1  A    between atoms: C4_5  and  N2_6 
REMARK    2  A    between atoms: C6_9  and  C7_10 
REMARK    3  A    between atoms: C9_12  and  O1_13 
REMARK       I    between atoms: N4_15  and  C11_16 
REMARK    4  A    between atoms: C11_16  and  C12_18 
REMARK    5  A    between atoms: C13_19  and  C14_20 
REMARK    6  A    between atoms: C18_24  and  O3_25 
ROOT
HETATM    1  C1  UNL     1      20.605   4.293  45.296  1.00  0.00     0.039 C 
HETATM    2  C2  UNL     1      19.900   3.942  46.235  1.00  0.00     0.024 C 
HETATM    3  N1  UNL     1      19.096   3.561  47.318  1.00  0.00    -0.200 N 
HETATM    4  C3  UNL     1      19.494   3.351  48.591  1.00  0.00     0.162 A 
HETATM    5  C4  UNL     1      18.398   2.983  49.380  1.00  0.00     0.097 A 
HETATM    6  C21 UNL     1      17.326   2.988  48.491  1.00  0.00     0.173 A 
HETATM    7  N6  UNL     1      17.778   3.337  47.271  1.00  0.00    -0.170 NA
ENDROOT
BRANCH   5   8
HETATM    8  N2  UNL     1      18.454   2.686  50.775  1.00  0.00    -0.225 N 
HETATM    9  C5  UNL     1      19.171   3.384  51.683  1.00  0.00     0.235 C 
HETATM   10  N3  UNL     1      20.080   2.905  52.573  1.00  0.00    -0.246 NA
HETATM   11  C6  UNL     1      21.144   2.179  52.253  1.00  0.00     0.044 C 
HETATM   12  C17 UNL     1      20.682   1.018  51.687  1.00  0.00     0.064 C 
HETATM   13  C18 UNL     1      19.786   0.045  52.082  1.00  0.00     0.069 C 
HETATM   14  C19 UNL     1      18.508  -0.276  51.670  1.00  0.00     0.057 C 
HETATM   15  C20 UNL     1      18.122   0.444  50.558  1.00  0.00     0.142 C 
HETATM   16  N5  UNL     1      17.704   1.638  51.028  1.00  0.00    -0.179 NA
BRANCH  11  17
HETATM   17  C7  UNL     1      22.616   2.366  52.380  1.00  0.00     0.060 C 
HETATM   18  C8  UNL     1      23.218   1.837  51.101  1.00  0.00     0.066 C 
HETATM   19  C9  UNL     1      24.626   1.520  51.571  1.00  0.00     0.226 C 
HETATM   20  N4  UNL     1      24.341   0.832  52.831  1.00  0.00    -0.321 N 
HETATM   21  C11 UNL     1      25.045  -0.299  53.349  1.00  0.00     0.245 C 
HETATM   22  C16 UNL     1      23.226   1.519  53.435  1.00  0.00     0.139 C 
HETATM   23  O2  UNL     1      24.608  -0.726  54.471  1.00  0.00    -0.268 OA
BRANCH  19  24
HETATM   24  O1  UNL     1      25.386   2.649  51.753  1.00  0.00    -0.371 OA
HETATM   25  C10 UNL     1      25.797   3.158  50.543  1.00  0.00     0.204 C 
ENDBRANCH  19  24
BRANCH  21  26
HETATM   26  C12 UNL     1      26.163  -0.896  52.634  1.00  0.00     0.070 C 
HETATM   27  C13 UNL     1      27.460  -0.800  52.845  1.00  0.00    -0.022 C 
BRANCH  27  28
HETATM   28  C14 UNL     1      28.580  -0.272  53.615  1.00  0.00     0.023 C 
HETATM   29  C15 UNL     1      29.845  -1.113  53.542  1.00  0.00     0.009 C 
ENDBRANCH  27  28
ENDBRANCH  21  26
ENDBRANCH  11  17
BRANCH  13  30
HETATM   30  O3  UNL     1      20.647  -0.481  53.037  1.00  0.00    -0.361 OA
HETATM   31  H21 UNL     1      21.650  -0.367  52.893  1.00  0.00     0.217 HD
ENDBRANCH  13  30
ENDBRANCH   5   8
TORSDOF 6
ENDMDL
MODEL 2
REMARK VINA RESULT:      -7.6      8.134     12.698
REMARK  6 active torsions:
REMARK  status: ('A' for Active; 'I' for Inactive)
REMARK    1  A    between atoms: C4_5  and  N2_6 
REMARK    2  A    between atoms: C6_9  and  C7_10 
REMARK    3  A    between atoms: C9_12  and  O1_13 
REMARK       I    between atoms: N4_15  and  C11_16 
REMARK    4  A    between atoms: C11_16  and  C12_18 
REMARK    5  A    between atoms: C13_19  and  C14_20 
REMARK    6  A    between atoms: C18_24  and  O3_25 
ROOT
HETATM    1  C1  UNL     1      32.422   1.510  46.751  1.00  0.00     0.039 C 
HETATM    2  C2  UNL     1      32.886   2.553  47.199  1.00  0.00     0.024 C 
HETATM    3  N1  UNL     1      33.406   3.741  47.730  1.00  0.00    -0.200 N 
HETATM    4  C3  UNL     1      32.725   4.875  48.001  1.00  0.00     0.162 A 
HETATM    5  C4  UNL     1      33.595   5.841  48.523  1.00  0.00     0.097 A 
HETATM    6  C21 UNL     1      34.833   5.203  48.543  1.00  0.00     0.173 A 
HETATM    7  N6  UNL     1      34.683   3.953  48.064  1.00  0.00    -0.170 NA
ENDROOT
BRANCH   5   8
HETATM    8  N2  UNL     1      33.215   7.158  48.920  1.00  0.00    -0.225 N 
HETATM    9  C5  UNL     1      32.107   7.459  49.632  1.00  0.00     0.235 C 
HETATM   10  N3  UNL     1      31.139   8.362  49.325  1.00  0.00    -0.246 NA
HETATM   11  C6  UNL     1      30.445   8.373  48.193  1.00  0.00     0.044 C 
HETATM   12  C17 UNL     1      31.341   8.581  47.176  1.00  0.00     0.064 C 
HETATM   13  C18 UNL     1      32.306   9.534  46.924  1.00  0.00     0.069 C 
HETATM   14  C19 UNL     1      33.687   9.504  46.957  1.00  0.00     0.057 C 
HETATM   15  C20 UNL     1      34.175   8.229  47.155  1.00  0.00     0.142 C 
HETATM   16  N5  UNL     1      34.108   8.018  48.486  1.00  0.00    -0.179 NA
BRANCH  11  17
HETATM   17  C7  UNL     1      29.005   8.217  47.846  1.00  0.00     0.060 C 
HETATM   18  C8  UNL     1      28.229   8.736  49.033  1.00  0.00     0.066 C 
HETATM   19  C9  UNL     1      26.915   8.001  48.845  1.00  0.00     0.226 C 
HETATM   20  N4  UNL     1      27.400   6.650  48.555  1.00  0.00    -0.321 N 
HETATM   21  C11 UNL     1      26.807   5.430  49.003  1.00  0.00     0.245 C 
HETATM   22  C16 UNL     1      28.578   6.801  47.736  1.00  0.00     0.139 C 
HETATM   23  O2  UNL     1      27.415   4.374  48.621  1.00  0.00    -0.268 OA
BRANCH  19  24
HETATM   24  O1  UNL     1      26.167   8.518  47.815  1.00  0.00    -0.371 OA
HETATM   25  C10 UNL     1      25.615   9.725  48.176  1.00  0.00     0.204 C 
ENDBRANCH  19  24
BRANCH  21  26
HETATM   26  C12 UNL     1      25.606   5.421  49.826  1.00  0.00     0.070 C 
HETATM   27  C13 UNL     1      24.697   4.484  50.001  1.00  0.00    -0.022 C 
BRANCH  27  28
HETATM   28  C14 UNL     1      24.185   3.151  49.709  1.00  0.00     0.023 C 
HETATM   29  C15 UNL     1      23.063   3.120  48.682  1.00  0.00     0.009 C 
ENDBRANCH  27  28
ENDBRANCH  21  26
ENDBRANCH  11  17
BRANCH  13  30
HETATM   30  O3  UNL     1      31.375  10.522  46.628  1.00  0.00    -0.361 OA
HETATM   31  H21 UNL     1      31.706  11.482  46.542  1.00  0.00     0.217 HD
ENDBRANCH  13  30
ENDBRANCH   5   8
TORSDOF 6
ENDMDL
MODEL 3
REMARK VINA RESULT:      -7.6      2.492      4.566
REMARK  6 active torsions:
REMARK  status: ('A' for Active; 'I' for Inactive)
REMARK    1  A    between atoms: C4_5  and  N2_6 
REMARK    2  A    between atoms: C6_9  and  C7_10 
REMARK    3  A    between atoms: C9_12  and  O1_13 
REMARK       I    between atoms: N4_15  and  C11_16 
REMARK    4  A    between atoms: C11_16  and  C12_18 
REMARK    5  A    between atoms: C13_19  and  C14_20 
REMARK    6  A    between atoms: C18_24  and  O3_25 
ROOT
HETATM    1  C1  UNL     1      21.447  -1.417  54.802  1.00  0.00     0.039 C 
HETATM    2  C2  UNL     1      20.707  -0.963  53.937  1.00  0.00     0.024 C 
HETATM    3  N1  UNL     1      19.872  -0.455  52.933  1.00  0.00    -0.200 N 
HETATM    4  C3  UNL     1      20.198   0.454  51.989  1.00  0.00     0.162 A 
HETATM    5  C4  UNL     1      19.093   0.706  51.167  1.00  0.00     0.097 A 
HETATM    6  C21 UNL     1      18.094  -0.114  51.686  1.00  0.00     0.173 A 
HETATM    7  N6  UNL     1      18.593  -0.791  52.737  1.00  0.00    -0.170 NA
ENDROOT
BRANCH   5   8
HETATM    8  N2  UNL     1      19.080   1.614  50.066  1.00  0.00    -0.225 N 
HETATM    9  C5  UNL     1      20.070   1.735  49.155  1.00  0.00     0.235 C 
HETATM   10  N3  UNL     1      20.721   2.867  48.777  1.00  0.00    -0.246 NA
HETATM   11  C6  UNL     1      21.349   3.692  49.605  1.00  0.00     0.044 C 
HETATM   12  C17 UNL     1      20.404   4.197  50.461  1.00  0.00     0.064 C 
HETATM   13  C18 UNL     1      19.194   4.838  50.288  1.00  0.00     0.069 C 
HETATM   14  C19 UNL     1      17.885   4.440  50.476  1.00  0.00     0.057 C 
HETATM   15  C20 UNL     1      17.799   3.202  51.078  1.00  0.00     0.142 C 
HETATM   16  N5  UNL     1      17.962   2.304  50.084  1.00  0.00    -0.179 NA
BRANCH  11  17
HETATM   17  C7  UNL     1      22.760   4.136  49.770  1.00  0.00     0.060 C 
HETATM   18  C8  UNL     1      23.598   3.189  48.944  1.00  0.00     0.066 C 
HETATM   19  C9  UNL     1      24.940   3.332  49.638  1.00  0.00     0.226 C 
HETATM   20  N4  UNL     1      24.529   3.246  51.041  1.00  0.00    -0.321 N 
HETATM   21  C11 UNL     1      25.245   2.587  52.086  1.00  0.00     0.245 C 
HETATM   22  C16 UNL     1      23.277   3.953  51.149  1.00  0.00     0.139 C 
HETATM   23  O2  UNL     1      24.683   2.646  53.232  1.00  0.00    -0.268 OA
BRANCH  19  24
HETATM   24  O1  UNL     1      25.556   4.525  49.348  1.00  0.00    -0.371 OA
HETATM   25  C10 UNL     1      26.898   4.331  49.110  1.00  0.00     0.204 C 
ENDBRANCH  19  24
BRANCH  21  26
HETATM   26  C12 UNL     1      26.509   1.910  51.838  1.00  0.00     0.070 C 
HETATM   27  C13 UNL     1      27.638   1.934  52.517  1.00  0.00    -0.022 C 
BRANCH  27  28
HETATM   28  C14 UNL     1      28.422   2.412  53.650  1.00  0.00     0.023 C 
HETATM   29  C15 UNL     1      29.238   1.335  54.348  1.00  0.00     0.009 C 
ENDBRANCH  27  28
ENDBRANCH  21  26
ENDBRANCH  11  17
BRANCH  13  30
HETATM   30  O3  UNL     1      19.786   6.021  49.860  1.00  0.00    -0.361 OA
HETATM   31  H21 UNL     1      20.707   5.966  49.427  1.00  0.00     0.217 HD
ENDBRANCH  13  30
ENDBRANCH   5   8
TORSDOF 6
ENDMDL
MODEL 4
REMARK VINA RESULT:      -7.6      4.598      6.820
REMARK  6 active torsions:
REMARK  status: ('A' for Active; 'I' for Inactive)
REMARK    1  A    between atoms: C4_5  and  N2_6 
REMARK    2  A    between atoms: C6_9  and  C7_10 
REMARK    3  A    between atoms: C9_12  and  O1_13 
REMARK       I    between atoms: N4_15  and  C11_16 
REMARK    4  A    between atoms: C11_16  and  C12_18 
REMARK    5  A    between atoms: C13_19  and  C14_20 
REMARK    6  A    between atoms: C18_24  and  O3_25 
ROOT
HETATM    1  C1  UNL     1      30.003   6.668  47.678  1.00  0.00     0.039 C 
HETATM    2  C2  UNL     1      29.057   7.207  48.242  1.00  0.00     0.024 C 
HETATM    3  N1  UNL     1      27.978   7.810  48.902  1.00  0.00    -0.200 N 
HETATM    4  C3  UNL     1      26.744   7.291  49.082  1.00  0.00     0.162 A 
HETATM    5  C4  UNL     1      25.945   8.197  49.791  1.00  0.00     0.097 A 
HETATM    6  C21 UNL     1      26.786   9.283  50.018  1.00  0.00     0.173 A 
HETATM    7  N6  UNL     1      27.990   9.019  49.475  1.00  0.00    -0.170 NA
ENDROOT
BRANCH   5   8
HETATM    8  N2  UNL     1      24.583   7.976  50.157  1.00  0.00    -0.225 N 
HETATM    9  C5  UNL     1      24.180   7.254  51.226  1.00  0.00     0.235 C 
HETATM   10  N3  UNL     1      23.300   6.219  51.248  1.00  0.00    -0.246 NA
HETATM   11  C6  UNL     1      23.407   5.118  50.514  1.00  0.00     0.044 C 
HETATM   12  C17 UNL     1      23.336   5.504  49.200  1.00  0.00     0.064 C 
HETATM   13  C18 UNL     1      22.438   6.248  48.463  1.00  0.00     0.069 C 
HETATM   14  C19 UNL     1      22.491   7.518  47.922  1.00  0.00     0.057 C 
HETATM   15  C20 UNL     1      23.744   8.083  48.043  1.00  0.00     0.142 C 
HETATM   16  N5  UNL     1      23.797   8.581  49.296  1.00  0.00    -0.179 NA
BRANCH  11  17
HETATM   17  C7  UNL     1      23.573   3.670  50.817  1.00  0.00     0.060 C 
HETATM   18  C8  UNL     1      23.268   3.511  52.288  1.00  0.00     0.066 C 
HETATM   19  C9  UNL     1      24.025   2.231  52.589  1.00  0.00     0.226 C 
HETATM   20  N4  UNL     1      25.296   2.503  51.916  1.00  0.00    -0.321 N 
HETATM   21  C11 UNL     1      26.593   2.138  52.390  1.00  0.00     0.245 C 
HETATM   22  C16 UNL     1      24.976   3.202  50.695  1.00  0.00     0.139 C 
HETATM   23  O2  UNL     1      27.555   2.489  51.625  1.00  0.00    -0.268 OA
BRANCH  19  24
HETATM   24  O1  UNL     1      23.397   1.118  52.085  1.00  0.00    -0.371 OA
HETATM   25  C10 UNL     1      22.992   0.286  53.103  1.00  0.00     0.204 C 
ENDBRANCH  19  24
BRANCH  21  26
HETATM   26  C12 UNL     1      26.775   1.425  53.646  1.00  0.00     0.070 C 
HETATM   27  C13 UNL     1      27.435   0.317  53.911  1.00  0.00    -0.022 C 
BRANCH  27  28
HETATM   28  C14 UNL     1      28.259  -0.801  53.465  1.00  0.00     0.023 C 
HETATM   29  C15 UNL     1      29.749  -0.622  53.716  1.00  0.00     0.009 C 
ENDBRANCH  27  28
ENDBRANCH  21  26
ENDBRANCH  11  17
BRANCH  13  30
HETATM   30  O3  UNL     1      21.473   5.248  48.470  1.00  0.00    -0.361 OA
HETATM   31  H21 UNL     1      20.617   5.404  47.938  1.00  0.00     0.217 HD
ENDBRANCH  13  30
ENDBRANCH   5   8
TORSDOF 6
ENDMDL
MODEL 5
REMARK VINA RESULT:      -7.4      3.724      7.728
REMARK  6 active torsions:
REMARK  status: ('A' for Active; 'I' for Inactive)
REMARK    1  A    between atoms: C4_5  and  N2_6 
REMARK    2  A    between atoms: C6_9  and  C7_10 
REMARK    3  A    between atoms: C9_12  and  O1_13 
REMARK       I    between atoms: N4_15  and  C11_16 
REMARK    4  A    between atoms: C11_16  and  C12_18 
REMARK    5  A    between atoms: C13_19  and  C14_20 
REMARK    6  A    between atoms: C18_24  and  O3_25 
ROOT
HETATM    1  C1  UNL     1      29.128  -0.511  54.011  1.00  0.00     0.039 C 
HETATM    2  C2  UNL     1      28.104   0.113  53.758  1.00  0.00     0.024 C 
HETATM    3  N1  UNL     1      26.921   0.810  53.478  1.00  0.00    -0.200 N 
HETATM    4  C3  UNL     1      25.966   0.465  52.588  1.00  0.00     0.162 A 
HETATM    5  C4  UNL     1      24.939   1.417  52.597  1.00  0.00     0.097 A 
HETATM    6  C21 UNL     1      25.348   2.345  53.551  1.00  0.00     0.173 A 
HETATM    7  N6  UNL     1      26.534   1.953  54.055  1.00  0.00    -0.170 NA
ENDROOT
BRANCH   5   8
HETATM    8  N2  UNL     1      23.769   1.369  51.781  1.00  0.00    -0.225 N 
HETATM    9  C5  UNL     1      23.549   2.153  50.703  1.00  0.00     0.235 C 
HETATM   10  N3  UNL     1      22.468   2.936  50.449  1.00  0.00    -0.246 NA
HETATM   11  C6  UNL     1      22.009   3.881  51.261  1.00  0.00     0.044 C 
HETATM   12  C17 UNL     1      21.626   3.260  52.422  1.00  0.00     0.064 C 
HETATM   13  C18 UNL     1      20.789   2.204  52.717  1.00  0.00     0.069 C 
HETATM   14  C19 UNL     1      21.023   0.907  53.132  1.00  0.00     0.057 C 
HETATM   15  C20 UNL     1      22.352   0.688  53.428  1.00  0.00     0.142 C 
HETATM   16  N5  UNL     1      22.952   0.450  52.243  1.00  0.00    -0.179 NA
BRANCH  11  17
HETATM   17  C7  UNL     1      21.844   5.357  51.161  1.00  0.00     0.060 C 
HETATM   18  C8  UNL     1      21.483   5.643  49.723  1.00  0.00     0.066 C 
HETATM   19  C9  UNL     1      21.930   7.089  49.609  1.00  0.00     0.226 C 
HETATM   20  N4  UNL     1      23.243   7.017  50.253  1.00  0.00    -0.321 N 
HETATM   21  C11 UNL     1      24.417   7.722  49.848  1.00  0.00     0.245 C 
HETATM   22  C16 UNL     1      23.110   6.104  51.362  1.00  0.00     0.139 C 
HETATM   23  O2  UNL     1      25.447   7.494  50.567  1.00  0.00    -0.268 OA
BRANCH  19  24
HETATM   24  O1  UNL     1      21.081   7.954  50.254  1.00  0.00    -0.371 OA
HETATM   25  C10 UNL     1      20.096   8.394  49.399  1.00  0.00     0.204 C 
ENDBRANCH  19  24
BRANCH  21  26
HETATM   26  C12 UNL     1      24.412   8.622  48.703  1.00  0.00     0.070 C 
HETATM   27  C13 UNL     1      25.297   8.786  47.742  1.00  0.00    -0.022 C 
BRANCH  27  28
HETATM   28  C14 UNL     1      26.566   8.430  47.118  1.00  0.00     0.023 C 
HETATM   29  C15 UNL     1      27.271   7.245  47.761  1.00  0.00     0.009 C 
ENDBRANCH  27  28
ENDBRANCH  21  26
ENDBRANCH  11  17
BRANCH  13  30
HETATM   30  O3  UNL     1      19.636   2.930  52.443  1.00  0.00    -0.361 OA
HETATM   31  H21 UNL     1      18.852   2.441  52.012  1.00  0.00     0.217 HD
ENDBRANCH  13  30
ENDBRANCH   5   8
TORSDOF 6
ENDMDL
MODEL 6
REMARK VINA RESULT:      -7.2      3.084      6.311
REMARK  6 active torsions:
REMARK  status: ('A' for Active; 'I' for Inactive)
REMARK    1  A    between atoms: C4_5  and  N2_6 
REMARK    2  A    between atoms: C6_9  and  C7_10 
REMARK    3  A    between atoms: C9_12  and  O1_13 
REMARK       I    between atoms: N4_15  and  C11_16 
REMARK    4  A    between atoms: C11_16  and  C12_18 
REMARK    5  A    between atoms: C13_19  and  C14_20 
REMARK    6  A    between atoms: C18_24  and  O3_25 
ROOT
HETATM    1  C1  UNL     1      18.888   3.244  46.387  1.00  0.00     0.039 C 
HETATM    2  C2  UNL     1      19.870   3.959  46.546  1.00  0.00     0.024 C 
HETATM    3  N1  UNL     1      21.006   4.761  46.721  1.00  0.00    -0.200 N 
HETATM    4  C3  UNL     1      21.959   4.623  47.667  1.00  0.00     0.162 A 
HETATM    5  C4  UNL     1      22.932   5.618  47.513  1.00  0.00     0.097 A 
HETATM    6  C21 UNL     1      22.493   6.353  46.414  1.00  0.00     0.173 A 
HETATM    7  N6  UNL     1      21.342   5.814  45.967  1.00  0.00    -0.170 NA
ENDROOT
BRANCH   5   8
HETATM    8  N2  UNL     1      24.085   5.773  48.340  1.00  0.00    -0.225 N 
HETATM    9  C5  UNL     1      24.823   4.754  48.833  1.00  0.00     0.235 C 
HETATM   10  N3  UNL     1      25.170   4.526  50.127  1.00  0.00    -0.246 NA
HETATM   11  C6  UNL     1      24.312   4.425  51.134  1.00  0.00     0.044 C 
HETATM   12  C17 UNL     1      23.669   5.631  51.236  1.00  0.00     0.064 C 
HETATM   13  C18 UNL     1      24.091   6.939  51.356  1.00  0.00     0.069 C 
HETATM   14  C19 UNL     1      24.097   8.008  50.481  1.00  0.00     0.057 C 
HETATM   15  C20 UNL     1      23.427   7.726  49.310  1.00  0.00     0.142 C 
HETATM   16  N5  UNL     1      24.308   7.052  48.541  1.00  0.00    -0.179 NA
BRANCH  11  17
HETATM   17  C7  UNL     1      23.946   3.346  52.093  1.00  0.00     0.060 C 
HETATM   18  C8  UNL     1      23.937   2.062  51.298  1.00  0.00     0.066 C 
HETATM   19  C9  UNL     1      23.013   1.215  52.153  1.00  0.00     0.226 C 
HETATM   20  N4  UNL     1      21.933   2.169  52.410  1.00  0.00    -0.321 N 
HETATM   21  C11 UNL     1      20.538   1.866  52.463  1.00  0.00     0.245 C 
HETATM   22  C16 UNL     1      22.555   3.457  52.599  1.00  0.00     0.139 C 
HETATM   23  O2  UNL     1      19.786   2.870  52.702  1.00  0.00    -0.268 OA
BRANCH  19  24
HETATM   24  O1  UNL     1      23.615   0.785  53.310  1.00  0.00    -0.371 OA
HETATM   25  C10 UNL     1      23.585  -0.588  53.390  1.00  0.00     0.204 C 
ENDBRANCH  19  24
BRANCH  21  26
HETATM   26  C12 UNL     1      20.042   0.513  52.257  1.00  0.00     0.070 C 
HETATM   27  C13 UNL     1      19.061   0.069  51.498  1.00  0.00    -0.022 C 
BRANCH  27  28
HETATM   28  C14 UNL     1      17.984   0.323  50.549  1.00  0.00     0.023 C 
HETATM   29  C15 UNL     1      18.127   1.622  49.770  1.00  0.00     0.009 C 
ENDBRANCH  27  28
ENDBRANCH  21  26
ENDBRANCH  11  17
BRANCH  13  30
HETATM   30  O3  UNL     1      24.501   6.776  52.674  1.00  0.00    -0.361 OA
HETATM   31  H21 UNL     1      25.071   5.961  52.901  1.00  0.00     0.217 HD
ENDBRANCH  13  30
ENDBRANCH   5   8
TORSDOF 6
ENDMDL
MODEL 7
REMARK VINA RESULT:      -7.2     11.138     12.905
REMARK  6 active torsions:
REMARK  status: ('A' for Active; 'I' for Inactive)
REMARK    1  A    between atoms: C4_5  and  N2_6 
REMARK    2  A    between atoms: C6_9  and  C7_10 
REMARK    3  A    between atoms: C9_12  and  O1_13 
REMARK       I    between atoms: N4_15  and  C11_16 
REMARK    4  A    between atoms: C11_16  and  C12_18 
REMARK    5  A    between atoms: C13_19  and  C14_20 
REMARK    6  A    between atoms: C18_24  and  O3_25 
ROOT
HETATM    1  C1  UNL     1      27.261  17.242  45.073  1.00  0.00     0.039 C 
HETATM    2  C2  UNL     1      27.821  16.241  45.506  1.00  0.00     0.024 C 
HETATM    3  N1  UNL     1      28.442  15.087  46.002  1.00  0.00    -0.200 N 
HETATM    4  C3  UNL     1      28.367  14.601  47.260  1.00  0.00     0.162 A 
HETATM    5  C4  UNL     1      29.125  13.429  47.365  1.00  0.00     0.097 A 
HETATM    6  C21 UNL     1      29.653  13.253  46.089  1.00  0.00     0.173 A 
HETATM    7  N6  UNL     1      29.225  14.260  45.302  1.00  0.00    -0.170 NA
ENDROOT
BRANCH   5   8
HETATM    8  N2  UNL     1      29.270  12.650  48.552  1.00  0.00    -0.225 N 
HETATM    9  C5  UNL     1      30.453  12.260  49.079  1.00  0.00     0.235 C 
HETATM   10  N3  UNL     1      30.841  11.002  49.414  1.00  0.00    -0.246 NA
HETATM   11  C6  UNL     1      30.839   9.963  48.588  1.00  0.00     0.044 C 
HETATM   12  C17 UNL     1      29.537   9.752  48.213  1.00  0.00     0.064 C 
HETATM   13  C18 UNL     1      28.355   9.568  48.901  1.00  0.00     0.069 C 
HETATM   14  C19 UNL     1      27.249  10.371  49.099  1.00  0.00     0.057 C 
HETATM   15  C20 UNL     1      27.301  11.525  48.346  1.00  0.00     0.142 C 
HETATM   16  N5  UNL     1      28.082  12.377  49.042  1.00  0.00    -0.179 NA
BRANCH  11  17
HETATM   17  C7  UNL     1      31.887   9.060  48.038  1.00  0.00     0.060 C 
HETATM   18  C8  UNL     1      31.361   8.563  46.713  1.00  0.00     0.066 C 
HETATM   19  C9  UNL     1      32.153   7.276  46.568  1.00  0.00     0.226 C 
HETATM   20  N4  UNL     1      32.002   6.713  47.911  1.00  0.00    -0.321 N 
HETATM   21  C11 UNL     1      31.826   5.332  48.228  1.00  0.00     0.245 C 
HETATM   22  C16 UNL     1      32.070   7.820  48.833  1.00  0.00     0.139 C 
HETATM   23  O2  UNL     1      31.714   5.085  49.476  1.00  0.00    -0.268 OA
BRANCH  19  24
HETATM   24  O1  UNL     1      33.468   7.503  46.243  1.00  0.00    -0.371 OA
HETATM   25  C10 UNL     1      33.691   7.236  44.911  1.00  0.00     0.204 C 
ENDBRANCH  19  24
BRANCH  21  26
HETATM   26  C12 UNL     1      31.780   4.310  47.193  1.00  0.00     0.070 C 
HETATM   27  C13 UNL     1      32.732   3.537  46.713  1.00  0.00    -0.022 C 
BRANCH  27  28
HETATM   28  C14 UNL     1      34.124   3.102  46.706  1.00  0.00     0.023 C 
HETATM   29  C15 UNL     1      34.983   3.761  45.637  1.00  0.00     0.009 C 
ENDBRANCH  27  28
ENDBRANCH  21  26
ENDBRANCH  11  17
BRANCH  13  30
HETATM   30  O3  UNL     1      28.696   8.285  49.312  1.00  0.00    -0.361 OA
HETATM   31  H21 UNL     1      28.127   7.508  48.978  1.00  0.00     0.217 HD
ENDBRANCH  13  30
ENDBRANCH   5   8
TORSDOF 6
ENDMDL
MODEL 8
REMARK VINA RESULT:      -7.1      6.231      8.799
REMARK  6 active torsions:
REMARK  status: ('A' for Active; 'I' for Inactive)
REMARK    1  A    between atoms: C4_5  and  N2_6 
REMARK    2  A    between atoms: C6_9  and  C7_10 
REMARK    3  A    between atoms: C9_12  and  O1_13 
REMARK       I    between atoms: N4_15  and  C11_16 
REMARK    4  A    between atoms: C11_16  and  C12_18 
REMARK    5  A    between atoms: C13_19  and  C14_20 
REMARK    6  A    between atoms: C18_24  and  O3_25 
ROOT
HETATM    1  C1  UNL     1      31.320   7.717  45.448  1.00  0.00     0.039 C 
HETATM    2  C2  UNL     1      30.659   8.280  46.313  1.00  0.00     0.024 C 
HETATM    3  N1  UNL     1      29.906   8.906  47.315  1.00  0.00    -0.200 N 
HETATM    4  C3  UNL     1      28.676   8.553  47.748  1.00  0.00     0.162 A 
HETATM    5  C4  UNL     1      28.258   9.423  48.762  1.00  0.00     0.097 A 
HETATM    6  C21 UNL     1      29.320  10.313  48.901  1.00  0.00     0.173 A 
HETATM    7  N6  UNL     1      30.285   9.976  48.023  1.00  0.00    -0.170 NA
ENDROOT
BRANCH   5   8
HETATM    8  N2  UNL     1      27.009   9.344  49.448  1.00  0.00    -0.225 N 
HETATM    9  C5  UNL     1      26.654   8.349  50.290  1.00  0.00     0.235 C 
HETATM   10  N3  UNL     1      25.531   7.584  50.250  1.00  0.00    -0.246 NA
HETATM   11  C6  UNL     1      25.139   6.870  49.202  1.00  0.00     0.044 C 
HETATM   12  C17 UNL     1      24.899   7.754  48.181  1.00  0.00     0.064 C 
HETATM   13  C18 UNL     1      24.127   8.890  48.054  1.00  0.00     0.069 C 
HETATM   14  C19 UNL     1      24.438  10.233  47.972  1.00  0.00     0.057 C 
HETATM   15  C20 UNL     1      25.796  10.447  47.867  1.00  0.00     0.142 C 
HETATM   16  N5  UNL     1      26.271  10.383  49.129  1.00  0.00    -0.179 NA
BRANCH  11  17
HETATM   17  C7  UNL     1      24.926   5.419  48.945  1.00  0.00     0.060 C 
HETATM   18  C8  UNL     1      23.737   5.014  49.782  1.00  0.00     0.066 C 
HETATM   19  C9  UNL     1      23.991   3.524  49.920  1.00  0.00     0.226 C 
HETATM   20  N4  UNL     1      25.418   3.524  50.250  1.00  0.00    -0.321 N 
HETATM   21  C11 UNL     1      26.066   2.652  51.177  1.00  0.00     0.245 C 
HETATM   22  C16 UNL     1      26.026   4.564  49.457  1.00  0.00     0.139 C 
HETATM   23  O2  UNL     1      27.322   2.846  51.298  1.00  0.00    -0.268 OA
BRANCH  19  24
HETATM   24  O1  UNL     1      23.724   2.837  48.762  1.00  0.00    -0.371 OA
HETATM   25  C10 UNL     1      22.481   2.249  48.822  1.00  0.00     0.204 C 
ENDBRANCH  19  24
BRANCH  21  26
HETATM   26  C12 UNL     1      25.328   1.635  51.913  1.00  0.00     0.070 C 
HETATM   27  C13 UNL     1      25.696   0.435  52.313  1.00  0.00    -0.022 C 
BRANCH  27  28
HETATM   28  C14 UNL     1      26.707  -0.613  52.402  1.00  0.00     0.023 C 
HETATM   29  C15 UNL     1      27.914  -0.249  53.253  1.00  0.00     0.009 C 
ENDBRANCH  27  28
ENDBRANCH  21  26
ENDBRANCH  11  17
BRANCH  13  30
HETATM   30  O3  UNL     1      22.933   8.179  48.039  1.00  0.00    -0.361 OA
HETATM   31  H21 UNL     1      22.893   7.321  47.489  1.00  0.00     0.217 HD
ENDBRANCH  13  30
ENDBRANCH   5   8
TORSDOF 6
ENDMDL
MODEL 9
REMARK VINA RESULT:      -7.1      2.573      3.546
REMARK  6 active torsions:
REMARK  status: ('A' for Active; 'I' for Inactive)
REMARK    1  A    between atoms: C4_5  and  N2_6 
REMARK    2  A    between atoms: C6_9  and  C7_10 
REMARK    3  A    between atoms: C9_12  and  O1_13 
REMARK       I    between atoms: N4_15  and  C11_16 
REMARK    4  A    between atoms: C11_16  and  C12_18 
REMARK    5  A    between atoms: C13_19  and  C14_20 
REMARK    6  A    between atoms: C18_24  and  O3_25 
ROOT
HETATM    1  C1  UNL     1      21.539   6.399  43.206  1.00  0.00     0.039 C 
HETATM    2  C2  UNL     1      21.637   5.852  44.298  1.00  0.00     0.024 C 
HETATM    3  N1  UNL     1      21.728   5.230  45.551  1.00  0.00    -0.200 N 
HETATM    4  C3  UNL     1      21.693   5.830  46.760  1.00  0.00     0.162 A 
HETATM    5  C4  UNL     1      21.813   4.871  47.773  1.00  0.00     0.097 A 
HETATM    6  C21 UNL     1      21.920   3.665  47.084  1.00  0.00     0.173 A 
HETATM    7  N6  UNL     1      21.865   3.916  45.762  1.00  0.00    -0.170 NA
ENDROOT
BRANCH   5   8
HETATM    8  N2  UNL     1      21.815   5.152  49.172  1.00  0.00    -0.225 N 
HETATM    9  C5  UNL     1      22.874   4.973  49.993  1.00  0.00     0.235 C 
HETATM   10  N3  UNL     1      22.917   4.275  51.158  1.00  0.00    -0.246 NA
HETATM   11  C6  UNL     1      22.567   3.001  51.291  1.00  0.00     0.044 C 
HETATM   12  C17 UNL     1      21.236   2.915  50.974  1.00  0.00     0.064 C 
HETATM   13  C18 UNL     1      20.100   3.566  51.409  1.00  0.00     0.069 C 
HETATM   14  C19 UNL     1      19.278   4.512  50.827  1.00  0.00     0.057 C 
HETATM   15  C20 UNL     1      19.600   4.738  49.505  1.00  0.00     0.142 C 
HETATM   16  N5  UNL     1      20.634   5.605  49.527  1.00  0.00    -0.179 NA
BRANCH  11  17
HETATM   17  C7  UNL     1      23.282   1.756  51.685  1.00  0.00     0.060 C 
HETATM   18  C8  UNL     1      23.274   1.727  53.195  1.00  0.00     0.066 C 
HETATM   19  C9  UNL     1      24.472   0.835  53.460  1.00  0.00     0.226 C 
HETATM   20  N4  UNL     1      25.449   1.413  52.535  1.00  0.00    -0.321 N 
HETATM   21  C11 UNL     1      26.846   1.580  52.784  1.00  0.00     0.245 C 
HETATM   22  C16 UNL     1      24.725   1.772  51.340  1.00  0.00     0.139 C 
HETATM   23  O2  UNL     1      27.495   2.113  51.822  1.00  0.00    -0.268 OA
BRANCH  19  24
HETATM   24  O1  UNL     1      24.215  -0.486  53.186  1.00  0.00    -0.371 OA
HETATM   25  C10 UNL     1      23.480  -1.057  54.200  1.00  0.00     0.204 C 
ENDBRANCH  19  24
BRANCH  21  26
HETATM   26  C12 UNL     1      27.453   1.167  54.041  1.00  0.00     0.070 C 
HETATM   27  C13 UNL     1      28.517   0.427  54.273  1.00  0.00    -0.022 C 
BRANCH  27  28
HETATM   28  C14 UNL     1      29.641  -0.361  53.779  1.00  0.00     0.023 C 
HETATM   29  C15 UNL     1      29.261  -1.739  53.259  1.00  0.00     0.009 C 
ENDBRANCH  27  28
ENDBRANCH  21  26
ENDBRANCH  11  17
BRANCH  13  30
HETATM   30  O3  UNL     1      20.095   2.917  52.638  1.00  0.00    -0.361 OA
HETATM   31  H21 UNL     1      19.984   1.903  52.643  1.00  0.00     0.217 HD
ENDBRANCH  13  30
ENDBRANCH   5   8
TORSDOF 6
ENDMDL
