MODEL 1
REMARK VINA RESULT:      -7.7      0.000      0.000
REMARK  7 active torsions:
REMARK  status: ('A' for Active; 'I' for Inactive)
REMARK    1  A    between atoms: C1_2  and  C2_3 
REMARK    2  A    between atoms: C1_2  and  O3_12 
REMARK    3  A    between atoms: C2_3  and  C3_4 
REMARK    4  A    between atoms: C3_4  and  C4_5 
REMARK    5  A    between atoms: C7_8  and  O2_9 
REMARK    6  A    between atoms: O3_12  and  C10_13 
REMARK    7  A    between atoms: C14_18  and  O5_19 
ROOT
HETATM    1  O1  UNL     1      24.374   2.953  52.916  1.00  0.00    -0.265 OA
HETATM    2  C1  UNL     1      24.775   1.763  52.972  1.00  0.00     0.264 C 
ENDROOT
BRANCH   2   3
HETATM    3  C2  UNL     1      25.954   2.139  53.794  1.00  0.00     0.116 C 
BRANCH   3   4
HETATM    4  C3  UNL     1      27.181   1.787  52.999  1.00  0.00     0.048 C 
BRANCH   4   5
HETATM    5  C4  UNL     1      27.511   0.370  52.996  1.00  0.00    -0.058 A 
HETATM    6  C5  UNL     1      28.752  -0.031  53.487  1.00  0.00     0.010 A 
HETATM    7  C6  UNL     1      29.165  -1.348  53.528  1.00  0.00     0.037 A 
HETATM    8  C7  UNL     1      28.305  -2.319  53.062  1.00  0.00     0.065 A 
HETATM    9  C8  UNL     1      27.043  -1.995  52.556  1.00  0.00     0.037 A 
HETATM   10  C9  UNL     1      26.708  -0.660  52.548  1.00  0.00     0.010 A 
BRANCH   8  11
HETATM   11  O2  UNL     1      28.669  -3.659  53.082  1.00  0.00    -0.361 OA
HETATM   12  H7  UNL     1      29.566  -3.910  53.525  1.00  0.00     0.217 HD
ENDBRANCH   8  11
ENDBRANCH   4   5
ENDBRANCH   3   4
ENDBRANCH   2   3
BRANCH   2  13
HETATM   13  O3  UNL     1      23.723   1.287  52.213  1.00  0.00    -0.277 OA
BRANCH  13  14
HETATM   14  C10 UNL     1      22.679   0.594  52.762  1.00  0.00     0.103 C 
HETATM   15  C11 UNL     1      21.429   0.534  52.275  1.00  0.00     0.172 C 
HETATM   16  O4  UNL     1      20.328  -0.157  52.795  1.00  0.00    -0.360 OA
HETATM   17  C12 UNL     1      20.223  -0.818  54.047  1.00  0.00     0.181 C 
HETATM   18  C13 UNL     1      21.308  -1.857  54.224  1.00  0.00     0.091 C 
HETATM   19  C14 UNL     1      22.564  -1.137  54.637  1.00  0.00     0.048 C 
HETATM   20  C15 UNL     1      23.118  -0.100  53.992  1.00  0.00     0.071 C 
BRANCH  19  21
HETATM   21  O5  UNL     1      23.196  -1.595  55.786  1.00  0.00    -0.365 OA
HETATM   22  H15 UNL     1      22.617  -1.750  56.610  1.00  0.00     0.217 HD
ENDBRANCH  19  21
ENDBRANCH  13  14
ENDBRANCH   2  13
TORSDOF 7
ENDMDL
MODEL 2
REMARK VINA RESULT:      -7.7      2.068      5.898
REMARK  7 active torsions:
REMARK  status: ('A' for Active; 'I' for Inactive)
REMARK    1  A    between atoms: C1_2  and  C2_3 
REMARK    2  A    between atoms: C1_2  and  O3_12 
REMARK    3  A    between atoms: C2_3  and  C3_4 
REMARK    4  A    between atoms: C3_4  and  C4_5 
REMARK    5  A    between atoms: C7_8  and  O2_9 
REMARK    6  A    between atoms: O3_12  and  C10_13 
REMARK    7  A    between atoms: C14_18  and  O5_19 
ROOT
HETATM    1  O1  UNL     1      25.646   3.134  50.085  1.00  0.00    -0.265 OA
HETATM    2  C1  UNL     1      25.559   2.449  51.136  1.00  0.00     0.264 C 
ENDROOT
BRANCH   2   3
HETATM    3  C2  UNL     1      24.100   2.241  50.948  1.00  0.00     0.116 C 
BRANCH   3   4
HETATM    4  C3  UNL     1      23.433   2.560  52.257  1.00  0.00     0.048 C 
BRANCH   4   5
HETATM    5  C4  UNL     1      22.825   1.416  52.918  1.00  0.00    -0.058 A 
HETATM    6  C5  UNL     1      21.440   1.392  53.078  1.00  0.00     0.010 A 
HETATM    7  C6  UNL     1      20.763   0.357  53.691  1.00  0.00     0.037 A 
HETATM    8  C7  UNL     1      21.493  -0.712  54.169  1.00  0.00     0.065 A 
HETATM    9  C8  UNL     1      22.884  -0.759  54.044  1.00  0.00     0.037 A 
HETATM   10  C9  UNL     1      23.483   0.312  53.422  1.00  0.00     0.010 A 
BRANCH   8  11
HETATM   11  O2  UNL     1      20.862  -1.780  54.792  1.00  0.00    -0.361 OA
HETATM   12  H7  UNL     1      21.332  -2.215  55.601  1.00  0.00     0.217 HD
ENDBRANCH   8  11
ENDBRANCH   4   5
ENDBRANCH   3   4
ENDBRANCH   2   3
BRANCH   2  13
HETATM   13  O3  UNL     1      26.906   2.570  51.423  1.00  0.00    -0.277 OA
BRANCH  13  14
HETATM   14  C10 UNL     1      27.487   1.938  52.487  1.00  0.00     0.103 C 
HETATM   15  C11 UNL     1      28.321   2.499  53.379  1.00  0.00     0.172 C 
HETATM   16  O4  UNL     1      28.942   1.899  54.482  1.00  0.00    -0.360 OA
HETATM   17  C12 UNL     1      28.977   0.522  54.822  1.00  0.00     0.181 C 
HETATM   18  C13 UNL     1      27.586  -0.061  54.940  1.00  0.00     0.091 C 
HETATM   19  C14 UNL     1      27.096  -0.353  53.547  1.00  0.00     0.048 C 
HETATM   20  C15 UNL     1      27.068   0.520  52.529  1.00  0.00     0.071 C 
BRANCH  19  21
HETATM   21  O5  UNL     1      26.635  -1.640  53.305  1.00  0.00    -0.365 OA
HETATM   22  H15 UNL     1      26.913  -2.369  53.960  1.00  0.00     0.217 HD
ENDBRANCH  19  21
ENDBRANCH  13  14
ENDBRANCH   2  13
TORSDOF 7
ENDMDL
MODEL 3
REMARK VINA RESULT:      -7.3      3.926      6.789
REMARK  7 active torsions:
REMARK  status: ('A' for Active; 'I' for Inactive)
REMARK    1  A    between atoms: C1_2  and  C2_3 
REMARK    2  A    between atoms: C1_2  and  O3_12 
REMARK    3  A    between atoms: C2_3  and  C3_4 
REMARK    4  A    between atoms: C3_4  and  C4_5 
REMARK    5  A    between atoms: C7_8  and  O2_9 
REMARK    6  A    between atoms: O3_12  and  C10_13 
REMARK    7  A    between atoms: C14_18  and  O5_19 
ROOT
HETATM    1  O1  UNL     1      23.578   1.691  51.731  1.00  0.00    -0.265 OA
HETATM    2  C1  UNL     1      24.479   2.326  52.335  1.00  0.00     0.264 C 
ENDROOT
BRANCH   2   3
HETATM    3  C2  UNL     1      24.375   3.475  51.399  1.00  0.00     0.116 C 
BRANCH   3   4
HETATM    4  C3  UNL     1      25.184   3.128  50.179  1.00  0.00     0.048 C 
BRANCH   4   5
HETATM    5  C4  UNL     1      25.823   4.266  49.537  1.00  0.00    -0.058 A 
HETATM    6  C5  UNL     1      27.155   4.153  49.143  1.00  0.00     0.010 A 
HETATM    7  C6  UNL     1      27.856   5.171  48.527  1.00  0.00     0.037 A 
HETATM    8  C7  UNL     1      27.204   6.363  48.286  1.00  0.00     0.065 A 
HETATM    9  C8  UNL     1      25.869   6.551  48.652  1.00  0.00     0.037 A 
HETATM   10  C9  UNL     1      25.242   5.488  49.262  1.00  0.00     0.010 A 
BRANCH   8  11
HETATM   11  O2  UNL     1      27.862   7.419  47.669  1.00  0.00    -0.361 OA
HETATM   12  H7  UNL     1      28.517   7.978  48.236  1.00  0.00     0.217 HD
ENDBRANCH   8  11
ENDBRANCH   4   5
ENDBRANCH   3   4
ENDBRANCH   2   3
BRANCH   2  13
HETATM   13  O3  UNL     1      24.672   1.326  53.270  1.00  0.00    -0.277 OA
BRANCH  13  14
HETATM   14  C10 UNL     1      25.913   0.976  53.722  1.00  0.00     0.103 C 
HETATM   15  C11 UNL     1      26.221  -0.146  54.395  1.00  0.00     0.172 C 
HETATM   16  O4  UNL     1      27.470  -0.552  54.879  1.00  0.00    -0.360 OA
HETATM   17  C12 UNL     1      28.675   0.198  54.926  1.00  0.00     0.181 C 
HETATM   18  C13 UNL     1      29.065   0.716  53.560  1.00  0.00     0.091 C 
HETATM   19  C14 UNL     1      28.237   1.943  53.285  1.00  0.00     0.048 C 
HETATM   20  C15 UNL     1      26.900   2.018  53.364  1.00  0.00     0.071 C 
BRANCH  19  21
HETATM   21  O5  UNL     1      28.926   3.091  52.920  1.00  0.00    -0.365 OA
HETATM   22  H15 UNL     1      28.376   3.921  52.706  1.00  0.00     0.217 HD
ENDBRANCH  19  21
ENDBRANCH  13  14
ENDBRANCH   2  13
TORSDOF 7
ENDMDL
MODEL 4
REMARK VINA RESULT:      -7.3      4.580      7.218
REMARK  7 active torsions:
REMARK  status: ('A' for Active; 'I' for Inactive)
REMARK    1  A    between atoms: C1_2  and  C2_3 
REMARK    2  A    between atoms: C1_2  and  O3_12 
REMARK    3  A    between atoms: C2_3  and  C3_4 
REMARK    4  A    between atoms: C3_4  and  C4_5 
REMARK    5  A    between atoms: C7_8  and  O2_9 
REMARK    6  A    between atoms: O3_12  and  C10_13 
REMARK    7  A    between atoms: C14_18  and  O5_19 
ROOT
HETATM    1  O1  UNL     1      24.014   2.366  50.442  1.00  0.00    -0.265 OA
HETATM    2  C1  UNL     1      25.089   2.582  51.059  1.00  0.00     0.264 C 
ENDROOT
BRANCH   2   3
HETATM    3  C2  UNL     1      25.319   3.854  50.326  1.00  0.00     0.116 C 
BRANCH   3   4
HETATM    4  C3  UNL     1      26.536   3.656  49.465  1.00  0.00     0.048 C 
BRANCH   4   5
HETATM    5  C4  UNL     1      27.060   4.877  48.873  1.00  0.00    -0.058 A 
HETATM    6  C5  UNL     1      26.194   5.953  48.678  1.00  0.00     0.010 A 
HETATM    7  C6  UNL     1      26.588   7.155  48.124  1.00  0.00     0.037 A 
HETATM    8  C7  UNL     1      27.906   7.303  47.746  1.00  0.00     0.065 A 
HETATM    9  C8  UNL     1      28.832   6.269  47.912  1.00  0.00     0.037 A 
HETATM   10  C9  UNL     1      28.361   5.103  48.470  1.00  0.00     0.010 A 
BRANCH   8  11
HETATM   11  O2  UNL     1      28.355   8.491  47.185  1.00  0.00    -0.361 OA
HETATM   12  H7  UNL     1      29.350   8.735  47.301  1.00  0.00     0.217 HD
ENDBRANCH   8  11
ENDBRANCH   4   5
ENDBRANCH   3   4
ENDBRANCH   2   3
BRANCH   2  13
HETATM   13  O3  UNL     1      24.989   1.423  51.805  1.00  0.00    -0.277 OA
BRANCH  13  14
HETATM   14  C10 UNL     1      25.962   1.030  52.681  1.00  0.00     0.103 C 
HETATM   15  C11 UNL     1      25.961  -0.101  53.406  1.00  0.00     0.172 C 
HETATM   16  O4  UNL     1      26.928  -0.549  54.315  1.00  0.00    -0.360 OA
HETATM   17  C12 UNL     1      28.052   0.158  54.814  1.00  0.00     0.181 C 
HETATM   18  C13 UNL     1      28.938   0.662  53.696  1.00  0.00     0.091 C 
HETATM   19  C14 UNL     1      28.312   1.917  53.149  1.00  0.00     0.048 C 
HETATM   20  C15 UNL     1      27.045   2.037  52.727  1.00  0.00     0.071 C 
BRANCH  19  21
HETATM   21  O5  UNL     1      29.124   3.040  53.080  1.00  0.00    -0.365 OA
HETATM   22  H15 UNL     1      29.228   3.489  52.171  1.00  0.00     0.217 HD
ENDBRANCH  19  21
ENDBRANCH  13  14
ENDBRANCH   2  13
TORSDOF 7
ENDMDL
MODEL 5
REMARK VINA RESULT:      -7.3      0.593      2.152
REMARK  7 active torsions:
REMARK  status: ('A' for Active; 'I' for Inactive)
REMARK    1  A    between atoms: C1_2  and  C2_3 
REMARK    2  A    between atoms: C1_2  and  O3_12 
REMARK    3  A    between atoms: C2_3  and  C3_4 
REMARK    4  A    between atoms: C3_4  and  C4_5 
REMARK    5  A    between atoms: C7_8  and  O2_9 
REMARK    6  A    between atoms: O3_12  and  C10_13 
REMARK    7  A    between atoms: C14_18  and  O5_19 
ROOT
HETATM    1  O1  UNL     1      24.541   3.153  53.161  1.00  0.00    -0.265 OA
HETATM    2  C1  UNL     1      24.963   1.978  53.014  1.00  0.00     0.264 C 
ENDROOT
BRANCH   2   3
HETATM    3  C2  UNL     1      26.263   2.304  53.657  1.00  0.00     0.116 C 
BRANCH   3   4
HETATM    4  C3  UNL     1      27.348   1.846  52.722  1.00  0.00     0.048 C 
BRANCH   4   5
HETATM    5  C4  UNL     1      27.743   0.457  52.892  1.00  0.00    -0.058 A 
HETATM    6  C5  UNL     1      26.854  -0.545  52.504  1.00  0.00     0.010 A 
HETATM    7  C6  UNL     1      27.129  -1.893  52.624  1.00  0.00     0.037 A 
HETATM    8  C7  UNL     1      28.346  -2.270  53.151  1.00  0.00     0.065 A 
HETATM    9  C8  UNL     1      29.288  -1.323  53.561  1.00  0.00     0.037 A 
HETATM   10  C9  UNL     1      28.938  -0.001  53.410  1.00  0.00     0.010 A 
BRANCH   8  11
HETATM   11  O2  UNL     1      28.673  -3.612  53.292  1.00  0.00    -0.361 OA
HETATM   12  H7  UNL     1      29.312  -4.029  52.599  1.00  0.00     0.217 HD
ENDBRANCH   8  11
ENDBRANCH   4   5
ENDBRANCH   3   4
ENDBRANCH   2   3
BRANCH   2  13
HETATM   13  O3  UNL     1      23.801   1.550  52.401  1.00  0.00    -0.277 OA
BRANCH  13  14
HETATM   14  C10 UNL     1      23.012   0.567  52.932  1.00  0.00     0.103 C 
HETATM   15  C11 UNL     1      23.338  -0.239  53.956  1.00  0.00     0.172 C 
HETATM   16  O4  UNL     1      22.572  -1.257  54.537  1.00  0.00    -0.360 OA
HETATM   17  C12 UNL     1      21.341  -1.795  54.076  1.00  0.00     0.181 C 
HETATM   18  C13 UNL     1      20.290  -0.720  53.908  1.00  0.00     0.091 C 
HETATM   19  C14 UNL     1      20.551  -0.029  52.597  1.00  0.00     0.048 C 
HETATM   20  C15 UNL     1      21.720   0.507  52.215  1.00  0.00     0.071 C 
BRANCH  19  21
HETATM   21  O5  UNL     1      19.484   0.057  51.713  1.00  0.00    -0.365 OA
HETATM   22  H15 UNL     1      19.470   0.845  51.068  1.00  0.00     0.217 HD
ENDBRANCH  19  21
ENDBRANCH  13  14
ENDBRANCH   2  13
TORSDOF 7
ENDMDL
MODEL 6
REMARK VINA RESULT:      -7.2      2.143      6.941
REMARK  7 active torsions:
REMARK  status: ('A' for Active; 'I' for Inactive)
REMARK    1  A    between atoms: C1_2  and  C2_3 
REMARK    2  A    between atoms: C1_2  and  O3_12 
REMARK    3  A    between atoms: C2_3  and  C3_4 
REMARK    4  A    between atoms: C3_4  and  C4_5 
REMARK    5  A    between atoms: C7_8  and  O2_9 
REMARK    6  A    between atoms: O3_12  and  C10_13 
REMARK    7  A    between atoms: C14_18  and  O5_19 
ROOT
HETATM    1  O1  UNL     1      24.348   2.378  50.874  1.00  0.00    -0.265 OA
HETATM    2  C1  UNL     1      24.271   1.490  51.761  1.00  0.00     0.264 C 
ENDROOT
BRANCH   2   3
HETATM    3  C2  UNL     1      22.893   1.902  52.135  1.00  0.00     0.116 C 
BRANCH   3   4
HETATM    4  C3  UNL     1      21.950   1.196  51.201  1.00  0.00     0.048 C 
BRANCH   4   5
HETATM    5  C4  UNL     1      20.822   0.554  51.857  1.00  0.00    -0.058 A 
HETATM    6  C5  UNL     1      20.969   0.121  53.174  1.00  0.00     0.010 A 
HETATM    7  C6  UNL     1      19.964  -0.500  53.888  1.00  0.00     0.037 A 
HETATM    8  C7  UNL     1      18.748  -0.703  53.268  1.00  0.00     0.065 A 
HETATM    9  C8  UNL     1      18.525  -0.296  51.949  1.00  0.00     0.037 A 
HETATM   10  C9  UNL     1      19.578   0.314  51.307  1.00  0.00     0.010 A 
BRANCH   8  11
HETATM   11  O2  UNL     1      17.703  -1.321  53.940  1.00  0.00    -0.361 OA
HETATM   12  H7  UNL     1      17.938  -2.000  54.680  1.00  0.00     0.217 HD
ENDBRANCH   8  11
ENDBRANCH   4   5
ENDBRANCH   3   4
ENDBRANCH   2   3
BRANCH   2  13
HETATM   13  O3  UNL     1      25.543   1.012  51.508  1.00  0.00    -0.277 OA
BRANCH  13  14
HETATM   14  C10 UNL     1      26.435   0.737  52.507  1.00  0.00     0.103 C 
HETATM   15  C11 UNL     1      26.429  -0.353  53.292  1.00  0.00     0.172 C 
HETATM   16  O4  UNL     1      27.314  -0.682  54.326  1.00  0.00    -0.360 OA
HETATM   17  C12 UNL     1      28.322   0.132  54.905  1.00  0.00     0.181 C 
HETATM   18  C13 UNL     1      29.294   0.643  53.864  1.00  0.00     0.091 C 
HETATM   19  C14 UNL     1      28.649   1.819  53.180  1.00  0.00     0.048 C 
HETATM   20  C15 UNL     1      27.433   1.824  52.614  1.00  0.00     0.071 C 
BRANCH  19  21
HETATM   21  O5  UNL     1      29.385   2.996  53.135  1.00  0.00    -0.365 OA
HETATM   22  H15 UNL     1      29.527   3.494  54.012  1.00  0.00     0.217 HD
ENDBRANCH  19  21
ENDBRANCH  13  14
ENDBRANCH   2  13
TORSDOF 7
ENDMDL
MODEL 7
REMARK VINA RESULT:      -7.0      2.944      5.665
REMARK  7 active torsions:
REMARK  status: ('A' for Active; 'I' for Inactive)
REMARK    1  A    between atoms: C1_2  and  C2_3 
REMARK    2  A    between atoms: C1_2  and  O3_12 
REMARK    3  A    between atoms: C2_3  and  C3_4 
REMARK    4  A    between atoms: C3_4  and  C4_5 
REMARK    5  A    between atoms: C7_8  and  O2_9 
REMARK    6  A    between atoms: O3_12  and  C10_13 
REMARK    7  A    between atoms: C14_18  and  O5_19 
ROOT
HETATM    1  O1  UNL     1      27.738   1.677  52.454  1.00  0.00    -0.265 OA
HETATM    2  C1  UNL     1      26.827   1.549  51.597  1.00  0.00     0.264 C 
ENDROOT
BRANCH   2   3
HETATM    3  C2  UNL     1      26.491   0.183  52.074  1.00  0.00     0.116 C 
BRANCH   3   4
HETATM    4  C3  UNL     1      26.123   0.298  53.528  1.00  0.00     0.048 C 
BRANCH   4   5
HETATM    5  C4  UNL     1      24.775  -0.146  53.844  1.00  0.00    -0.058 A 
HETATM    6  C5  UNL     1      24.576  -0.924  54.984  1.00  0.00     0.010 A 
HETATM    7  C6  UNL     1      23.340  -1.398  55.375  1.00  0.00     0.037 A 
HETATM    8  C7  UNL     1      22.242  -1.086  54.600  1.00  0.00     0.065 A 
HETATM    9  C8  UNL     1      22.363  -0.310  53.443  1.00  0.00     0.037 A 
HETATM   10  C9  UNL     1      23.630   0.122  53.122  1.00  0.00     0.010 A 
BRANCH   8  11
HETATM   11  O2  UNL     1      20.976  -1.536  54.948  1.00  0.00    -0.361 OA
HETATM   12  H7  UNL     1      20.859  -1.988  55.868  1.00  0.00     0.217 HD
ENDBRANCH   8  11
ENDBRANCH   4   5
ENDBRANCH   3   4
ENDBRANCH   2   3
BRANCH   2  13
HETATM   13  O3  UNL     1      27.042   2.805  51.062  1.00  0.00    -0.277 OA
BRANCH  13  14
HETATM   14  C10 UNL     1      26.065   3.497  50.402  1.00  0.00     0.103 C 
HETATM   15  C11 UNL     1      26.259   4.511  49.542  1.00  0.00     0.172 C 
HETATM   16  O4  UNL     1      25.298   5.251  48.843  1.00  0.00    -0.360 OA
HETATM   17  C12 UNL     1      23.888   5.223  49.002  1.00  0.00     0.181 C 
HETATM   18  C13 UNL     1      23.334   3.826  48.835  1.00  0.00     0.091 C 
HETATM   19  C14 UNL     1      23.558   3.090  50.129  1.00  0.00     0.048 C 
HETATM   20  C15 UNL     1      24.732   2.970  50.767  1.00  0.00     0.071 C 
BRANCH  19  21
HETATM   21  O5  UNL     1      22.448   2.486  50.703  1.00  0.00    -0.365 OA
HETATM   22  H15 UNL     1      21.577   2.502  50.174  1.00  0.00     0.217 HD
ENDBRANCH  19  21
ENDBRANCH  13  14
ENDBRANCH   2  13
TORSDOF 7
ENDMDL
MODEL 8
REMARK VINA RESULT:      -7.0      3.776      6.098
REMARK  7 active torsions:
REMARK  status: ('A' for Active; 'I' for Inactive)
REMARK    1  A    between atoms: C1_2  and  C2_3 
REMARK    2  A    between atoms: C1_2  and  O3_12 
REMARK    3  A    between atoms: C2_3  and  C3_4 
REMARK    4  A    between atoms: C3_4  and  C4_5 
REMARK    5  A    between atoms: C7_8  and  O2_9 
REMARK    6  A    between atoms: O3_12  and  C10_13 
REMARK    7  A    between atoms: C14_18  and  O5_19 
ROOT
HETATM    1  O1  UNL     1      24.627   2.076  51.391  1.00  0.00    -0.265 OA
HETATM    2  C1  UNL     1      25.372   3.026  51.038  1.00  0.00     0.264 C 
ENDROOT
BRANCH   2   3
HETATM    3  C2  UNL     1      26.585   2.170  51.092  1.00  0.00     0.116 C 
BRANCH   3   4
HETATM    4  C3  UNL     1      26.829   1.837  52.538  1.00  0.00     0.048 C 
BRANCH   4   5
HETATM    5  C4  UNL     1      27.360   0.502  52.767  1.00  0.00    -0.058 A 
HETATM    6  C5  UNL     1      26.601  -0.599  52.372  1.00  0.00     0.010 A 
HETATM    7  C6  UNL     1      27.010  -1.906  52.543  1.00  0.00     0.037 A 
HETATM    8  C7  UNL     1      28.235  -2.138  53.134  1.00  0.00     0.065 A 
HETATM    9  C8  UNL     1      29.052  -1.085  53.556  1.00  0.00     0.037 A 
HETATM   10  C9  UNL     1      28.571   0.188  53.350  1.00  0.00     0.010 A 
BRANCH   8  11
HETATM   11  O2  UNL     1      28.695  -3.433  53.329  1.00  0.00    -0.361 OA
HETATM   12  H7  UNL     1      29.655  -3.656  53.024  1.00  0.00     0.217 HD
ENDBRANCH   8  11
ENDBRANCH   4   5
ENDBRANCH   3   4
ENDBRANCH   2   3
BRANCH   2  13
HETATM   13  O3  UNL     1      24.324   3.923  50.949  1.00  0.00    -0.277 OA
BRANCH  13  14
HETATM   14  C10 UNL     1      24.517   5.253  50.698  1.00  0.00     0.103 C 
HETATM   15  C11 UNL     1      23.910   6.271  51.330  1.00  0.00     0.172 C 
HETATM   16  O4  UNL     1      24.071   7.645  51.113  1.00  0.00    -0.360 OA
HETATM   17  C12 UNL     1      24.780   8.287  50.064  1.00  0.00     0.181 C 
HETATM   18  C13 UNL     1      26.220   7.829  50.001  1.00  0.00     0.091 C 
HETATM   19  C14 UNL     1      26.245   6.502  49.291  1.00  0.00     0.048 C 
HETATM   20  C15 UNL     1      25.508   5.429  49.614  1.00  0.00     0.071 C 
BRANCH  19  21
HETATM   21  O5  UNL     1      27.109   6.389  48.210  1.00  0.00    -0.365 OA
HETATM   22  H15 UNL     1      27.911   5.771  48.313  1.00  0.00     0.217 HD
ENDBRANCH  19  21
ENDBRANCH  13  14
ENDBRANCH   2  13
TORSDOF 7
ENDMDL
MODEL 9
REMARK VINA RESULT:      -6.9      2.195      6.375
REMARK  7 active torsions:
REMARK  status: ('A' for Active; 'I' for Inactive)
REMARK    1  A    between atoms: C1_2  and  C2_3 
REMARK    2  A    between atoms: C1_2  and  O3_12 
REMARK    3  A    between atoms: C2_3  and  C3_4 
REMARK    4  A    between atoms: C3_4  and  C4_5 
REMARK    5  A    between atoms: C7_8  and  O2_9 
REMARK    6  A    between atoms: O3_12  and  C10_13 
REMARK    7  A    between atoms: C14_18  and  O5_19 
ROOT
HETATM    1  O1  UNL     1      23.850  -1.058  55.113  1.00  0.00    -0.265 OA
HETATM    2  C1  UNL     1      24.359  -0.861  53.980  1.00  0.00     0.264 C 
ENDROOT
BRANCH   2   3
HETATM    3  C2  UNL     1      23.025  -0.787  53.330  1.00  0.00     0.116 C 
BRANCH   3   4
HETATM    4  C3  UNL     1      22.558   0.639  53.438  1.00  0.00     0.048 C 
BRANCH   4   5
HETATM    5  C4  UNL     1      22.771   1.434  52.239  1.00  0.00    -0.058 A 
HETATM    6  C5  UNL     1      23.540   2.593  52.332  1.00  0.00     0.010 A 
HETATM    7  C6  UNL     1      23.803   3.420  51.257  1.00  0.00     0.037 A 
HETATM    8  C7  UNL     1      23.279   3.082  50.027  1.00  0.00     0.065 A 
HETATM    9  C8  UNL     1      22.498   1.935  49.856  1.00  0.00     0.037 A 
HETATM   10  C9  UNL     1      22.283   1.165  50.977  1.00  0.00     0.010 A 
BRANCH   8  11
HETATM   11  O2  UNL     1      23.513   3.877  48.913  1.00  0.00    -0.361 OA
HETATM   12  H7  UNL     1      23.031   4.787  48.858  1.00  0.00     0.217 HD
ENDBRANCH   8  11
ENDBRANCH   4   5
ENDBRANCH   3   4
ENDBRANCH   2   3
BRANCH   2  13
HETATM   13  O3  UNL     1      25.653  -0.910  54.463  1.00  0.00    -0.277 OA
BRANCH  13  14
HETATM   14  C10 UNL     1      26.564   0.080  54.217  1.00  0.00     0.103 C 
HETATM   15  C11 UNL     1      26.329   1.402  54.280  1.00  0.00     0.172 C 
HETATM   16  O4  UNL     1      27.221   2.453  54.039  1.00  0.00    -0.360 OA
HETATM   17  C12 UNL     1      28.535   2.380  53.506  1.00  0.00     0.181 C 
HETATM   18  C13 UNL     1      29.415   1.453  54.316  1.00  0.00     0.091 C 
HETATM   19  C14 UNL     1      29.098   0.042  53.896  1.00  0.00     0.048 C 
HETATM   20  C15 UNL     1      27.875  -0.508  53.866  1.00  0.00     0.071 C 
BRANCH  19  21
HETATM   21  O5  UNL     1      30.170  -0.749  53.508  1.00  0.00    -0.365 OA
HETATM   22  H15 UNL     1      30.302  -0.905  52.510  1.00  0.00     0.217 HD
ENDBRANCH  19  21
ENDBRANCH  13  14
ENDBRANCH   2  13
TORSDOF 7
ENDMDL
