MODEL 1
REMARK VINA RESULT:      -8.5      0.000      0.000
REMARK  6 active torsions:
REMARK  status: ('A' for Active; 'I' for Inactive)
REMARK    1  A    between atoms: C3_3  and  C4_4 
REMARK    2  A    between atoms: C4_4  and  C5_5 
REMARK    3  A    between atoms: C5_5  and  O1_7 
REMARK    4  A    between atoms: O1_7  and  N1_8 
REMARK    5  A    between atoms: N1_8  and  S1_9 
REMARK    6  A    between atoms: S1_9  and  C7_12 
ROOT
HETATM    1  O1  UNL     1      27.035   2.317  51.368  1.00  0.00    -0.286 OA
ENDROOT
BRANCH   1   2
HETATM    2  C5  UNL     1      26.155   3.237  50.835  1.00  0.00     0.146 C 
HETATM    3  C6  UNL     1      24.725   3.003  51.246  1.00  0.00     0.042 C 
BRANCH   2   4
HETATM    4  C4  UNL     1      26.194   3.309  49.345  1.00  0.00     0.072 C 
BRANCH   4   5
HETATM    5  C3  UNL     1      26.715   4.659  48.961  1.00  0.00    -0.051 A 
HETATM    6  C2  UNL     1      26.032   5.800  48.926  1.00  0.00    -0.040 A 
HETATM    7  C1  UNL     1      24.635   6.258  49.200  1.00  0.00     0.047 C 
HETATM    8  C15 UNL     1      26.943   6.908  48.486  1.00  0.00     0.222 A 
HETATM    9  C14 UNL     1      28.227   6.236  48.281  1.00  0.00     0.015 A 
HETATM   10  F1  UNL     1      26.442   7.489  47.355  1.00  0.00    -0.240 F 
HETATM   11  C13 UNL     1      28.092   4.948  48.553  1.00  0.00     0.006 A 
ENDBRANCH   4   5
ENDBRANCH   2   4
ENDBRANCH   1   2
BRANCH   1  12
HETATM   12  N1  UNL     1      27.937   2.797  52.218  1.00  0.00    -0.090 NA
HETATM   13  H10 UNL     1      28.881   2.624  51.803  1.00  0.00     0.173 HD
BRANCH  12  14
HETATM   14  S1  UNL     1      27.873   1.857  53.663  1.00  0.00     0.263 S 
HETATM   15  O2  UNL     1      28.976   2.296  54.595  1.00  0.00    -0.204 OA
HETATM   16  O3  UNL     1      26.555   2.072  54.387  1.00  0.00    -0.204 OA
BRANCH  14  17
HETATM   17  C7  UNL     1      28.009   0.142  53.355  1.00  0.00     0.076 A 
HETATM   18  C8  UNL     1      27.019  -0.705  52.904  1.00  0.00     0.025 A 
HETATM   19  C9  UNL     1      27.288  -2.041  52.710  1.00  0.00     0.002 A 
HETATM   20  C10 UNL     1      28.549  -2.559  52.962  1.00  0.00     0.000 A 
HETATM   21  C11 UNL     1      29.564  -1.744  53.414  1.00  0.00     0.002 A 
HETATM   22  C12 UNL     1      29.271  -0.407  53.601  1.00  0.00     0.025 A 
ENDBRANCH  14  17
ENDBRANCH  12  14
ENDBRANCH   1  12
TORSDOF 6
ENDMDL
MODEL 2
REMARK VINA RESULT:      -8.2      2.515      4.179
REMARK  6 active torsions:
REMARK  status: ('A' for Active; 'I' for Inactive)
REMARK    1  A    between atoms: C3_3  and  C4_4 
REMARK    2  A    between atoms: C4_4  and  C5_5 
REMARK    3  A    between atoms: C5_5  and  O1_7 
REMARK    4  A    between atoms: O1_7  and  N1_8 
REMARK    5  A    between atoms: N1_8  and  S1_9 
REMARK    6  A    between atoms: S1_9  and  C7_12 
ROOT
HETATM    1  O1  UNL     1      27.147   2.033  51.254  1.00  0.00    -0.286 OA
ENDROOT
BRANCH   1   2
HETATM    2  C5  UNL     1      26.080   2.583  50.571  1.00  0.00     0.146 C 
HETATM    3  C6  UNL     1      26.484   3.664  49.603  1.00  0.00     0.042 C 
BRANCH   2   4
HETATM    4  C4  UNL     1      25.024   3.144  51.464  1.00  0.00     0.072 C 
BRANCH   4   5
HETATM    5  C3  UNL     1      23.922   2.135  51.566  1.00  0.00    -0.051 A 
HETATM    6  C2  UNL     1      22.966   1.902  50.671  1.00  0.00    -0.040 A 
HETATM    7  C1  UNL     1      22.555   2.427  49.332  1.00  0.00     0.047 C 
HETATM    8  C15 UNL     1      22.072   0.807  51.178  1.00  0.00     0.222 A 
HETATM    9  C14 UNL     1      22.657   0.458  52.473  1.00  0.00     0.015 A 
HETATM   10  F1  UNL     1      20.788   1.269  51.262  1.00  0.00    -0.240 F 
HETATM   11  C13 UNL     1      23.715   1.221  52.692  1.00  0.00     0.006 A 
ENDBRANCH   4   5
ENDBRANCH   2   4
ENDBRANCH   1   2
BRANCH   1  12
HETATM   12  N1  UNL     1      27.679   2.789  52.208  1.00  0.00    -0.090 NA
HETATM   13  H10 UNL     1      28.669   2.987  51.934  1.00  0.00     0.173 HD
BRANCH  12  14
HETATM   14  S1  UNL     1      27.765   1.853  53.655  1.00  0.00     0.263 S 
HETATM   15  O2  UNL     1      28.943   2.313  54.481  1.00  0.00    -0.204 OA
HETATM   16  O3  UNL     1      26.517   2.049  54.498  1.00  0.00    -0.204 OA
BRANCH  14  17
HETATM   17  C7  UNL     1      27.901   0.140  53.339  1.00  0.00     0.076 A 
HETATM   18  C8  UNL     1      26.910  -0.705  52.882  1.00  0.00     0.025 A 
HETATM   19  C9  UNL     1      27.180  -2.041  52.683  1.00  0.00     0.002 A 
HETATM   20  C10 UNL     1      28.440  -2.560  52.934  1.00  0.00     0.000 A 
HETATM   21  C11 UNL     1      29.455  -1.748  53.391  1.00  0.00     0.002 A 
HETATM   22  C12 UNL     1      29.162  -0.412  53.584  1.00  0.00     0.025 A 
ENDBRANCH  14  17
ENDBRANCH  12  14
ENDBRANCH   1  12
TORSDOF 6
ENDMDL
MODEL 3
REMARK VINA RESULT:      -8.2      0.897      1.602
REMARK  6 active torsions:
REMARK  status: ('A' for Active; 'I' for Inactive)
REMARK    1  A    between atoms: C3_3  and  C4_4 
REMARK    2  A    between atoms: C4_4  and  C5_5 
REMARK    3  A    between atoms: C5_5  and  O1_7 
REMARK    4  A    between atoms: O1_7  and  N1_8 
REMARK    5  A    between atoms: N1_8  and  S1_9 
REMARK    6  A    between atoms: S1_9  and  C7_12 
ROOT
HETATM    1  O1  UNL     1      26.008   3.083  51.631  1.00  0.00    -0.286 OA
ENDROOT
BRANCH   1   2
HETATM    2  C5  UNL     1      25.634   3.668  50.437  1.00  0.00     0.146 C 
HETATM    3  C6  UNL     1      24.431   3.018  49.804  1.00  0.00     0.042 C 
BRANCH   2   4
HETATM    4  C4  UNL     1      26.724   3.695  49.418  1.00  0.00     0.072 C 
BRANCH   4   5
HETATM    5  C3  UNL     1      26.839   5.097  48.902  1.00  0.00    -0.051 A 
HETATM    6  C2  UNL     1      27.929   5.683  48.417  1.00  0.00    -0.040 A 
HETATM    7  C1  UNL     1      29.360   5.324  48.173  1.00  0.00     0.047 C 
HETATM    8  C15 UNL     1      27.595   7.090  48.014  1.00  0.00     0.222 A 
HETATM    9  C14 UNL     1      26.173   7.211  48.338  1.00  0.00     0.015 A 
HETATM   10  F1  UNL     1      28.390   7.963  48.703  1.00  0.00    -0.240 F 
HETATM   11  C13 UNL     1      25.744   6.068  48.846  1.00  0.00     0.006 A 
ENDBRANCH   4   5
ENDBRANCH   2   4
ENDBRANCH   1   2
BRANCH   1  12
HETATM   12  N1  UNL     1      27.301   2.810  51.766  1.00  0.00    -0.090 NA
HETATM   13  H10 UNL     1      27.548   2.098  51.040  1.00  0.00     0.173 HD
BRANCH  12  14
HETATM   14  S1  UNL     1      27.534   2.035  53.290  1.00  0.00     0.263 S 
HETATM   15  O2  UNL     1      28.707   2.667  53.999  1.00  0.00    -0.204 OA
HETATM   16  O3  UNL     1      26.315   2.217  54.178  1.00  0.00    -0.204 OA
BRANCH  14  17
HETATM   17  C7  UNL     1      27.797   0.314  53.134  1.00  0.00     0.076 A 
HETATM   18  C8  UNL     1      26.900  -0.628  52.675  1.00  0.00     0.025 A 
HETATM   19  C9  UNL     1      27.263  -1.955  52.613  1.00  0.00     0.002 A 
HETATM   20  C10 UNL     1      28.526  -2.368  53.008  1.00  0.00     0.000 A 
HETATM   21  C11 UNL     1      29.449  -1.457  53.473  1.00  0.00     0.002 A 
HETATM   22  C12 UNL     1      29.063  -0.131  53.526  1.00  0.00     0.025 A 
ENDBRANCH  14  17
ENDBRANCH  12  14
ENDBRANCH   1  12
TORSDOF 6
ENDMDL
MODEL 4
REMARK VINA RESULT:      -8.2      4.183      5.655
REMARK  6 active torsions:
REMARK  status: ('A' for Active; 'I' for Inactive)
REMARK    1  A    between atoms: C3_3  and  C4_4 
REMARK    2  A    between atoms: C4_4  and  C5_5 
REMARK    3  A    between atoms: C5_5  and  O1_7 
REMARK    4  A    between atoms: O1_7  and  N1_8 
REMARK    5  A    between atoms: N1_8  and  S1_9 
REMARK    6  A    between atoms: S1_9  and  C7_12 
ROOT
HETATM    1  O1  UNL     1      25.316   1.695  53.580  1.00  0.00    -0.286 OA
ENDROOT
BRANCH   1   2
HETATM    2  C5  UNL     1      24.659   2.262  52.506  1.00  0.00     0.146 C 
HETATM    3  C6  UNL     1      23.856   3.483  52.873  1.00  0.00     0.042 C 
BRANCH   2   4
HETATM    4  C4  UNL     1      23.750   1.316  51.795  1.00  0.00     0.072 C 
BRANCH   4   5
HETATM    5  C3  UNL     1      22.960   0.570  52.826  1.00  0.00    -0.051 A 
HETATM    6  C2  UNL     1      21.699   0.792  53.182  1.00  0.00    -0.040 A 
HETATM    7  C1  UNL     1      20.597   1.734  52.812  1.00  0.00     0.047 C 
HETATM    8  C15 UNL     1      21.307  -0.187  54.250  1.00  0.00     0.222 A 
HETATM    9  C14 UNL     1      22.518  -0.987  54.443  1.00  0.00     0.015 A 
HETATM   10  F1  UNL     1      20.915   0.492  55.370  1.00  0.00    -0.240 F 
HETATM   11  C13 UNL     1      23.462  -0.550  53.626  1.00  0.00     0.006 A 
ENDBRANCH   4   5
ENDBRANCH   2   4
ENDBRANCH   1   2
BRANCH   1  12
HETATM   12  N1  UNL     1      26.285   2.425  54.122  1.00  0.00    -0.090 NA
HETATM   13  H10 UNL     1      26.102   3.424  53.870  1.00  0.00     0.173 HD
BRANCH  12  14
HETATM   14  S1  UNL     1      27.772   2.007  53.354  1.00  0.00     0.263 S 
HETATM   15  O2  UNL     1      27.832   2.655  51.991  1.00  0.00    -0.204 OA
HETATM   16  O3  UNL     1      28.955   2.524  54.154  1.00  0.00    -0.204 OA
BRANCH  14  17
HETATM   17  C7  UNL     1      27.982   0.279  53.195  1.00  0.00     0.076 A 
HETATM   18  C8  UNL     1      27.061  -0.632  52.722  1.00  0.00     0.025 A 
HETATM   19  C9  UNL     1      27.382  -1.970  52.659  1.00  0.00     0.002 A 
HETATM   20  C10 UNL     1      28.627  -2.424  53.066  1.00  0.00     0.000 A 
HETATM   21  C11 UNL     1      29.573  -1.544  53.544  1.00  0.00     0.002 A 
HETATM   22  C12 UNL     1      29.229  -0.208  53.598  1.00  0.00     0.025 A 
ENDBRANCH  14  17
ENDBRANCH  12  14
ENDBRANCH   1  12
TORSDOF 6
ENDMDL
MODEL 5
REMARK VINA RESULT:      -8.0      2.590      4.003
REMARK  6 active torsions:
REMARK  status: ('A' for Active; 'I' for Inactive)
REMARK    1  A    between atoms: C3_3  and  C4_4 
REMARK    2  A    between atoms: C4_4  and  C5_5 
REMARK    3  A    between atoms: C5_5  and  O1_7 
REMARK    4  A    between atoms: O1_7  and  N1_8 
REMARK    5  A    between atoms: N1_8  and  S1_9 
REMARK    6  A    between atoms: S1_9  and  C7_12 
ROOT
HETATM    1  O1  UNL     1      26.507   2.187  51.087  1.00  0.00    -0.286 OA
ENDROOT
BRANCH   1   2
HETATM    2  C5  UNL     1      25.926   2.923  50.074  1.00  0.00     0.146 C 
HETATM    3  C6  UNL     1      26.874   3.898  49.425  1.00  0.00     0.042 C 
BRANCH   2   4
HETATM    4  C4  UNL     1      24.716   3.682  50.504  1.00  0.00     0.072 C 
BRANCH   4   5
HETATM    5  C3  UNL     1      23.517   2.820  50.256  1.00  0.00    -0.051 A 
HETATM    6  C2  UNL     1      22.850   2.101  51.155  1.00  0.00    -0.040 A 
HETATM    7  C1  UNL     1      22.928   1.821  52.622  1.00  0.00     0.047 C 
HETATM    8  C15 UNL     1      21.717   1.389  50.475  1.00  0.00     0.222 A 
HETATM    9  C14 UNL     1      21.839   1.807  49.077  1.00  0.00     0.015 A 
HETATM   10  F1  UNL     1      21.850   0.041  50.658  1.00  0.00    -0.240 F 
HETATM   11  C13 UNL     1      22.871   2.625  48.957  1.00  0.00     0.006 A 
ENDBRANCH   4   5
ENDBRANCH   2   4
ENDBRANCH   1   2
BRANCH   1  12
HETATM   12  N1  UNL     1      27.433   2.813  51.805  1.00  0.00    -0.090 NA
HETATM   13  H10 UNL     1      28.351   2.670  51.326  1.00  0.00     0.173 HD
BRANCH  12  14
HETATM   14  S1  UNL     1      27.564   2.018  53.331  1.00  0.00     0.263 S 
HETATM   15  O2  UNL     1      28.693   2.634  54.121  1.00  0.00    -0.204 OA
HETATM   16  O3  UNL     1      26.292   2.196  54.142  1.00  0.00    -0.204 OA
BRANCH  14  17
HETATM   17  C7  UNL     1      27.827   0.298  53.170  1.00  0.00     0.076 A 
HETATM   18  C8  UNL     1      26.917  -0.649  52.749  1.00  0.00     0.025 A 
HETATM   19  C9  UNL     1      27.283  -1.975  52.677  1.00  0.00     0.002 A 
HETATM   20  C10 UNL     1      28.562  -2.382  53.024  1.00  0.00     0.000 A 
HETATM   21  C11 UNL     1      29.498  -1.466  53.449  1.00  0.00     0.002 A 
HETATM   22  C12 UNL     1      29.110  -0.142  53.513  1.00  0.00     0.025 A 
ENDBRANCH  14  17
ENDBRANCH  12  14
ENDBRANCH   1  12
TORSDOF 6
ENDMDL
MODEL 6
REMARK VINA RESULT:      -7.7      4.099      6.145
REMARK  6 active torsions:
REMARK  status: ('A' for Active; 'I' for Inactive)
REMARK    1  A    between atoms: C3_3  and  C4_4 
REMARK    2  A    between atoms: C4_4  and  C5_5 
REMARK    3  A    between atoms: C5_5  and  O1_7 
REMARK    4  A    between atoms: O1_7  and  N1_8 
REMARK    5  A    between atoms: N1_8  and  S1_9 
REMARK    6  A    between atoms: S1_9  and  C7_12 
ROOT
HETATM    1  O1  UNL     1      24.941   3.548  51.328  1.00  0.00    -0.286 OA
ENDROOT
BRANCH   1   2
HETATM    2  C5  UNL     1      26.177   3.001  51.047  1.00  0.00     0.146 C 
HETATM    3  C6  UNL     1      26.634   3.252  49.633  1.00  0.00     0.042 C 
BRANCH   2   4
HETATM    4  C4  UNL     1      26.251   1.532  51.294  1.00  0.00     0.072 C 
BRANCH   4   5
HETATM    5  C3  UNL     1      27.244   1.297  52.391  1.00  0.00    -0.051 A 
HETATM    6  C2  UNL     1      27.547   0.134  52.960  1.00  0.00    -0.040 A 
HETATM    7  C1  UNL     1      27.132  -1.298  52.833  1.00  0.00     0.047 C 
HETATM    8  C15 UNL     1      28.592   0.357  54.013  1.00  0.00     0.222 A 
HETATM    9  C14 UNL     1      28.835   1.799  53.956  1.00  0.00     0.015 A 
HETATM   10  F1  UNL     1      28.121  -0.073  55.222  1.00  0.00    -0.240 F 
HETATM   11  C13 UNL     1      28.061   2.333  53.026  1.00  0.00     0.006 A 
ENDBRANCH   4   5
ENDBRANCH   2   4
ENDBRANCH   1   2
BRANCH   1  12
HETATM   12  N1  UNL     1      24.395   3.190  52.485  1.00  0.00    -0.090 NA
HETATM   13  H10 UNL     1      24.990   2.431  52.890  1.00  0.00     0.173 HD
BRANCH  12  14
HETATM   14  S1  UNL     1      22.862   2.467  52.158  1.00  0.00     0.263 S 
HETATM   15  O2  UNL     1      21.773   3.494  52.358  1.00  0.00    -0.204 OA
HETATM   16  O3  UNL     1      22.785   1.998  50.716  1.00  0.00    -0.204 OA
BRANCH  14  17
HETATM   17  C7  UNL     1      22.550   1.073  53.165  1.00  0.00     0.076 A 
HETATM   18  C8  UNL     1      21.337   0.681  53.692  1.00  0.00     0.025 A 
HETATM   19  C9  UNL     1      21.257  -0.451  54.472  1.00  0.00     0.002 A 
HETATM   20  C10 UNL     1      22.383  -1.213  54.741  1.00  0.00     0.000 A 
HETATM   21  C11 UNL     1      23.611  -0.853  54.233  1.00  0.00     0.002 A 
HETATM   22  C12 UNL     1      23.668   0.286  53.453  1.00  0.00     0.025 A 
ENDBRANCH  14  17
ENDBRANCH  12  14
ENDBRANCH   1  12
TORSDOF 6
ENDMDL
MODEL 7
REMARK VINA RESULT:      -7.5      3.288      7.294
REMARK  6 active torsions:
REMARK  status: ('A' for Active; 'I' for Inactive)
REMARK    1  A    between atoms: C3_3  and  C4_4 
REMARK    2  A    between atoms: C4_4  and  C5_5 
REMARK    3  A    between atoms: C5_5  and  O1_7 
REMARK    4  A    between atoms: O1_7  and  N1_8 
REMARK    5  A    between atoms: N1_8  and  S1_9 
REMARK    6  A    between atoms: S1_9  and  C7_12 
ROOT
HETATM    1  O1  UNL     1      25.165   2.125  53.075  1.00  0.00    -0.286 OA
ENDROOT
BRANCH   1   2
HETATM    2  C5  UNL     1      24.918   0.768  53.003  1.00  0.00     0.146 C 
HETATM    3  C6  UNL     1      23.458   0.434  52.846  1.00  0.00     0.042 C 
BRANCH   2   4
HETATM    4  C4  UNL     1      25.436   0.004  54.176  1.00  0.00     0.072 C 
BRANCH   4   5
HETATM    5  C3  UNL     1      26.892  -0.265  53.946  1.00  0.00    -0.051 A 
HETATM    6  C2  UNL     1      27.418  -1.179  53.137  1.00  0.00    -0.040 A 
HETATM    7  C1  UNL     1      26.927  -2.235  52.198  1.00  0.00     0.047 C 
HETATM    8  C15 UNL     1      28.915  -1.104  53.213  1.00  0.00     0.222 A 
HETATM    9  C14 UNL     1      29.156  -0.024  54.171  1.00  0.00     0.015 A 
HETATM   10  F1  UNL     1      29.413  -2.313  53.612  1.00  0.00    -0.240 F 
HETATM   11  C13 UNL     1      27.994   0.453  54.589  1.00  0.00     0.006 A 
ENDBRANCH   4   5
ENDBRANCH   2   4
ENDBRANCH   1   2
BRANCH   1  12
HETATM   12  N1  UNL     1      25.913   2.633  52.102  1.00  0.00    -0.090 NA
HETATM   13  H10 UNL     1      26.549   3.341  52.535  1.00  0.00     0.173 HD
BRANCH  12  14
HETATM   14  S1  UNL     1      24.884   3.511  51.031  1.00  0.00     0.263 S 
HETATM   15  O2  UNL     1      24.128   2.540  50.155  1.00  0.00    -0.204 OA
HETATM   16  O3  UNL     1      23.857   4.315  51.808  1.00  0.00    -0.204 OA
BRANCH  14  17
HETATM   17  C7  UNL     1      25.765   4.642  50.032  1.00  0.00     0.076 A 
HETATM   18  C8  UNL     1      25.465   5.971  49.813  1.00  0.00     0.025 A 
HETATM   19  C9  UNL     1      26.264   6.734  48.992  1.00  0.00     0.002 A 
HETATM   20  C10 UNL     1      27.378   6.188  48.373  1.00  0.00     0.000 A 
HETATM   21  C11 UNL     1      27.710   4.865  48.566  1.00  0.00     0.002 A 
HETATM   22  C12 UNL     1      26.894   4.119  49.394  1.00  0.00     0.025 A 
ENDBRANCH  14  17
ENDBRANCH  12  14
ENDBRANCH   1  12
TORSDOF 6
ENDMDL
MODEL 8
REMARK VINA RESULT:      -7.4      1.965      3.032
REMARK  6 active torsions:
REMARK  status: ('A' for Active; 'I' for Inactive)
REMARK    1  A    between atoms: C3_3  and  C4_4 
REMARK    2  A    between atoms: C4_4  and  C5_5 
REMARK    3  A    between atoms: C5_5  and  O1_7 
REMARK    4  A    between atoms: O1_7  and  N1_8 
REMARK    5  A    between atoms: N1_8  and  S1_9 
REMARK    6  A    between atoms: S1_9  and  C7_12 
ROOT
HETATM    1  O1  UNL     1      26.771   2.246  50.803  1.00  0.00    -0.286 OA
ENDROOT
BRANCH   1   2
HETATM    2  C5  UNL     1      26.170   3.079  49.880  1.00  0.00     0.146 C 
HETATM    3  C6  UNL     1      27.117   4.083  49.276  1.00  0.00     0.042 C 
BRANCH   2   4
HETATM    4  C4  UNL     1      25.000   3.828  50.424  1.00  0.00     0.072 C 
BRANCH   4   5
HETATM    5  C3  UNL     1      23.928   3.833  49.379  1.00  0.00    -0.051 A 
HETATM    6  C2  UNL     1      23.583   4.847  48.591  1.00  0.00    -0.040 A 
HETATM    7  C1  UNL     1      24.005   6.265  48.370  1.00  0.00     0.047 C 
HETATM    8  C15 UNL     1      22.462   4.415  47.693  1.00  0.00     0.222 A 
HETATM    9  C14 UNL     1      22.225   3.024  48.082  1.00  0.00     0.015 A 
HETATM   10  F1  UNL     1      21.382   5.230  47.888  1.00  0.00    -0.240 F 
HETATM   11  C13 UNL     1      23.067   2.695  49.048  1.00  0.00     0.006 A 
ENDBRANCH   4   5
ENDBRANCH   2   4
ENDBRANCH   1   2
BRANCH   1  12
HETATM   12  N1  UNL     1      27.551   2.838  51.701  1.00  0.00    -0.090 NA
HETATM   13  H10 UNL     1      28.542   2.674  51.411  1.00  0.00     0.173 HD
BRANCH  12  14
HETATM   14  S1  UNL     1      27.356   2.023  53.209  1.00  0.00     0.263 S 
HETATM   15  O2  UNL     1      28.191   2.711  54.262  1.00  0.00    -0.204 OA
HETATM   16  O3  UNL     1      25.909   2.080  53.668  1.00  0.00    -0.204 OA
BRANCH  14  17
HETATM   17  C7  UNL     1      27.795   0.334  53.120  1.00  0.00     0.076 A 
HETATM   18  C8  UNL     1      29.007  -0.231  53.458  1.00  0.00     0.025 A 
HETATM   19  C9  UNL     1      29.196  -1.589  53.329  1.00  0.00     0.002 A 
HETATM   20  C10 UNL     1      28.181  -2.410  52.862  1.00  0.00     0.000 A 
HETATM   21  C11 UNL     1      26.957  -1.883  52.515  1.00  0.00     0.002 A 
HETATM   22  C12 UNL     1      26.790  -0.518  52.652  1.00  0.00     0.025 A 
ENDBRANCH  14  17
ENDBRANCH  12  14
ENDBRANCH   1  12
TORSDOF 6
ENDMDL
MODEL 9
REMARK VINA RESULT:      -7.3      1.254      1.772
REMARK  6 active torsions:
REMARK  status: ('A' for Active; 'I' for Inactive)
REMARK    1  A    between atoms: C3_3  and  C4_4 
REMARK    2  A    between atoms: C4_4  and  C5_5 
REMARK    3  A    between atoms: C5_5  and  O1_7 
REMARK    4  A    between atoms: O1_7  and  N1_8 
REMARK    5  A    between atoms: N1_8  and  S1_9 
REMARK    6  A    between atoms: S1_9  and  C7_12 
ROOT
HETATM    1  O1  UNL     1      24.760   2.176  51.536  1.00  0.00    -0.286 OA
ENDROOT
BRANCH   1   2
HETATM    2  C5  UNL     1      24.673   3.539  51.336  1.00  0.00     0.146 C 
HETATM    3  C6  UNL     1      23.632   4.205  52.197  1.00  0.00     0.042 C 
BRANCH   2   4
HETATM    4  C4  UNL     1      24.401   3.919  49.919  1.00  0.00     0.072 C 
BRANCH   4   5
HETATM    5  C3  UNL     1      25.582   4.690  49.412  1.00  0.00    -0.051 A 
HETATM    6  C2  UNL     1      25.633   5.992  49.149  1.00  0.00    -0.040 A 
HETATM    7  C1  UNL     1      24.708   7.167  49.206  1.00  0.00     0.047 C 
HETATM    8  C15 UNL     1      27.008   6.344  48.662  1.00  0.00     0.222 A 
HETATM    9  C14 UNL     1      27.720   5.065  48.690  1.00  0.00     0.015 A 
HETATM   10  F1  UNL     1      26.923   6.897  47.415  1.00  0.00    -0.240 F 
HETATM   11  C13 UNL     1      26.899   4.120  49.119  1.00  0.00     0.006 A 
ENDBRANCH   4   5
ENDBRANCH   2   4
ENDBRANCH   1   2
BRANCH   1  12
HETATM   12  N1  UNL     1      25.988   1.672  51.589  1.00  0.00    -0.090 NA
HETATM   13  H10 UNL     1      26.013   0.842  50.953  1.00  0.00     0.173 HD
BRANCH  12  14
HETATM   14  S1  UNL     1      26.253   1.060  53.180  1.00  0.00     0.263 S 
HETATM   15  O2  UNL     1      26.628   2.198  54.099  1.00  0.00    -0.204 OA
HETATM   16  O3  UNL     1      24.987   0.430  53.733  1.00  0.00    -0.204 OA
BRANCH  14  17
HETATM   17  C7  UNL     1      27.495  -0.169  53.228  1.00  0.00     0.076 A 
HETATM   18  C8  UNL     1      28.811  -0.010  53.612  1.00  0.00     0.025 A 
HETATM   19  C9  UNL     1      29.670  -1.086  53.594  1.00  0.00     0.002 A 
HETATM   20  C10 UNL     1      29.236  -2.339  53.191  1.00  0.00     0.000 A 
HETATM   21  C11 UNL     1      27.930  -2.537  52.800  1.00  0.00     0.002 A 
HETATM   22  C12 UNL     1      27.085  -1.444  52.827  1.00  0.00     0.025 A 
ENDBRANCH  14  17
ENDBRANCH  12  14
ENDBRANCH   1  12
TORSDOF 6
ENDMDL
