MODEL 1
REMARK VINA RESULT:      -7.1      0.000      0.000
REMARK  7 active torsions:
REMARK  status: ('A' for Active; 'I' for Inactive)
REMARK    1  A    between atoms: C2_2  and  O1_3 
REMARK    2  A    between atoms: O1_3  and  N1_4 
REMARK    3  A    between atoms: C6_9  and  C7_10 
REMARK    4  A    between atoms: C8_11  and  O3_12 
REMARK    5  A    between atoms: O3_12  and  C9_13 
REMARK    6  A    between atoms: C13_19  and  O4_20 
REMARK    7  A    between atoms: C15_22  and  O5_23 
ROOT
HETATM    1  C9  UNL     1      23.666  -0.120  53.397  1.00  0.00     0.182 A 
HETATM    2  N2  UNL     1      23.329  -0.933  54.415  1.00  0.00    -0.217 NA
HETATM    3  C10 UNL     1      24.265  -1.264  55.345  1.00  0.00     0.236 A 
HETATM    4  N3  UNL     1      25.522  -0.822  55.308  1.00  0.00    -0.241 NA
HETATM    5  C11 UNL     1      25.945   0.006  54.308  1.00  0.00     0.075 A 
HETATM    6  C12 UNL     1      27.236   0.485  54.232  1.00  0.00     0.072 A 
HETATM    7  C13 UNL     1      27.520   1.312  53.167  1.00  0.00     0.103 A 
HETATM    8  C15 UNL     1      26.615   1.682  52.194  1.00  0.00     0.102 A 
HETATM    9  C17 UNL     1      25.338   1.168  52.328  1.00  0.00     0.057 A 
HETATM   10  C18 UNL     1      24.967   0.335  53.362  1.00  0.00     0.049 A 
ENDROOT
BRANCH   1  11
HETATM   11  O3  UNL     1      22.782   0.258  52.422  1.00  0.00    -0.303 OA
BRANCH  11  12
HETATM   12  C8  UNL     1      21.582   0.893  52.741  1.00  0.00     0.144 C 
HETATM   13  C7  UNL     1      21.132   1.483  51.666  1.00  0.00     0.027 C 
BRANCH  13  14
HETATM   14  C6  UNL     1      21.862   1.407  50.425  1.00  0.00     0.032 C 
HETATM   15  C5  UNL     1      22.141   2.536  49.838  1.00  0.00     0.068 C 
HETATM   16  N1  UNL     1      21.838   3.863  50.227  1.00  0.00    -0.129 N 
HETATM   17  C4  UNL     1      22.894   2.627  48.540  1.00  0.00     0.090 C 
HETATM   18  O2  UNL     1      22.043   4.703  49.198  1.00  0.00    -0.253 OA
HETATM   19  C3  UNL     1      22.945   4.114  48.343  1.00  0.00     0.210 C 
BRANCH  16  20
HETATM   20  O1  UNL     1      21.402   4.254  51.456  1.00  0.00    -0.254 OA
BRANCH  20  21
HETATM   21  C2  UNL     1      22.322   5.071  52.093  1.00  0.00     0.200 C 
HETATM   22  C1  UNL     1      23.464   4.337  52.730  1.00  0.00     0.036 C 
ENDBRANCH  20  21
ENDBRANCH  16  20
ENDBRANCH  13  14
ENDBRANCH  11  12
ENDBRANCH   1  11
BRANCH   8  23
HETATM   23  O5  UNL     1      27.074   2.521  51.196  1.00  0.00    -0.353 OA
HETATM   24  C16 UNL     1      26.157   3.193  50.360  1.00  0.00     0.210 C 
ENDBRANCH   8  23
BRANCH   7  25
HETATM   25  O4  UNL     1      28.836   1.792  53.101  1.00  0.00    -0.353 OA
HETATM   26  C14 UNL     1      29.536   2.153  54.287  1.00  0.00     0.210 C 
ENDBRANCH   7  25
TORSDOF 7
ENDMDL
MODEL 2
REMARK VINA RESULT:      -7.0      2.780      7.093
REMARK  7 active torsions:
REMARK  status: ('A' for Active; 'I' for Inactive)
REMARK    1  A    between atoms: C2_2  and  O1_3 
REMARK    2  A    between atoms: O1_3  and  N1_4 
REMARK    3  A    between atoms: C6_9  and  C7_10 
REMARK    4  A    between atoms: C8_11  and  O3_12 
REMARK    5  A    between atoms: O3_12  and  C9_13 
REMARK    6  A    between atoms: C13_19  and  O4_20 
REMARK    7  A    between atoms: C15_22  and  O5_23 
ROOT
HETATM    1  C9  UNL     1      22.910  -0.190  53.240  1.00  0.00     0.182 A 
HETATM    2  N2  UNL     1      23.290  -0.794  54.381  1.00  0.00    -0.217 NA
HETATM    3  C10 UNL     1      22.355  -1.396  55.163  1.00  0.00     0.236 A 
HETATM    4  N3  UNL     1      21.056  -1.424  54.862  1.00  0.00    -0.241 NA
HETATM    5  C11 UNL     1      20.588  -0.835  53.722  1.00  0.00     0.075 A 
HETATM    6  C12 UNL     1      19.255  -0.841  53.373  1.00  0.00     0.072 A 
HETATM    7  C13 UNL     1      18.928  -0.207  52.194  1.00  0.00     0.103 A 
HETATM    8  C15 UNL     1      19.830   0.420  51.361  1.00  0.00     0.102 A 
HETATM    9  C17 UNL     1      21.152   0.391  51.768  1.00  0.00     0.057 A 
HETATM   10  C18 UNL     1      21.567  -0.222  52.931  1.00  0.00     0.049 A 
ENDROOT
BRANCH   1  11
HETATM   11  O3  UNL     1      23.791   0.437  52.400  1.00  0.00    -0.303 OA
BRANCH  11  12
HETATM   12  C8  UNL     1      24.659   1.423  52.866  1.00  0.00     0.144 C 
HETATM   13  C7  UNL     1      25.879   0.965  52.790  1.00  0.00     0.027 C 
BRANCH  13  14
HETATM   14  C6  UNL     1      26.138  -0.361  52.287  1.00  0.00     0.032 C 
HETATM   15  C5  UNL     1      27.152  -0.997  52.801  1.00  0.00     0.068 C 
HETATM   16  N1  UNL     1      28.069  -0.591  53.799  1.00  0.00    -0.129 N 
HETATM   17  C4  UNL     1      27.552  -2.385  52.384  1.00  0.00     0.090 C 
HETATM   18  O2  UNL     1      29.127  -1.421  53.817  1.00  0.00    -0.253 OA
HETATM   19  C3  UNL     1      28.732  -2.623  53.280  1.00  0.00     0.210 C 
BRANCH  16  20
HETATM   20  O1  UNL     1      27.922   0.478  54.629  1.00  0.00    -0.254 OA
BRANCH  20  21
HETATM   21  C2  UNL     1      29.025   1.316  54.588  1.00  0.00     0.200 C 
HETATM   22  C1  UNL     1      28.865   2.503  53.683  1.00  0.00     0.036 C 
ENDBRANCH  20  21
ENDBRANCH  16  20
ENDBRANCH  13  14
ENDBRANCH  11  12
ENDBRANCH   1  11
BRANCH   8  23
HETATM   23  O5  UNL     1      19.325   1.007  50.216  1.00  0.00    -0.353 OA
HETATM   24  C16 UNL     1      20.184   1.703  49.340  1.00  0.00     0.210 C 
ENDBRANCH   8  23
BRANCH   7  25
HETATM   25  O4  UNL     1      17.568  -0.220  51.850  1.00  0.00    -0.353 OA
HETATM   26  C14 UNL     1      16.692  -1.200  52.396  1.00  0.00     0.210 C 
ENDBRANCH   7  25
TORSDOF 7
ENDMDL
MODEL 3
REMARK VINA RESULT:      -7.0      2.061      7.160
REMARK  7 active torsions:
REMARK  status: ('A' for Active; 'I' for Inactive)
REMARK    1  A    between atoms: C2_2  and  O1_3 
REMARK    2  A    between atoms: O1_3  and  N1_4 
REMARK    3  A    between atoms: C6_9  and  C7_10 
REMARK    4  A    between atoms: C8_11  and  O3_12 
REMARK    5  A    between atoms: O3_12  and  C9_13 
REMARK    6  A    between atoms: C13_19  and  O4_20 
REMARK    7  A    between atoms: C15_22  and  O5_23 
ROOT
HETATM    1  C9  UNL     1      24.634   3.724  50.704  1.00  0.00     0.182 A 
HETATM    2  N2  UNL     1      25.207   4.903  50.400  1.00  0.00    -0.217 NA
HETATM    3  C10 UNL     1      24.470   6.044  50.473  1.00  0.00     0.236 A 
HETATM    4  N3  UNL     1      23.187   6.066  50.835  1.00  0.00    -0.241 NA
HETATM    5  C11 UNL     1      22.531   4.913  51.160  1.00  0.00     0.075 A 
HETATM    6  C12 UNL     1      21.206   4.891  51.539  1.00  0.00     0.072 A 
HETATM    7  C13 UNL     1      20.676   3.654  51.838  1.00  0.00     0.103 A 
HETATM    8  C15 UNL     1      21.371   2.465  51.781  1.00  0.00     0.102 A 
HETATM    9  C17 UNL     1      22.696   2.556  51.394  1.00  0.00     0.057 A 
HETATM   10  C18 UNL     1      23.307   3.750  51.078  1.00  0.00     0.049 A 
ENDROOT
BRANCH   1  11
HETATM   11  O3  UNL     1      25.307   2.534  50.655  1.00  0.00    -0.303 OA
BRANCH  11  12
HETATM   12  C8  UNL     1      26.630   2.432  51.084  1.00  0.00     0.144 C 
HETATM   13  C7  UNL     1      26.714   1.433  51.920  1.00  0.00     0.027 C 
BRANCH  13  14
HETATM   14  C6  UNL     1      25.549   0.651  52.253  1.00  0.00     0.032 C 
HETATM   15  C5  UNL     1      25.509   0.137  53.449  1.00  0.00     0.068 C 
HETATM   16  N1  UNL     1      26.444   0.221  54.507  1.00  0.00    -0.129 N 
HETATM   17  C4  UNL     1      24.365  -0.701  53.948  1.00  0.00     0.090 C 
HETATM   18  O2  UNL     1      26.156  -0.692  55.451  1.00  0.00    -0.253 OA
HETATM   19  C3  UNL     1      24.820  -1.002  55.346  1.00  0.00     0.210 C 
BRANCH  16  20
HETATM   20  O1  UNL     1      27.490   1.089  54.580  1.00  0.00    -0.254 OA
BRANCH  20  21
HETATM   21  C2  UNL     1      28.675   0.443  54.896  1.00  0.00     0.200 C 
HETATM   22  C1  UNL     1      29.220  -0.420  53.796  1.00  0.00     0.036 C 
ENDBRANCH  20  21
ENDBRANCH  16  20
ENDBRANCH  13  14
ENDBRANCH  11  12
ENDBRANCH   1  11
BRANCH   8  23
HETATM   23  O5  UNL     1      20.678   1.316  52.116  1.00  0.00    -0.353 OA
HETATM   24  C16 UNL     1      20.907   0.690  53.359  1.00  0.00     0.210 C 
ENDBRANCH   8  23
BRANCH   7  25
HETATM   25  O4  UNL     1      19.327   3.645  52.222  1.00  0.00    -0.353 OA
HETATM   26  C14 UNL     1      18.296   3.809  51.253  1.00  0.00     0.210 C 
ENDBRANCH   7  25
TORSDOF 7
ENDMDL
MODEL 4
REMARK VINA RESULT:      -6.8      2.668      4.853
REMARK  7 active torsions:
REMARK  status: ('A' for Active; 'I' for Inactive)
REMARK    1  A    between atoms: C2_2  and  O1_3 
REMARK    2  A    between atoms: O1_3  and  N1_4 
REMARK    3  A    between atoms: C6_9  and  C7_10 
REMARK    4  A    between atoms: C8_11  and  O3_12 
REMARK    5  A    between atoms: O3_12  and  C9_13 
REMARK    6  A    between atoms: C13_19  and  O4_20 
REMARK    7  A    between atoms: C15_22  and  O5_23 
ROOT
HETATM    1  C9  UNL     1      24.410   1.985  51.402  1.00  0.00     0.182 A 
HETATM    2  N2  UNL     1      24.787   2.884  50.476  1.00  0.00    -0.217 NA
HETATM    3  C10 UNL     1      26.098   3.234  50.378  1.00  0.00     0.236 A 
HETATM    4  N3  UNL     1      27.051   2.730  51.161  1.00  0.00    -0.241 NA
HETATM    5  C11 UNL     1      26.752   1.811  52.126  1.00  0.00     0.075 A 
HETATM    6  C12 UNL     1      27.707   1.265  52.956  1.00  0.00     0.072 A 
HETATM    7  C13 UNL     1      27.259   0.349  53.885  1.00  0.00     0.103 A 
HETATM    8  C15 UNL     1      25.946  -0.044  54.032  1.00  0.00     0.102 A 
HETATM    9  C17 UNL     1      25.038   0.541  53.168  1.00  0.00     0.057 A 
HETATM   10  C18 UNL     1      25.399   1.464  52.210  1.00  0.00     0.049 A 
ENDROOT
BRANCH   1  11
HETATM   11  O3  UNL     1      23.112   1.581  51.563  1.00  0.00    -0.303 OA
BRANCH  11  12
HETATM   12  C8  UNL     1      22.075   2.506  51.681  1.00  0.00     0.144 C 
HETATM   13  C7  UNL     1      21.274   2.105  52.632  1.00  0.00     0.027 C 
BRANCH  13  14
HETATM   14  C6  UNL     1      21.541   0.887  53.354  1.00  0.00     0.032 C 
HETATM   15  C5  UNL     1      20.581   0.008  53.398  1.00  0.00     0.068 C 
HETATM   16  N1  UNL     1      19.283   0.050  52.837  1.00  0.00    -0.129 N 
HETATM   17  C4  UNL     1      20.702  -1.311  54.111  1.00  0.00     0.090 C 
HETATM   18  O2  UNL     1      18.520  -0.922  53.369  1.00  0.00    -0.253 OA
HETATM   19  C3  UNL     1      19.355  -1.911  53.832  1.00  0.00     0.210 C 
BRANCH  16  20
HETATM   20  O1  UNL     1      18.847   0.935  51.899  1.00  0.00    -0.254 OA
BRANCH  20  21
HETATM   21  C2  UNL     1      18.731   0.345  50.650  1.00  0.00     0.200 C 
HETATM   22  C1  UNL     1      17.323   0.013  50.253  1.00  0.00     0.036 C 
ENDBRANCH  20  21
ENDBRANCH  16  20
ENDBRANCH  13  14
ENDBRANCH  11  12
ENDBRANCH   1  11
BRANCH   8  23
HETATM   23  O5  UNL     1      25.676  -0.975  55.017  1.00  0.00    -0.353 OA
HETATM   24  C16 UNL     1      24.341  -1.267  55.368  1.00  0.00     0.210 C 
ENDBRANCH   8  23
BRANCH   7  25
HETATM   25  O4  UNL     1      28.240  -0.199  54.724  1.00  0.00    -0.353 OA
HETATM   26  C14 UNL     1      29.518  -0.558  54.207  1.00  0.00     0.210 C 
ENDBRANCH   7  25
TORSDOF 7
ENDMDL
MODEL 5
REMARK VINA RESULT:      -6.7      3.057      5.344
REMARK  7 active torsions:
REMARK  status: ('A' for Active; 'I' for Inactive)
REMARK    1  A    between atoms: C2_2  and  O1_3 
REMARK    2  A    between atoms: O1_3  and  N1_4 
REMARK    3  A    between atoms: C6_9  and  C7_10 
REMARK    4  A    between atoms: C8_11  and  O3_12 
REMARK    5  A    between atoms: O3_12  and  C9_13 
REMARK    6  A    between atoms: C13_19  and  O4_20 
REMARK    7  A    between atoms: C15_22  and  O5_23 
ROOT
HETATM    1  C9  UNL     1      26.630   2.193  52.044  1.00  0.00     0.182 A 
HETATM    2  N2  UNL     1      27.878   1.985  52.502  1.00  0.00    -0.217 NA
HETATM    3  C10 UNL     1      28.115   0.947  53.349  1.00  0.00     0.236 A 
HETATM    4  N3  UNL     1      27.167   0.106  53.761  1.00  0.00    -0.241 NA
HETATM    5  C11 UNL     1      25.875   0.247  53.343  1.00  0.00     0.075 A 
HETATM    6  C12 UNL     1      24.865  -0.600  53.745  1.00  0.00     0.072 A 
HETATM    7  C13 UNL     1      23.608  -0.336  53.241  1.00  0.00     0.103 A 
HETATM    8  C15 UNL     1      23.306   0.699  52.382  1.00  0.00     0.102 A 
HETATM    9  C17 UNL     1      24.364   1.512  52.018  1.00  0.00     0.057 A 
HETATM   10  C18 UNL     1      25.651   1.320  52.472  1.00  0.00     0.049 A 
ENDROOT
BRANCH   1  11
HETATM   11  O3  UNL     1      26.310   3.214  51.190  1.00  0.00    -0.303 OA
BRANCH  11  12
HETATM   12  C8  UNL     1      26.609   3.140  49.830  1.00  0.00     0.144 C 
HETATM   13  C7  UNL     1      26.033   4.146  49.229  1.00  0.00     0.027 C 
BRANCH  13  14
HETATM   14  C6  UNL     1      25.247   5.097  49.975  1.00  0.00     0.032 C 
HETATM   15  C5  UNL     1      25.578   6.352  49.859  1.00  0.00     0.068 C 
HETATM   16  N1  UNL     1      26.609   6.955  49.101  1.00  0.00    -0.129 N 
HETATM   17  C4  UNL     1      24.858   7.463  50.571  1.00  0.00     0.090 C 
HETATM   18  O2  UNL     1      26.788   8.227  49.496  1.00  0.00    -0.253 OA
HETATM   19  C3  UNL     1      25.619   8.659  50.078  1.00  0.00     0.210 C 
BRANCH  16  20
HETATM   20  O1  UNL     1      27.328   6.354  48.113  1.00  0.00    -0.254 OA
BRANCH  20  21
HETATM   21  C2  UNL     1      28.676   6.662  48.197  1.00  0.00     0.200 C 
HETATM   22  C1  UNL     1      29.588   5.473  48.132  1.00  0.00     0.036 C 
ENDBRANCH  20  21
ENDBRANCH  16  20
ENDBRANCH  13  14
ENDBRANCH  11  12
ENDBRANCH   1  11
BRANCH   8  23
HETATM   23  O5  UNL     1      21.990   0.815  51.977  1.00  0.00    -0.353 OA
HETATM   24  C16 UNL     1      21.327   2.057  52.073  1.00  0.00     0.210 C 
ENDBRANCH   8  23
BRANCH   7  25
HETATM   25  O4  UNL     1      22.589  -1.205  53.658  1.00  0.00    -0.353 OA
HETATM   26  C14 UNL     1      21.981  -1.049  54.936  1.00  0.00     0.210 C 
ENDBRANCH   7  25
TORSDOF 7
ENDMDL
MODEL 6
REMARK VINA RESULT:      -6.7      1.654      4.419
REMARK  7 active torsions:
REMARK  status: ('A' for Active; 'I' for Inactive)
REMARK    1  A    between atoms: C2_2  and  O1_3 
REMARK    2  A    between atoms: O1_3  and  N1_4 
REMARK    3  A    between atoms: C6_9  and  C7_10 
REMARK    4  A    between atoms: C8_11  and  O3_12 
REMARK    5  A    between atoms: O3_12  and  C9_13 
REMARK    6  A    between atoms: C13_19  and  O4_20 
REMARK    7  A    between atoms: C15_22  and  O5_23 
ROOT
HETATM    1  C9  UNL     1      26.818   2.147  52.153  1.00  0.00     0.182 A 
HETATM    2  N2  UNL     1      28.051   1.899  52.630  1.00  0.00    -0.217 NA
HETATM    3  C10 UNL     1      28.243   0.847  53.471  1.00  0.00     0.236 A 
HETATM    4  N3  UNL     1      27.263   0.031  53.859  1.00  0.00    -0.241 NA
HETATM    5  C11 UNL     1      25.983   0.214  53.420  1.00  0.00     0.075 A 
HETATM    6  C12 UNL     1      24.942  -0.606  53.797  1.00  0.00     0.072 A 
HETATM    7  C13 UNL     1      23.703  -0.300  53.274  1.00  0.00     0.103 A 
HETATM    8  C15 UNL     1      23.446   0.750  52.420  1.00  0.00     0.102 A 
HETATM    9  C17 UNL     1      24.534   1.535  52.081  1.00  0.00     0.057 A 
HETATM   10  C18 UNL     1      25.807   1.301  52.555  1.00  0.00     0.049 A 
ENDROOT
BRANCH   1  11
HETATM   11  O3  UNL     1      26.544   3.185  51.303  1.00  0.00    -0.303 OA
BRANCH  11  12
HETATM   12  C8  UNL     1      26.522   3.001  49.921  1.00  0.00     0.144 C 
HETATM   13  C7  UNL     1      25.799   3.952  49.393  1.00  0.00     0.027 C 
BRANCH  13  14
HETATM   14  C6  UNL     1      25.185   4.958  50.224  1.00  0.00     0.032 C 
HETATM   15  C5  UNL     1      23.888   4.915  50.336  1.00  0.00     0.068 C 
HETATM   16  N1  UNL     1      22.954   4.020  49.762  1.00  0.00    -0.129 N 
HETATM   17  C4  UNL     1      23.099   5.891  51.164  1.00  0.00     0.090 C 
HETATM   18  O2  UNL     1      21.708   4.509  49.892  1.00  0.00    -0.253 OA
HETATM   19  C3  UNL     1      21.703   5.381  50.955  1.00  0.00     0.210 C 
BRANCH  16  20
HETATM   20  O1  UNL     1      23.250   2.835  49.161  1.00  0.00    -0.254 OA
BRANCH  20  21
HETATM   21  C2  UNL     1      22.291   2.478  48.227  1.00  0.00     0.200 C 
HETATM   22  C1  UNL     1      21.549   1.216  48.556  1.00  0.00     0.036 C 
ENDBRANCH  20  21
ENDBRANCH  16  20
ENDBRANCH  13  14
ENDBRANCH  11  12
ENDBRANCH   1  11
BRANCH   8  23
HETATM   23  O5  UNL     1      22.141   0.909  51.993  1.00  0.00    -0.353 OA
HETATM   24  C16 UNL     1      21.375   2.002  52.451  1.00  0.00     0.210 C 
ENDBRANCH   8  23
BRANCH   7  25
HETATM   25  O4  UNL     1      22.651  -1.142  53.665  1.00  0.00    -0.353 OA
HETATM   26  C14 UNL     1      22.050  -1.002  54.948  1.00  0.00     0.210 C 
ENDBRANCH   7  25
TORSDOF 7
ENDMDL
MODEL 7
REMARK VINA RESULT:      -6.6      4.026      7.682
REMARK  7 active torsions:
REMARK  status: ('A' for Active; 'I' for Inactive)
REMARK    1  A    between atoms: C2_2  and  O1_3 
REMARK    2  A    between atoms: O1_3  and  N1_4 
REMARK    3  A    between atoms: C6_9  and  C7_10 
REMARK    4  A    between atoms: C8_11  and  O3_12 
REMARK    5  A    between atoms: O3_12  and  C9_13 
REMARK    6  A    between atoms: C13_19  and  O4_20 
REMARK    7  A    between atoms: C15_22  and  O5_23 
ROOT
HETATM    1  C9  UNL     1      26.067   5.033  49.246  1.00  0.00     0.182 A 
HETATM    2  N2  UNL     1      24.834   5.572  49.249  1.00  0.00    -0.217 NA
HETATM    3  C10 UNL     1      24.625   6.766  48.632  1.00  0.00     0.236 A 
HETATM    4  N3  UNL     1      25.587   7.449  48.012  1.00  0.00    -0.241 NA
HETATM    5  C11 UNL     1      26.866   6.972  47.963  1.00  0.00     0.075 A 
HETATM    6  C12 UNL     1      27.889   7.646  47.332  1.00  0.00     0.072 A 
HETATM    7  C13 UNL     1      29.129   7.042  47.364  1.00  0.00     0.103 A 
HETATM    8  C15 UNL     1      29.402   5.836  47.972  1.00  0.00     0.102 A 
HETATM    9  C17 UNL     1      28.332   5.211  48.586  1.00  0.00     0.057 A 
HETATM   10  C18 UNL     1      27.060   5.742  48.603  1.00  0.00     0.049 A 
ENDROOT
BRANCH   1  11
HETATM   11  O3  UNL     1      26.358   3.837  49.844  1.00  0.00    -0.303 OA
BRANCH  11  12
HETATM   12  C8  UNL     1      25.347   2.994  50.306  1.00  0.00     0.144 C 
HETATM   13  C7  UNL     1      25.804   2.335  51.337  1.00  0.00     0.027 C 
BRANCH  13  14
HETATM   14  C6  UNL     1      27.151   2.544  51.808  1.00  0.00     0.032 C 
HETATM   15  C5  UNL     1      27.497   1.916  52.895  1.00  0.00     0.068 C 
HETATM   16  N1  UNL     1      26.751   1.037  53.715  1.00  0.00    -0.129 N 
HETATM   17  C4  UNL     1      28.863   2.030  53.513  1.00  0.00     0.090 C 
HETATM   18  O2  UNL     1      27.383   0.852  54.887  1.00  0.00    -0.253 OA
HETATM   19  C3  UNL     1      28.719   1.115  54.694  1.00  0.00     0.210 C 
BRANCH  16  20
HETATM   20  O1  UNL     1      25.565   0.454  53.387  1.00  0.00    -0.254 OA
BRANCH  20  21
HETATM   21  C2  UNL     1      25.646  -0.929  53.416  1.00  0.00     0.200 C 
HETATM   22  C1  UNL     1      26.656  -1.509  52.471  1.00  0.00     0.036 C 
ENDBRANCH  20  21
ENDBRANCH  16  20
ENDBRANCH  13  14
ENDBRANCH  11  12
ENDBRANCH   1  11
BRANCH   8  23
HETATM   23  O5  UNL     1      30.705   5.380  47.905  1.00  0.00    -0.353 OA
HETATM   24  C16 UNL     1      31.608   5.662  48.952  1.00  0.00     0.210 C 
ENDBRANCH   8  23
BRANCH   7  25
HETATM   25  O4  UNL     1      30.162   7.738  46.719  1.00  0.00    -0.353 OA
HETATM   26  C14 UNL     1      30.666   8.954  47.262  1.00  0.00     0.210 C 
ENDBRANCH   7  25
TORSDOF 7
ENDMDL
MODEL 8
REMARK VINA RESULT:      -6.3      2.346      5.082
REMARK  7 active torsions:
REMARK  status: ('A' for Active; 'I' for Inactive)
REMARK    1  A    between atoms: C2_2  and  O1_3 
REMARK    2  A    between atoms: O1_3  and  N1_4 
REMARK    3  A    between atoms: C6_9  and  C7_10 
REMARK    4  A    between atoms: C8_11  and  O3_12 
REMARK    5  A    between atoms: O3_12  and  C9_13 
REMARK    6  A    between atoms: C13_19  and  O4_20 
REMARK    7  A    between atoms: C15_22  and  O5_23 
ROOT
HETATM    1  C9  UNL     1      25.136   1.394  52.385  1.00  0.00     0.182 A 
HETATM    2  N2  UNL     1      26.149   0.551  52.656  1.00  0.00    -0.217 NA
HETATM    3  C10 UNL     1      25.898  -0.599  53.337  1.00  0.00     0.236 A 
HETATM    4  N3  UNL     1      24.684  -0.949  53.761  1.00  0.00    -0.241 NA
HETATM    5  C11 UNL     1      23.602  -0.149  53.527  1.00  0.00     0.075 A 
HETATM    6  C12 UNL     1      22.330  -0.474  53.948  1.00  0.00     0.072 A 
HETATM    7  C13 UNL     1      21.335   0.430  53.641  1.00  0.00     0.103 A 
HETATM    8  C15 UNL     1      21.528   1.610  52.955  1.00  0.00     0.102 A 
HETATM    9  C17 UNL     1      22.827   1.876  52.560  1.00  0.00     0.057 A 
HETATM   10  C18 UNL     1      23.881   1.029  52.824  1.00  0.00     0.049 A 
ENDROOT
BRANCH   1  11
HETATM   11  O3  UNL     1      25.307   2.569  51.704  1.00  0.00    -0.303 OA
BRANCH  11  12
HETATM   12  C8  UNL     1      26.527   2.890  51.109  1.00  0.00     0.144 C 
HETATM   13  C7  UNL     1      26.288   3.361  49.914  1.00  0.00     0.027 C 
BRANCH  13  14
HETATM   14  C6  UNL     1      24.937   3.474  49.424  1.00  0.00     0.032 C 
HETATM   15  C5  UNL     1      24.496   4.677  49.189  1.00  0.00     0.068 C 
HETATM   16  N1  UNL     1      25.140   5.928  49.338  1.00  0.00    -0.129 N 
HETATM   17  C4  UNL     1      23.111   4.962  48.675  1.00  0.00     0.090 C 
HETATM   18  O2  UNL     1      24.238   6.922  49.271  1.00  0.00    -0.253 OA
HETATM   19  C3  UNL     1      23.147   6.459  48.573  1.00  0.00     0.210 C 
BRANCH  16  20
HETATM   20  O1  UNL     1      26.475   6.120  49.524  1.00  0.00    -0.254 OA
BRANCH  20  21
HETATM   21  C2  UNL     1      27.110   6.493  48.350  1.00  0.00     0.200 C 
HETATM   22  C1  UNL     1      28.486   5.921  48.182  1.00  0.00     0.036 C 
ENDBRANCH  20  21
ENDBRANCH  16  20
ENDBRANCH  13  14
ENDBRANCH  11  12
ENDBRANCH   1  11
BRANCH   8  23
HETATM   23  O5  UNL     1      20.413   2.397  52.734  1.00  0.00    -0.353 OA
HETATM   24  C16 UNL     1      20.525   3.585  51.981  1.00  0.00     0.210 C 
ENDBRANCH   8  23
BRANCH   7  25
HETATM   25  O4  UNL     1      20.046   0.089  54.075  1.00  0.00    -0.353 OA
HETATM   26  C14 UNL     1      19.266  -0.861  53.356  1.00  0.00     0.210 C 
ENDBRANCH   7  25
TORSDOF 7
ENDMDL
MODEL 9
REMARK VINA RESULT:      -6.2      5.932      8.297
REMARK  7 active torsions:
REMARK  status: ('A' for Active; 'I' for Inactive)
REMARK    1  A    between atoms: C2_2  and  O1_3 
REMARK    2  A    between atoms: O1_3  and  N1_4 
REMARK    3  A    between atoms: C6_9  and  C7_10 
REMARK    4  A    between atoms: C8_11  and  O3_12 
REMARK    5  A    between atoms: O3_12  and  C9_13 
REMARK    6  A    between atoms: C13_19  and  O4_20 
REMARK    7  A    between atoms: C15_22  and  O5_23 
ROOT
HETATM    1  C9  UNL     1      29.415   7.418  48.543  1.00  0.00     0.182 A 
HETATM    2  N2  UNL     1      29.281   8.736  48.780  1.00  0.00    -0.217 NA
HETATM    3  C10 UNL     1      30.393   9.502  48.943  1.00  0.00     0.236 A 
HETATM    4  N3  UNL     1      31.633   9.017  48.881  1.00  0.00    -0.241 NA
HETATM    5  C11 UNL     1      31.856   7.691  48.644  1.00  0.00     0.075 A 
HETATM    6  C12 UNL     1      33.121   7.148  48.573  1.00  0.00     0.072 A 
HETATM    7  C13 UNL     1      33.192   5.793  48.328  1.00  0.00     0.103 A 
HETATM    8  C15 UNL     1      32.103   4.966  48.155  1.00  0.00     0.102 A 
HETATM    9  C17 UNL     1      30.863   5.572  48.238  1.00  0.00     0.057 A 
HETATM   10  C18 UNL     1      30.699   6.919  48.479  1.00  0.00     0.049 A 
ENDROOT
BRANCH   1  11
HETATM   11  O3  UNL     1      28.346   6.581  48.367  1.00  0.00    -0.303 OA
BRANCH  11  12
HETATM   12  C8  UNL     1      27.040   7.070  48.342  1.00  0.00     0.144 C 
HETATM   13  C7  UNL     1      26.237   6.112  48.721  1.00  0.00     0.027 C 
BRANCH  13  14
HETATM   14  C6  UNL     1      26.755   4.814  49.075  1.00  0.00     0.032 C 
HETATM   15  C5  UNL     1      26.057   4.116  49.926  1.00  0.00     0.068 C 
HETATM   16  N1  UNL     1      24.841   4.428  50.578  1.00  0.00    -0.129 N 
HETATM   17  C4  UNL     1      26.462   2.746  50.396  1.00  0.00     0.090 C 
HETATM   18  O2  UNL     1      24.627   3.568  51.589  1.00  0.00    -0.253 OA
HETATM   19  C3  UNL     1      25.327   2.415  51.320  1.00  0.00     0.210 C 
BRANCH  16  20
HETATM   20  O1  UNL     1      23.998   5.445  50.249  1.00  0.00    -0.254 OA
BRANCH  20  21
HETATM   21  C2  UNL     1      22.803   4.974  49.728  1.00  0.00     0.200 C 
HETATM   22  C1  UNL     1      22.771   4.892  48.230  1.00  0.00     0.036 C 
ENDBRANCH  20  21
ENDBRANCH  16  20
ENDBRANCH  13  14
ENDBRANCH  11  12
ENDBRANCH   1  11
BRANCH   8  23
HETATM   23  O5  UNL     1      32.362   3.629  47.917  1.00  0.00    -0.353 OA
HETATM   24  C16 UNL     1      32.185   3.094  46.623  1.00  0.00     0.210 C 
ENDBRANCH   8  23
BRANCH   7  25
HETATM   25  O4  UNL     1      34.485   5.254  48.258  1.00  0.00    -0.353 OA
HETATM   26  C14 UNL     1      35.458   5.572  49.246  1.00  0.00     0.210 C 
ENDBRANCH   7  25
TORSDOF 7
ENDMDL
