MODEL 1
REMARK VINA RESULT:      -7.8      0.000      0.000
REMARK  4 active torsions:
REMARK  status: ('A' for Active; 'I' for Inactive)
REMARK    1  A    between atoms: N2_7  and  C5_8 
REMARK    2  A    between atoms: C5_8  and  O1_9 
REMARK    3  A    between atoms: O1_9  and  S2_10 
REMARK    4  A    between atoms: S2_10  and  C6_11 
ROOT
HETATM    1  C1  UNL     1      17.920  -0.370  51.956  1.00  0.00     0.020 C 
HETATM    2  C2  UNL     1      19.236  -0.242  52.211  1.00  0.00    -0.050 C 
HETATM    3  C3  UNL     1      19.650   0.594  51.092  1.00  0.00     0.126 C 
HETATM    4  N1  UNL     1      20.410   1.277  50.376  1.00  0.00    -0.233 NA
HETATM    5  C4  UNL     1      21.779   1.640  50.457  1.00  0.00     0.197 C 
HETATM    6  S1  UNL     1      22.262   2.087  48.987  1.00  0.00    -0.039 SA
HETATM    7  N2  UNL     1      22.598   1.608  51.689  1.00  0.00    -0.334 N 
HETATM    8  C14 UNL     1      21.937   1.136  52.854  1.00  0.00     0.127 C 
HETATM    9  C15 UNL     1      22.128   0.009  53.652  1.00  0.00     0.020 C 
HETATM   10  C16 UNL     1      20.776  -0.269  54.311  1.00  0.00     0.006 C 
HETATM   11  C17 UNL     1      19.781  -0.874  53.357  1.00  0.00     0.039 C 
ENDROOT
BRANCH   7  12
HETATM   12  C5  UNL     1      23.952   2.074  51.457  1.00  0.00     0.313 C 
BRANCH  12  13
HETATM   13  O1  UNL     1      24.737   2.118  52.593  1.00  0.00    -0.296 OA
BRANCH  13  14
HETATM   14  S2  UNL     1      26.366   1.985  52.113  1.00  0.00     0.027 SA
BRANCH  14  15
HETATM   15  C6  UNL     1      27.207   0.584  52.822  1.00  0.00     0.015 C 
HETATM   16  C7  UNL     1      28.338   0.998  53.414  1.00  0.00    -0.047 C 
HETATM   17  C8  UNL     1      28.575   2.464  53.322  1.00  0.00     0.049 C 
HETATM   18  C9  UNL     1      29.372   0.223  54.135  1.00  0.00     0.008 C 
HETATM   19  C10 UNL     1      29.623  -1.085  53.974  1.00  0.00     0.000 C 
HETATM   20  C11 UNL     1      28.955  -2.031  53.074  1.00  0.00    -0.004 C 
HETATM   21  C12 UNL     1      27.724  -1.832  52.605  1.00  0.00    -0.021 C 
HETATM   22  C13 UNL     1      26.680  -0.806  52.735  1.00  0.00     0.075 C 
ENDBRANCH  14  15
ENDBRANCH  13  14
ENDBRANCH  12  13
ENDBRANCH   7  12
TORSDOF 4
ENDMDL
MODEL 2
REMARK VINA RESULT:      -7.7      3.723      5.445
REMARK  4 active torsions:
REMARK  status: ('A' for Active; 'I' for Inactive)
REMARK    1  A    between atoms: N2_7  and  C5_8 
REMARK    2  A    between atoms: C5_8  and  O1_9 
REMARK    3  A    between atoms: O1_9  and  S2_10 
REMARK    4  A    between atoms: S2_10  and  C6_11 
ROOT
HETATM    1  C1  UNL     1      21.141  -1.532  54.267  1.00  0.00     0.020 C 
HETATM    2  C2  UNL     1      21.850  -0.615  53.581  1.00  0.00    -0.050 C 
HETATM    3  C3  UNL     1      20.841   0.417  53.382  1.00  0.00     0.126 C 
HETATM    4  N1  UNL     1      20.357   1.509  53.021  1.00  0.00    -0.233 NA
HETATM    5  C4  UNL     1      20.886   2.657  52.378  1.00  0.00     0.197 C 
HETATM    6  S1  UNL     1      19.655   3.482  51.745  1.00  0.00    -0.039 SA
HETATM    7  N2  UNL     1      22.321   3.015  52.315  1.00  0.00    -0.334 N 
HETATM    8  C14 UNL     1      23.211   2.092  52.926  1.00  0.00     0.127 C 
HETATM    9  C15 UNL     1      24.212   1.271  52.412  1.00  0.00     0.020 C 
HETATM   10  C16 UNL     1      24.345   0.109  53.398  1.00  0.00     0.006 C 
HETATM   11  C17 UNL     1      23.212  -0.876  53.287  1.00  0.00     0.039 C 
ENDROOT
BRANCH   7  12
HETATM   12  C5  UNL     1      22.541   4.269  51.620  1.00  0.00     0.313 C 
BRANCH  12  13
HETATM   13  O1  UNL     1      23.870   4.554  51.377  1.00  0.00    -0.296 OA
BRANCH  13  14
HETATM   14  S2  UNL     1      24.218   4.115  49.769  1.00  0.00     0.027 SA
BRANCH  14  15
HETATM   15  C6  UNL     1      25.455   5.140  49.000  1.00  0.00     0.015 C 
HETATM   16  C7  UNL     1      26.642   4.513  49.045  1.00  0.00    -0.047 C 
HETATM   17  C8  UNL     1      26.603   3.179  49.702  1.00  0.00     0.049 C 
HETATM   18  C9  UNL     1      27.965   4.947  48.546  1.00  0.00     0.008 C 
HETATM   19  C10 UNL     1      28.346   6.218  48.343  1.00  0.00     0.000 C 
HETATM   20  C11 UNL     1      27.568   7.442  48.559  1.00  0.00    -0.004 C 
HETATM   21  C12 UNL     1      26.236   7.455  48.574  1.00  0.00    -0.021 C 
HETATM   22  C13 UNL     1      25.152   6.475  48.417  1.00  0.00     0.075 C 
ENDBRANCH  14  15
ENDBRANCH  13  14
ENDBRANCH  12  13
ENDBRANCH   7  12
TORSDOF 4
ENDMDL
MODEL 3
REMARK VINA RESULT:      -7.4      4.498      6.980
REMARK  4 active torsions:
REMARK  status: ('A' for Active; 'I' for Inactive)
REMARK    1  A    between atoms: N2_7  and  C5_8 
REMARK    2  A    between atoms: C5_8  and  O1_9 
REMARK    3  A    between atoms: O1_9  and  S2_10 
REMARK    4  A    between atoms: S2_10  and  C6_11 
ROOT
HETATM    1  C1  UNL     1      27.078   9.683  48.978  1.00  0.00     0.020 C 
HETATM    2  C2  UNL     1      27.314   8.360  49.069  1.00  0.00    -0.050 C 
HETATM    3  C3  UNL     1      26.063   7.900  49.654  1.00  0.00     0.126 C 
HETATM    4  N1  UNL     1      25.214   7.094  50.088  1.00  0.00    -0.233 NA
HETATM    5  C4  UNL     1      25.170   5.682  50.212  1.00  0.00     0.197 C 
HETATM    6  S1  UNL     1      24.042   5.315  51.303  1.00  0.00    -0.039 SA
HETATM    7  N2  UNL     1      26.019   4.732  49.459  1.00  0.00    -0.334 N 
HETATM    8  C14 UNL     1      26.966   5.319  48.580  1.00  0.00     0.127 C 
HETATM    9  C15 UNL     1      28.360   5.334  48.572  1.00  0.00     0.020 C 
HETATM   10  C16 UNL     1      28.761   6.598  47.810  1.00  0.00     0.006 C 
HETATM   11  C17 UNL     1      28.559   7.850  48.621  1.00  0.00     0.039 C 
ENDROOT
BRANCH   7  12
HETATM   12  C5  UNL     1      25.710   3.351  49.779  1.00  0.00     0.313 C 
BRANCH  12  13
HETATM   13  O1  UNL     1      26.771   2.644  50.310  1.00  0.00    -0.296 OA
BRANCH  13  14
HETATM   14  S2  UNL     1      26.523   2.506  51.990  1.00  0.00     0.027 SA
BRANCH  14  15
HETATM   15  C6  UNL     1      27.083   0.958  52.669  1.00  0.00     0.015 C 
HETATM   16  C7  UNL     1      28.211   1.162  53.370  1.00  0.00    -0.047 C 
HETATM   17  C8  UNL     1      28.671   2.576  53.387  1.00  0.00     0.049 C 
HETATM   18  C9  UNL     1      29.053   0.201  54.115  1.00  0.00     0.008 C 
HETATM   19  C10 UNL     1      29.118  -1.120  53.892  1.00  0.00     0.000 C 
HETATM   20  C11 UNL     1      28.393  -1.905  52.886  1.00  0.00    -0.004 C 
HETATM   21  C12 UNL     1      27.249  -1.495  52.341  1.00  0.00    -0.021 C 
HETATM   22  C13 UNL     1      26.364  -0.328  52.457  1.00  0.00     0.075 C 
ENDBRANCH  14  15
ENDBRANCH  13  14
ENDBRANCH  12  13
ENDBRANCH   7  12
TORSDOF 4
ENDMDL
MODEL 4
REMARK VINA RESULT:      -7.4      3.841      5.643
REMARK  4 active torsions:
REMARK  status: ('A' for Active; 'I' for Inactive)
REMARK    1  A    between atoms: N2_7  and  C5_8 
REMARK    2  A    between atoms: C5_8  and  O1_9 
REMARK    3  A    between atoms: O1_9  and  S2_10 
REMARK    4  A    between atoms: S2_10  and  C6_11 
ROOT
HETATM    1  C1  UNL     1      21.481  -0.355  54.808  1.00  0.00     0.020 C 
HETATM    2  C2  UNL     1      21.864   0.277  53.682  1.00  0.00    -0.050 C 
HETATM    3  C3  UNL     1      20.736   1.176  53.478  1.00  0.00     0.126 C 
HETATM    4  N1  UNL     1      20.057   2.080  52.949  1.00  0.00    -0.233 NA
HETATM    5  C4  UNL     1      20.256   2.944  51.842  1.00  0.00     0.197 C 
HETATM    6  S1  UNL     1      18.816   3.501  51.383  1.00  0.00    -0.039 SA
HETATM    7  N2  UNL     1      21.567   3.263  51.235  1.00  0.00    -0.334 N 
HETATM    8  C14 UNL     1      22.687   2.605  51.809  1.00  0.00     0.127 C 
HETATM    9  C15 UNL     1      23.582   1.661  51.309  1.00  0.00     0.020 C 
HETATM   10  C16 UNL     1      24.112   0.902  52.526  1.00  0.00     0.006 C 
HETATM   11  C17 UNL     1      23.105  -0.065  53.089  1.00  0.00     0.039 C 
ENDROOT
BRANCH   7  12
HETATM   12  C5  UNL     1      21.446   4.208  50.140  1.00  0.00     0.313 C 
BRANCH  12  13
HETATM   13  O1  UNL     1      22.419   4.074  49.169  1.00  0.00    -0.296 OA
BRANCH  13  14
HETATM   14  S2  UNL     1      23.132   5.600  48.923  1.00  0.00     0.027 SA
BRANCH  14  15
HETATM   15  C6  UNL     1      24.908   5.588  49.053  1.00  0.00     0.015 C 
HETATM   16  C7  UNL     1      25.410   6.636  48.380  1.00  0.00    -0.047 C 
HETATM   17  C8  UNL     1      24.383   7.493  47.730  1.00  0.00     0.049 C 
HETATM   18  C9  UNL     1      26.815   7.058  48.189  1.00  0.00     0.008 C 
HETATM   19  C10 UNL     1      27.890   6.259  48.272  1.00  0.00     0.000 C 
HETATM   20  C11 UNL     1      27.930   4.822  48.563  1.00  0.00    -0.004 C 
HETATM   21  C12 UNL     1      26.951   4.191  49.211  1.00  0.00    -0.021 C 
HETATM   22  C13 UNL     1      25.658   4.548  49.810  1.00  0.00     0.075 C 
ENDBRANCH  14  15
ENDBRANCH  13  14
ENDBRANCH  12  13
ENDBRANCH   7  12
TORSDOF 4
ENDMDL
MODEL 5
REMARK VINA RESULT:      -7.4      2.654      6.846
REMARK  4 active torsions:
REMARK  status: ('A' for Active; 'I' for Inactive)
REMARK    1  A    between atoms: N2_7  and  C5_8 
REMARK    2  A    between atoms: C5_8  and  O1_9 
REMARK    3  A    between atoms: O1_9  and  S2_10 
REMARK    4  A    between atoms: S2_10  and  C6_11 
ROOT
HETATM    1  C1  UNL     1      28.260   0.185  54.722  1.00  0.00     0.020 C 
HETATM    2  C2  UNL     1      27.219   0.334  53.881  1.00  0.00    -0.050 C 
HETATM    3  C3  UNL     1      26.148  -0.267  54.665  1.00  0.00     0.126 C 
HETATM    4  N1  UNL     1      24.990  -0.630  54.957  1.00  0.00    -0.233 NA
HETATM    5  C4  UNL     1      23.731  -0.521  54.313  1.00  0.00     0.197 C 
HETATM    6  S1  UNL     1      22.749  -1.625  54.956  1.00  0.00    -0.039 SA
HETATM    7  N2  UNL     1      23.401   0.446  53.243  1.00  0.00    -0.334 N 
HETATM    8  C14 UNL     1      24.464   1.290  52.829  1.00  0.00     0.127 C 
HETATM    9  C15 UNL     1      25.156   1.410  51.625  1.00  0.00     0.020 C 
HETATM   10  C16 UNL     1      26.528   1.982  51.987  1.00  0.00     0.006 C 
HETATM   11  C17 UNL     1      27.430   0.961  52.628  1.00  0.00     0.039 C 
ENDROOT
BRANCH   7  12
HETATM   12  C5  UNL     1      22.019   0.335  52.814  1.00  0.00     0.313 C 
BRANCH  12  13
HETATM   13  O1  UNL     1      21.255   1.455  53.077  1.00  0.00    -0.296 OA
BRANCH  13  14
HETATM   14  S2  UNL     1      20.797   2.142  51.588  1.00  0.00     0.027 SA
BRANCH  14  15
HETATM   15  C6  UNL     1      21.975   3.316  50.951  1.00  0.00     0.015 C 
HETATM   16  C7  UNL     1      22.451   2.875  49.776  1.00  0.00    -0.047 C 
HETATM   17  C8  UNL     1      21.885   1.571  49.339  1.00  0.00     0.049 C 
HETATM   18  C9  UNL     1      23.442   3.485  48.863  1.00  0.00     0.008 C 
HETATM   19  C10 UNL     1      24.387   4.371  49.213  1.00  0.00     0.000 C 
HETATM   20  C11 UNL     1      24.656   4.929  50.543  1.00  0.00    -0.004 C 
HETATM   21  C12 UNL     1      23.736   4.972  51.505  1.00  0.00    -0.021 C 
HETATM   22  C13 UNL     1      22.330   4.574  51.663  1.00  0.00     0.075 C 
ENDBRANCH  14  15
ENDBRANCH  13  14
ENDBRANCH  12  13
ENDBRANCH   7  12
TORSDOF 4
ENDMDL
MODEL 6
REMARK VINA RESULT:      -7.3      2.961      5.192
REMARK  4 active torsions:
REMARK  status: ('A' for Active; 'I' for Inactive)
REMARK    1  A    between atoms: N2_7  and  C5_8 
REMARK    2  A    between atoms: C5_8  and  O1_9 
REMARK    3  A    between atoms: O1_9  and  S2_10 
REMARK    4  A    between atoms: S2_10  and  C6_11 
ROOT
HETATM    1  C1  UNL     1      23.698   6.990  47.202  1.00  0.00     0.020 C 
HETATM    2  C2  UNL     1      24.077   6.137  48.173  1.00  0.00    -0.050 C 
HETATM    3  C3  UNL     1      22.861   5.351  48.335  1.00  0.00     0.126 C 
HETATM    4  N1  UNL     1      22.110   4.455  48.773  1.00  0.00    -0.233 NA
HETATM    5  C4  UNL     1      22.277   3.399  49.705  1.00  0.00     0.197 C 
HETATM    6  S1  UNL     1      20.814   2.941  50.201  1.00  0.00    -0.039 SA
HETATM    7  N2  UNL     1      23.576   2.833  50.131  1.00  0.00    -0.334 N 
HETATM    8  C14 UNL     1      24.727   3.446  49.568  1.00  0.00     0.127 C 
HETATM    9  C15 UNL     1      25.769   4.183  50.128  1.00  0.00     0.020 C 
HETATM   10  C16 UNL     1      26.303   5.071  49.003  1.00  0.00     0.006 C 
HETATM   11  C17 UNL     1      25.391   6.229  48.697  1.00  0.00     0.039 C 
ENDROOT
BRANCH   7  12
HETATM   12  C5  UNL     1      23.414   1.737  51.067  1.00  0.00     0.313 C 
BRANCH  12  13
HETATM   13  O1  UNL     1      24.163   1.864  52.221  1.00  0.00    -0.296 OA
BRANCH  13  14
HETATM   14  S2  UNL     1      25.093   0.450  52.403  1.00  0.00     0.027 SA
BRANCH  14  15
HETATM   15  C6  UNL     1      26.816   0.765  52.725  1.00  0.00     0.015 C 
HETATM   16  C7  UNL     1      27.449  -0.400  52.938  1.00  0.00    -0.047 C 
HETATM   17  C8  UNL     1      26.570  -1.597  52.850  1.00  0.00     0.049 C 
HETATM   18  C9  UNL     1      28.872  -0.667  53.244  1.00  0.00     0.008 C 
HETATM   19  C10 UNL     1      29.728   0.203  53.801  1.00  0.00     0.000 C 
HETATM   20  C11 UNL     1      29.469   1.583  54.225  1.00  0.00    -0.004 C 
HETATM   21  C12 UNL     1      28.473   2.314  53.728  1.00  0.00    -0.021 C 
HETATM   22  C13 UNL     1      27.400   2.134  52.740  1.00  0.00     0.075 C 
ENDBRANCH  14  15
ENDBRANCH  13  14
ENDBRANCH  12  13
ENDBRANCH   7  12
TORSDOF 4
ENDMDL
MODEL 7
REMARK VINA RESULT:      -7.2      3.773      6.172
REMARK  4 active torsions:
REMARK  status: ('A' for Active; 'I' for Inactive)
REMARK    1  A    between atoms: N2_7  and  C5_8 
REMARK    2  A    between atoms: C5_8  and  O1_9 
REMARK    3  A    between atoms: O1_9  and  S2_10 
REMARK    4  A    between atoms: S2_10  and  C6_11 
ROOT
HETATM    1  C1  UNL     1      22.995  -1.418  55.428  1.00  0.00     0.020 C 
HETATM    2  C2  UNL     1      22.666  -0.854  54.250  1.00  0.00    -0.050 C 
HETATM    3  C3  UNL     1      21.217  -0.990  54.278  1.00  0.00     0.126 C 
HETATM    4  N1  UNL     1      20.034  -0.865  53.899  1.00  0.00    -0.233 NA
HETATM    5  C4  UNL     1      19.418  -0.255  52.777  1.00  0.00     0.197 C 
HETATM    6  S1  UNL     1      17.944  -0.884  52.617  1.00  0.00    -0.039 SA
HETATM    7  N2  UNL     1      20.040   0.779  51.919  1.00  0.00    -0.334 N 
HETATM    8  C14 UNL     1      21.373   1.135  52.256  1.00  0.00     0.127 C 
HETATM    9  C15 UNL     1      22.585   0.985  51.583  1.00  0.00     0.020 C 
HETATM   10  C16 UNL     1      23.663   0.958  52.668  1.00  0.00     0.006 C 
HETATM   11  C17 UNL     1      23.697  -0.346  53.418  1.00  0.00     0.039 C 
ENDROOT
BRANCH   7  12
HETATM   12  C5  UNL     1      19.143   1.233  50.874  1.00  0.00     0.313 C 
BRANCH  12  13
HETATM   13  O1  UNL     1      18.870   2.587  50.914  1.00  0.00    -0.296 OA
BRANCH  13  14
HETATM   14  S2  UNL     1      19.616   3.314  49.567  1.00  0.00     0.027 SA
BRANCH  14  15
HETATM   15  C6  UNL     1      21.238   3.963  49.912  1.00  0.00     0.015 C 
HETATM   16  C7  UNL     1      22.131   3.392  49.087  1.00  0.00    -0.047 C 
HETATM   17  C8  UNL     1      21.543   2.406  48.141  1.00  0.00     0.049 C 
HETATM   18  C9  UNL     1      23.592   3.594  48.982  1.00  0.00     0.008 C 
HETATM   19  C10 UNL     1      24.391   4.050  49.958  1.00  0.00     0.000 C 
HETATM   20  C11 UNL     1      24.020   4.445  51.322  1.00  0.00    -0.004 C 
HETATM   21  C12 UNL     1      22.785   4.820  51.651  1.00  0.00    -0.021 C 
HETATM   22  C13 UNL     1      21.495   4.982  50.967  1.00  0.00     0.075 C 
ENDBRANCH  14  15
ENDBRANCH  13  14
ENDBRANCH  12  13
ENDBRANCH   7  12
TORSDOF 4
ENDMDL
MODEL 8
REMARK VINA RESULT:      -7.1      2.921      7.011
REMARK  4 active torsions:
REMARK  status: ('A' for Active; 'I' for Inactive)
REMARK    1  A    between atoms: N2_7  and  C5_8 
REMARK    2  A    between atoms: C5_8  and  O1_9 
REMARK    3  A    between atoms: O1_9  and  S2_10 
REMARK    4  A    between atoms: S2_10  and  C6_11 
ROOT
HETATM    1  C1  UNL     1      26.909   0.184  52.518  1.00  0.00     0.020 C 
HETATM    2  C2  UNL     1      26.033   1.192  52.338  1.00  0.00    -0.050 C 
HETATM    3  C3  UNL     1      26.651   1.894  51.221  1.00  0.00     0.126 C 
HETATM    4  N1  UNL     1      26.783   2.746  50.319  1.00  0.00    -0.233 NA
HETATM    5  C4  UNL     1      25.990   3.832  49.866  1.00  0.00     0.197 C 
HETATM    6  S1  UNL     1      26.944   4.828  49.033  1.00  0.00    -0.039 SA
HETATM    7  N2  UNL     1      24.543   3.998  50.125  1.00  0.00    -0.334 N 
HETATM    8  C14 UNL     1      23.942   2.990  50.923  1.00  0.00     0.127 C 
HETATM    9  C15 UNL     1      23.359   3.016  52.189  1.00  0.00     0.020 C 
HETATM   10  C16 UNL     1      23.492   1.595  52.739  1.00  0.00     0.006 C 
HETATM   11  C17 UNL     1      24.895   1.274  53.180  1.00  0.00     0.039 C 
ENDROOT
BRANCH   7  12
HETATM   12  C5  UNL     1      24.010   5.193  49.497  1.00  0.00     0.313 C 
BRANCH  12  13
HETATM   13  O1  UNL     1      23.494   4.983  48.233  1.00  0.00    -0.296 OA
BRANCH  13  14
HETATM   14  S2  UNL     1      21.795   4.988  48.350  1.00  0.00     0.027 SA
BRANCH  14  15
HETATM   15  C6  UNL     1      21.114   3.444  48.921  1.00  0.00     0.015 C 
HETATM   16  C7  UNL     1      20.435   3.652  50.060  1.00  0.00    -0.047 C 
HETATM   17  C8  UNL     1      20.434   5.067  50.521  1.00  0.00     0.049 C 
HETATM   18  C9  UNL     1      19.697   2.696  50.915  1.00  0.00     0.008 C 
HETATM   19  C10 UNL     1      19.913   1.373  50.975  1.00  0.00     0.000 C 
HETATM   20  C11 UNL     1      20.900   0.582  50.233  1.00  0.00    -0.004 C 
HETATM   21  C12 UNL     1      21.429   0.989  49.080  1.00  0.00    -0.021 C 
HETATM   22  C13 UNL     1      21.306   2.157  48.197  1.00  0.00     0.075 C 
ENDBRANCH  14  15
ENDBRANCH  13  14
ENDBRANCH  12  13
ENDBRANCH   7  12
TORSDOF 4
ENDMDL
MODEL 9
REMARK VINA RESULT:      -7.0      3.875      7.198
REMARK  4 active torsions:
REMARK  status: ('A' for Active; 'I' for Inactive)
REMARK    1  A    between atoms: N2_7  and  C5_8 
REMARK    2  A    between atoms: C5_8  and  O1_9 
REMARK    3  A    between atoms: O1_9  and  S2_10 
REMARK    4  A    between atoms: S2_10  and  C6_11 
ROOT
HETATM    1  C1  UNL     1      26.550   7.802  47.269  1.00  0.00     0.020 C 
HETATM    2  C2  UNL     1      26.214   6.824  48.133  1.00  0.00    -0.050 C 
HETATM    3  C3  UNL     1      24.764   6.968  48.155  1.00  0.00     0.126 C 
HETATM    4  N1  UNL     1      23.580   6.711  48.452  1.00  0.00    -0.233 NA
HETATM    5  C4  UNL     1      22.956   5.714  49.244  1.00  0.00     0.197 C 
HETATM    6  S1  UNL     1      21.484   6.238  49.633  1.00  0.00    -0.039 SA
HETATM    7  N2  UNL     1      23.570   4.424  49.632  1.00  0.00    -0.334 N 
HETATM    8  C14 UNL     1      24.903   4.221  49.187  1.00  0.00     0.127 C 
HETATM    9  C15 UNL     1      26.112   4.089  49.867  1.00  0.00     0.020 C 
HETATM   10  C16 UNL     1      27.196   4.532  48.883  1.00  0.00     0.006 C 
HETATM   11  C17 UNL     1      27.238   6.026  48.702  1.00  0.00     0.039 C 
ENDROOT
BRANCH   7  12
HETATM   12  C5  UNL     1      22.666   3.601  50.413  1.00  0.00     0.313 C 
BRANCH  12  13
HETATM   13  O1  UNL     1      22.923   3.613  51.770  1.00  0.00    -0.296 OA
BRANCH  13  14
HETATM   14  S2  UNL     1      23.545   2.088  52.202  1.00  0.00     0.027 SA
BRANCH  14  15
HETATM   15  C6  UNL     1      22.376   1.058  53.065  1.00  0.00     0.015 C 
HETATM   16  C7  UNL     1      23.024   0.026  53.628  1.00  0.00    -0.047 C 
HETATM   17  C8  UNL     1      24.492   0.022  53.387  1.00  0.00     0.049 C 
HETATM   18  C9  UNL     1      22.502  -1.095  54.440  1.00  0.00     0.008 C 
HETATM   19  C10 UNL     1      21.242  -1.556  54.420  1.00  0.00     0.000 C 
HETATM   20  C11 UNL     1      20.115  -1.074  53.613  1.00  0.00    -0.004 C 
HETATM   21  C12 UNL     1      20.065   0.157  53.108  1.00  0.00    -0.021 C 
HETATM   22  C13 UNL     1      20.918   1.354  53.115  1.00  0.00     0.075 C 
ENDBRANCH  14  15
ENDBRANCH  13  14
ENDBRANCH  12  13
ENDBRANCH   7  12
TORSDOF 4
ENDMDL
