MODEL 1
REMARK VINA RESULT:      -8.9      0.000      0.000
REMARK  0 active torsions:
REMARK  status: ('A' for Active; 'I' for Inactive)
ROOT
HETATM    1  C1  UNL     1      19.110  -0.535  52.783  1.00  0.00     0.014 C 
HETATM    2  C2  UNL     1      20.254   0.101  52.899  1.00  0.00    -0.001 C 
HETATM    3  C3  UNL     1      21.577   0.675  53.068  1.00  0.00    -0.036 C 
HETATM    4  C4  UNL     1      21.235   1.882  52.733  1.00  0.00     0.001 C 
HETATM    5  C5  UNL     1      19.983   2.518  52.323  1.00  0.00     0.145 C 
HETATM    6  N1  UNL     1      20.260   3.053  50.965  1.00  0.00    -0.381 N 
HETATM    7  C6  UNL     1      20.520   3.552  49.710  1.00  0.00     0.234 A 
HETATM    8  O1  UNL     1      20.990   4.173  48.901  1.00  0.00    -0.320 OA
HETATM    9  C7  UNL     1      21.560   4.587  49.802  1.00  0.00     0.217 A 
HETATM   10  C8  UNL     1      22.403   5.434  49.898  1.00  0.00    -0.126 C 
HETATM   11  C9  UNL     1      23.372   6.436  49.996  1.00  0.00     0.163 C 
HETATM   12  S1  UNL     1      24.915   5.960  49.156  1.00  0.00    -0.111 SA
HETATM   13  C10 UNL     1      25.692   4.589  49.935  1.00  0.00     0.163 C 
HETATM   14  N2  UNL     1      26.354   3.458  49.811  1.00  0.00    -0.247 NA
HETATM   15  C11 UNL     1      26.722   2.767  51.027  1.00  0.00     0.233 C 
HETATM   16  N3  UNL     1      26.718   1.504  51.289  1.00  0.00    -0.242 NA
HETATM   17  C12 UNL     1      27.129   1.052  52.590  1.00  0.00     0.066 A 
HETATM   18  C13 UNL     1      28.387   1.290  53.100  1.00  0.00     0.032 A 
HETATM   19  C14 UNL     1      28.615   0.837  54.373  1.00  0.00     0.002 A 
HETATM   20  C15 UNL     1      27.581   0.179  55.049  1.00  0.00     0.001 A 
HETATM   21  C16 UNL     1      26.350  -0.011  54.456  1.00  0.00     0.011 A 
HETATM   22  C17 UNL     1      26.075   0.437  53.169  1.00  0.00    -0.002 A 
HETATM   23  C18 UNL     1      24.679   0.311  52.695  1.00  0.00     0.310 C 
HETATM   24  N4  UNL     1      23.836  -0.038  53.805  1.00  0.00     0.091 NA
HETATM   25  C19 UNL     1      22.502  -0.371  53.520  1.00  0.00     0.308 C 
HETATM   26  H7  UNL     1      19.653   2.637  50.189  1.00  0.00     0.156 HD
HETATM   27  H18 UNL     1      23.953   0.599  54.617  1.00  0.00     0.316 HD
ENDROOT
TORSDOF 0
ENDMDL
MODEL 2
REMARK VINA RESULT:      -8.4      2.337      6.405
REMARK  0 active torsions:
REMARK  status: ('A' for Active; 'I' for Inactive)
ROOT
HETATM    1  C1  UNL     1      23.072  -1.553  55.658  1.00  0.00     0.014 C 
HETATM    2  C2  UNL     1      22.758  -0.825  54.611  1.00  0.00    -0.001 C 
HETATM    3  C3  UNL     1      22.277  -0.005  53.513  1.00  0.00    -0.036 C 
HETATM    4  C4  UNL     1      23.386  -0.035  52.838  1.00  0.00     0.001 C 
HETATM    5  C5  UNL     1      24.695  -0.654  53.041  1.00  0.00     0.145 C 
HETATM    6  N1  UNL     1      25.649   0.485  53.068  1.00  0.00    -0.381 N 
HETATM    7  C6  UNL     1      26.531   1.539  53.089  1.00  0.00     0.234 A 
HETATM    8  O1  UNL     1      27.114   2.431  52.733  1.00  0.00    -0.320 OA
HETATM    9  C7  UNL     1      26.529   2.203  51.777  1.00  0.00     0.217 A 
HETATM   10  C8  UNL     1      26.519   2.726  50.699  1.00  0.00    -0.126 C 
HETATM   11  C9  UNL     1      26.532   3.336  49.441  1.00  0.00     0.163 C 
HETATM   12  S1  UNL     1      25.881   5.034  49.513  1.00  0.00    -0.111 SA
HETATM   13  C10 UNL     1      24.177   5.067  49.945  1.00  0.00     0.163 C 
HETATM   14  N2  UNL     1      23.203   5.645  50.615  1.00  0.00    -0.247 NA
HETATM   15  C11 UNL     1      21.881   5.069  50.495  1.00  0.00     0.233 C 
HETATM   16  N3  UNL     1      20.971   4.904  51.394  1.00  0.00    -0.242 NA
HETATM   17  C12 UNL     1      19.721   4.296  51.029  1.00  0.00     0.066 A 
HETATM   18  C13 UNL     1      18.877   4.836  50.084  1.00  0.00     0.032 A 
HETATM   19  C14 UNL     1      17.743   4.118  49.810  1.00  0.00     0.002 A 
HETATM   20  C15 UNL     1      17.525   2.915  50.493  1.00  0.00     0.001 A 
HETATM   21  C16 UNL     1      18.432   2.451  51.424  1.00  0.00     0.011 A 
HETATM   22  C17 UNL     1      19.597   3.147  51.728  1.00  0.00    -0.002 A 
HETATM   23  C18 UNL     1      20.564   2.481  52.629  1.00  0.00     0.310 C 
HETATM   24  N4  UNL     1      20.177   1.108  52.801  1.00  0.00     0.091 NA
HETATM   25  C19 UNL     1      20.876   0.357  53.759  1.00  0.00     0.308 C 
HETATM   26  H7  UNL     1      26.181   0.599  53.989  1.00  0.00     0.156 HD
HETATM   27  H18 UNL     1      20.027   0.615  51.899  1.00  0.00     0.316 HD
ENDROOT
TORSDOF 0
ENDMDL
MODEL 3
REMARK VINA RESULT:      -8.4      2.862      5.489
REMARK  0 active torsions:
REMARK  status: ('A' for Active; 'I' for Inactive)
ROOT
HETATM    1  C1  UNL     1      21.948   7.442  50.255  1.00  0.00     0.014 C 
HETATM    2  C2  UNL     1      22.133   6.149  50.392  1.00  0.00    -0.001 C 
HETATM    3  C3  UNL     1      22.472   4.751  50.595  1.00  0.00    -0.036 C 
HETATM    4  C4  UNL     1      21.342   4.283  50.160  1.00  0.00     0.001 C 
HETATM    5  C5  UNL     1      20.116   4.883  49.633  1.00  0.00     0.145 C 
HETATM    6  N1  UNL     1      19.049   4.442  50.569  1.00  0.00    -0.381 N 
HETATM    7  C6  UNL     1      18.063   4.030  51.433  1.00  0.00     0.234 A 
HETATM    8  O1  UNL     1      17.373   3.342  51.992  1.00  0.00    -0.320 OA
HETATM    9  C7  UNL     1      17.932   2.567  51.363  1.00  0.00     0.217 A 
HETATM   10  C8  UNL     1      17.835   1.375  51.286  1.00  0.00    -0.126 C 
HETATM   11  C9  UNL     1      17.698  -0.013  51.195  1.00  0.00     0.163 C 
HETATM   12  S1  UNL     1      18.169  -0.837  52.748  1.00  0.00    -0.111 SA
HETATM   13  C10 UNL     1      19.878  -0.637  53.106  1.00  0.00     0.163 C 
HETATM   14  N2  UNL     1      20.816  -0.426  54.005  1.00  0.00    -0.247 NA
HETATM   15  C11 UNL     1      22.184  -0.374  53.537  1.00  0.00     0.233 C 
HETATM   16  N3  UNL     1      23.148   0.402  53.899  1.00  0.00    -0.242 NA
HETATM   17  C12 UNL     1      24.437   0.263  53.278  1.00  0.00     0.066 A 
HETATM   18  C13 UNL     1      25.173  -0.899  53.339  1.00  0.00     0.032 A 
HETATM   19  C14 UNL     1      26.362  -0.894  52.659  1.00  0.00     0.002 A 
HETATM   20  C15 UNL     1      26.738   0.263  51.967  1.00  0.00     0.001 A 
HETATM   21  C16 UNL     1      25.932   1.382  51.961  1.00  0.00     0.011 A 
HETATM   22  C17 UNL     1      24.715   1.418  52.634  1.00  0.00    -0.002 A 
HETATM   23  C18 UNL     1      23.868   2.614  52.434  1.00  0.00     0.310 C 
HETATM   24  N4  UNL     1      24.406   3.395  51.354  1.00  0.00     0.091 NA
HETATM   25  C19 UNL     1      23.836   4.658  51.127  1.00  0.00     0.308 C 
HETATM   26  H7  UNL     1      18.552   5.237  51.085  1.00  0.00     0.156 HD
HETATM   27  H18 UNL     1      24.564   2.837  50.492  1.00  0.00     0.316 HD
ENDROOT
TORSDOF 0
ENDMDL
MODEL 4
REMARK VINA RESULT:      -8.4      1.795      5.822
REMARK  0 active torsions:
REMARK  status: ('A' for Active; 'I' for Inactive)
ROOT
HETATM    1  C1  UNL     1      28.406   2.482  53.430  1.00  0.00     0.014 C 
HETATM    2  C2  UNL     1      27.224   2.108  52.995  1.00  0.00    -0.001 C 
HETATM    3  C3  UNL     1      25.898   1.629  52.645  1.00  0.00    -0.036 C 
HETATM    4  C4  UNL     1      25.894   2.133  51.448  1.00  0.00     0.001 C 
HETATM    5  C5  UNL     1      26.848   2.912  50.658  1.00  0.00     0.145 C 
HETATM    6  N1  UNL     1      26.135   4.180  50.354  1.00  0.00    -0.381 N 
HETATM    7  C6  UNL     1      25.473   5.351  50.069  1.00  0.00     0.234 A 
HETATM    8  O1  UNL     1      24.699   6.046  49.646  1.00  0.00    -0.320 OA
HETATM    9  C7  UNL     1      24.303   5.058  49.228  1.00  0.00     0.217 A 
HETATM   10  C8  UNL     1      23.359   4.800  48.537  1.00  0.00    -0.126 C 
HETATM   11  C9  UNL     1      22.263   4.518  47.716  1.00  0.00     0.163 C 
HETATM   12  S1  UNL     1      20.688   4.871  48.555  1.00  0.00    -0.111 SA
HETATM   13  C10 UNL     1      20.424   3.811  49.933  1.00  0.00     0.163 C 
HETATM   14  N2  UNL     1      19.995   3.667  51.169  1.00  0.00    -0.247 NA
HETATM   15  C11 UNL     1      20.092   2.349  51.757  1.00  0.00     0.233 C 
HETATM   16  N3  UNL     1      20.416   2.005  52.956  1.00  0.00    -0.242 NA
HETATM   17  C12 UNL     1      20.446   0.612  53.308  1.00  0.00     0.066 A 
HETATM   18  C13 UNL     1      19.336  -0.201  53.232  1.00  0.00     0.032 A 
HETATM   19  C14 UNL     1      19.532  -1.517  53.556  1.00  0.00     0.002 A 
HETATM   20  C15 UNL     1      20.813  -1.935  53.933  1.00  0.00     0.001 A 
HETATM   21  C16 UNL     1      21.867  -1.047  53.977  1.00  0.00     0.011 A 
HETATM   22  C17 UNL     1      21.713   0.296  53.652  1.00  0.00    -0.002 A 
HETATM   23  C18 UNL     1      22.941   1.120  53.589  1.00  0.00     0.310 C 
HETATM   24  N4  UNL     1      24.089   0.257  53.645  1.00  0.00     0.091 NA
HETATM   25  C19 UNL     1      25.347   0.868  53.772  1.00  0.00     0.308 C 
HETATM   26  H7  UNL     1      26.598   5.059  50.751  1.00  0.00     0.156 HD
HETATM   27  H18 UNL     1      24.054  -0.506  52.942  1.00  0.00     0.316 HD
ENDROOT
TORSDOF 0
ENDMDL
MODEL 5
REMARK VINA RESULT:      -8.4      2.450      6.275
REMARK  0 active torsions:
REMARK  status: ('A' for Active; 'I' for Inactive)
ROOT
HETATM    1  C1  UNL     1      26.795  -0.467  52.334  1.00  0.00     0.014 C 
HETATM    2  C2  UNL     1      26.211   0.681  52.073  1.00  0.00    -0.001 C 
HETATM    3  C3  UNL     1      25.685   1.984  51.704  1.00  0.00    -0.036 C 
HETATM    4  C4  UNL     1      24.574   1.863  52.366  1.00  0.00     0.001 C 
HETATM    5  C5  UNL     1      23.989   0.821  53.209  1.00  0.00     0.145 C 
HETATM    6  N1  UNL     1      22.719   0.456  52.530  1.00  0.00    -0.381 N 
HETATM    7  C6  UNL     1      21.542   0.124  51.902  1.00  0.00     0.234 A 
HETATM    8  O1  UNL     1      20.506   0.232  51.482  1.00  0.00    -0.320 OA
HETATM    9  C7  UNL     1      20.641   1.286  51.906  1.00  0.00     0.217 A 
HETATM   10  C8  UNL     1      19.918   2.241  51.926  1.00  0.00    -0.126 C 
HETATM   11  C9  UNL     1      19.057   3.342  51.957  1.00  0.00     0.163 C 
HETATM   12  S1  UNL     1      18.731   3.986  50.287  1.00  0.00    -0.111 SA
HETATM   13  C10 UNL     1      20.180   4.647  49.543  1.00  0.00     0.163 C 
HETATM   14  N2  UNL     1      20.915   4.795  48.461  1.00  0.00    -0.247 NA
HETATM   15  C11 UNL     1      22.140   5.554  48.590  1.00  0.00     0.233 C 
HETATM   16  N3  UNL     1      23.297   5.344  48.059  1.00  0.00    -0.242 NA
HETATM   17  C12 UNL     1      24.377   6.248  48.342  1.00  0.00     0.066 A 
HETATM   18  C13 UNL     1      24.330   7.590  48.031  1.00  0.00     0.032 A 
HETATM   19  C14 UNL     1      25.418   8.333  48.406  1.00  0.00     0.002 A 
HETATM   20  C15 UNL     1      26.477   7.694  49.060  1.00  0.00     0.001 A 
HETATM   21  C16 UNL     1      26.435   6.342  49.332  1.00  0.00     0.011 A 
HETATM   22  C17 UNL     1      25.348   5.552  48.974  1.00  0.00    -0.002 A 
HETATM   23  C18 UNL     1      25.346   4.151  49.450  1.00  0.00     0.310 C 
HETATM   24  N4  UNL     1      26.395   3.982  50.417  1.00  0.00     0.091 NA
HETATM   25  C19 UNL     1      26.662   2.675  50.856  1.00  0.00     0.308 C 
HETATM   26  H7  UNL     1      22.665  -0.560  52.200  1.00  0.00     0.156 HD
HETATM   27  H18 UNL     1      26.360   4.689  51.178  1.00  0.00     0.316 HD
ENDROOT
TORSDOF 0
ENDMDL
MODEL 6
REMARK VINA RESULT:      -8.4      2.430      5.292
REMARK  0 active torsions:
REMARK  status: ('A' for Active; 'I' for Inactive)
ROOT
HETATM    1  C1  UNL     1      24.903   7.064  48.326  1.00  0.00     0.014 C 
HETATM    2  C2  UNL     1      24.692   5.838  48.747  1.00  0.00    -0.001 C 
HETATM    3  C3  UNL     1      24.588   4.492  49.284  1.00  0.00    -0.036 C 
HETATM    4  C4  UNL     1      23.443   4.225  48.732  1.00  0.00     0.001 C 
HETATM    5  C5  UNL     1      22.525   4.961  47.863  1.00  0.00     0.145 C 
HETATM    6  N1  UNL     1      21.257   5.036  48.634  1.00  0.00    -0.381 N 
HETATM    7  C6  UNL     1      20.083   5.101  49.348  1.00  0.00     0.234 A 
HETATM    8  O1  UNL     1      19.155   4.760  49.880  1.00  0.00    -0.320 OA
HETATM    9  C7  UNL     1      19.553   3.743  49.540  1.00  0.00     0.217 A 
HETATM   10  C8  UNL     1      19.134   2.629  49.680  1.00  0.00    -0.126 C 
HETATM   11  C9  UNL     1      18.622   1.338  49.836  1.00  0.00     0.163 C 
HETATM   12  S1  UNL     1      18.617   0.826  51.582  1.00  0.00    -0.111 SA
HETATM   13  C10 UNL     1      20.245   0.680  52.230  1.00  0.00     0.163 C 
HETATM   14  N2  UNL     1      21.069   0.866  53.238  1.00  0.00    -0.247 NA
HETATM   15  C11 UNL     1      22.447   0.465  53.053  1.00  0.00     0.233 C 
HETATM   16  N3  UNL     1      23.531   1.045  53.442  1.00  0.00    -0.242 NA
HETATM   17  C12 UNL     1      24.801   0.448  53.131  1.00  0.00     0.066 A 
HETATM   18  C13 UNL     1      25.161  -0.810  53.563  1.00  0.00     0.032 A 
HETATM   19  C14 UNL     1      26.385  -1.261  53.147  1.00  0.00     0.002 A 
HETATM   20  C15 UNL     1      27.168  -0.434  52.332  1.00  0.00     0.001 A 
HETATM   21  C16 UNL     1      26.721   0.812  51.946  1.00  0.00     0.011 A 
HETATM   22  C17 UNL     1      25.483   1.307  52.342  1.00  0.00    -0.002 A 
HETATM   23  C18 UNL     1      25.047   2.590  51.746  1.00  0.00     0.310 C 
HETATM   24  N4  UNL     1      25.931   2.929  50.665  1.00  0.00     0.091 NA
HETATM   25  C19 UNL     1      25.781   4.199  50.085  1.00  0.00     0.308 C 
HETATM   26  H7  UNL     1      20.939   6.029  48.875  1.00  0.00     0.156 HD
HETATM   27  H18 UNL     1      26.042   2.157  49.978  1.00  0.00     0.316 HD
ENDROOT
TORSDOF 0
ENDMDL
MODEL 7
REMARK VINA RESULT:      -8.0      2.146      6.276
REMARK  0 active torsions:
REMARK  status: ('A' for Active; 'I' for Inactive)
ROOT
HETATM    1  C1  UNL     1      27.552   2.114  53.011  1.00  0.00     0.014 C 
HETATM    2  C2  UNL     1      26.377   2.111  52.422  1.00  0.00    -0.001 C 
HETATM    3  C3  UNL     1      25.029   2.034  51.887  1.00  0.00    -0.036 C 
HETATM    4  C4  UNL     1      25.291   2.677  50.790  1.00  0.00     0.001 C 
HETATM    5  C5  UNL     1      26.491   3.288  50.219  1.00  0.00     0.145 C 
HETATM    6  N1  UNL     1      26.143   4.723  50.060  1.00  0.00    -0.381 N 
HETATM    7  C6  UNL     1      25.816   6.051  49.909  1.00  0.00     0.234 A 
HETATM    8  O1  UNL     1      25.287   6.968  49.537  1.00  0.00    -0.320 OA
HETATM    9  C7  UNL     1      24.722   6.177  48.935  1.00  0.00     0.217 A 
HETATM   10  C8  UNL     1      23.836   6.260  48.133  1.00  0.00    -0.126 C 
HETATM   11  C9  UNL     1      22.814   6.374  47.186  1.00  0.00     0.163 C 
HETATM   12  S1  UNL     1      21.276   6.999  47.932  1.00  0.00    -0.111 SA
HETATM   13  C10 UNL     1      20.602   5.867  49.096  1.00  0.00     0.163 C 
HETATM   14  N2  UNL     1      20.003   5.673  50.252  1.00  0.00    -0.247 NA
HETATM   15  C11 UNL     1      19.713   4.307  50.629  1.00  0.00     0.233 C 
HETATM   16  N3  UNL     1      19.796   3.736  51.783  1.00  0.00    -0.242 NA
HETATM   17  C12 UNL     1      19.452   2.347  51.909  1.00  0.00     0.066 A 
HETATM   18  C13 UNL     1      18.199   1.858  51.610  1.00  0.00     0.032 A 
HETATM   19  C14 UNL     1      18.036   0.504  51.736  1.00  0.00     0.002 A 
HETATM   20  C15 UNL     1      19.126  -0.270  52.151  1.00  0.00     0.001 A 
HETATM   21  C16 UNL     1      20.347   0.309  52.426  1.00  0.00     0.011 A 
HETATM   22  C17 UNL     1      20.557   1.679  52.307  1.00  0.00    -0.002 A 
HETATM   23  C18 UNL     1      21.943   2.167  52.482  1.00  0.00     0.310 C 
HETATM   24  N4  UNL     1      22.838   1.043  52.498  1.00  0.00     0.091 NA
HETATM   25  C19 UNL     1      24.180   1.293  52.827  1.00  0.00     0.308 C 
HETATM   26  H7  UNL     1      26.748   5.396  50.630  1.00  0.00     0.156 HD
HETATM   27  H18 UNL     1      22.709   0.413  51.682  1.00  0.00     0.316 HD
ENDROOT
TORSDOF 0
ENDMDL
MODEL 8
REMARK VINA RESULT:      -8.0      2.730      6.894
REMARK  0 active torsions:
REMARK  status: ('A' for Active; 'I' for Inactive)
ROOT
HETATM    1  C1  UNL     1      25.273  -0.520  55.776  1.00  0.00     0.014 C 
HETATM    2  C2  UNL     1      24.282  -0.670  54.926  1.00  0.00    -0.001 C 
HETATM    3  C3  UNL     1      23.105  -0.882  54.101  1.00  0.00    -0.036 C 
HETATM    4  C4  UNL     1      23.661  -0.506  52.990  1.00  0.00     0.001 C 
HETATM    5  C5  UNL     1      24.993  -0.029  52.617  1.00  0.00     0.145 C 
HETATM    6  N1  UNL     1      24.763   1.328  52.057  1.00  0.00    -0.381 N 
HETATM    7  C6  UNL     1      24.548   2.581  51.535  1.00  0.00     0.234 A 
HETATM    8  O1  UNL     1      24.172   3.383  50.845  1.00  0.00    -0.320 OA
HETATM    9  C7  UNL     1      23.736   2.469  50.314  1.00  0.00     0.217 A 
HETATM   10  C8  UNL     1      23.081   2.356  49.317  1.00  0.00    -0.126 C 
HETATM   11  C9  UNL     1      22.332   2.240  48.143  1.00  0.00     0.163 C 
HETATM   12  S1  UNL     1      20.688   3.002  48.318  1.00  0.00    -0.111 SA
HETATM   13  C10 UNL     1      19.695   2.160  49.499  1.00  0.00     0.163 C 
HETATM   14  N2  UNL     1      18.820   2.231  50.479  1.00  0.00    -0.247 NA
HETATM   15  C11 UNL     1      18.380   0.985  51.068  1.00  0.00     0.233 C 
HETATM   16  N3  UNL     1      18.149   0.695  52.303  1.00  0.00    -0.242 NA
HETATM   17  C12 UNL     1      17.718  -0.632  52.648  1.00  0.00     0.066 A 
HETATM   18  C13 UNL     1      16.556  -1.190  52.161  1.00  0.00     0.032 A 
HETATM   19  C14 UNL     1      16.303  -2.480  52.543  1.00  0.00     0.002 A 
HETATM   20  C15 UNL     1      17.218  -3.127  53.382  1.00  0.00     0.001 A 
HETATM   21  C16 UNL     1      18.359  -2.487  53.818  1.00  0.00     0.011 A 
HETATM   22  C17 UNL     1      18.657  -1.179  53.450  1.00  0.00    -0.002 A 
HETATM   23  C18 UNL     1      19.978  -0.649  53.854  1.00  0.00     0.310 C 
HETATM   24  N4  UNL     1      20.787  -1.730  54.347  1.00  0.00     0.091 NA
HETATM   25  C19 UNL     1      22.016  -1.397  54.939  1.00  0.00     0.308 C 
HETATM   26  H7  UNL     1      25.241   2.119  52.595  1.00  0.00     0.156 HD
HETATM   27  H18 UNL     1      20.834  -2.532  53.688  1.00  0.00     0.316 HD
ENDROOT
TORSDOF 0
ENDMDL
MODEL 9
REMARK VINA RESULT:      -7.7      1.475      2.005
REMARK  0 active torsions:
REMARK  status: ('A' for Active; 'I' for Inactive)
ROOT
HETATM    1  C1  UNL     1      17.156   0.284  51.023  1.00  0.00     0.014 C 
HETATM    2  C2  UNL     1      18.302   0.705  51.509  1.00  0.00    -0.001 C 
HETATM    3  C3  UNL     1      19.604   1.028  52.065  1.00  0.00    -0.036 C 
HETATM    4  C4  UNL     1      19.470   2.315  51.961  1.00  0.00     0.001 C 
HETATM    5  C5  UNL     1      18.415   3.202  51.471  1.00  0.00     0.145 C 
HETATM    6  N1  UNL     1      19.045   3.957  50.358  1.00  0.00    -0.381 N 
HETATM    7  C6  UNL     1      19.631   4.659  49.331  1.00  0.00     0.234 A 
HETATM    8  O1  UNL     1      20.333   5.357  48.799  1.00  0.00    -0.320 OA
HETATM    9  C7  UNL     1      20.723   5.487  49.866  1.00  0.00     0.217 A 
HETATM   10  C8  UNL     1      21.603   6.160  50.322  1.00  0.00    -0.126 C 
HETATM   11  C9  UNL     1      22.622   6.964  50.841  1.00  0.00     0.163 C 
HETATM   12  S1  UNL     1      24.258   6.447  50.236  1.00  0.00    -0.111 SA
HETATM   13  C10 UNL     1      24.696   4.844  50.812  1.00  0.00     0.163 C 
HETATM   14  N2  UNL     1      25.251   3.678  50.561  1.00  0.00    -0.247 NA
HETATM   15  C11 UNL     1      25.262   2.703  51.630  1.00  0.00     0.233 C 
HETATM   16  N3  UNL     1      25.071   1.429  51.584  1.00  0.00    -0.242 NA
HETATM   17  C12 UNL     1      25.129   0.662  52.798  1.00  0.00     0.066 A 
HETATM   18  C13 UNL     1      26.256   0.599  53.588  1.00  0.00     0.032 A 
HETATM   19  C14 UNL     1      26.143  -0.136  54.739  1.00  0.00     0.002 A 
HETATM   20  C15 UNL     1      24.922  -0.757  55.025  1.00  0.00     0.001 A 
HETATM   21  C16 UNL     1      23.844  -0.635  54.172  1.00  0.00     0.011 A 
HETATM   22  C17 UNL     1      23.914   0.105  52.997  1.00  0.00    -0.002 A 
HETATM   23  C18 UNL     1      22.656   0.289  52.240  1.00  0.00     0.310 C 
HETATM   24  N4  UNL     1      21.553  -0.152  53.048  1.00  0.00     0.091 NA
HETATM   25  C19 UNL     1      20.291  -0.215  52.435  1.00  0.00     0.308 C 
HETATM   26  H7  UNL     1      18.591   3.806  49.402  1.00  0.00     0.156 HD
HETATM   27  H18 UNL     1      21.548   0.280  53.992  1.00  0.00     0.316 HD
ENDROOT
TORSDOF 0
ENDMDL
