MODEL 1
REMARK VINA RESULT:      -8.5      0.000      0.000
REMARK  6 active torsions:
REMARK  status: ('A' for Active; 'I' for Inactive)
REMARK    1  A    between atoms: C3_3  and  C4_4 
REMARK    2  A    between atoms: C9_10  and  N2_11 
REMARK    3  A    between atoms: C10_13  and  N4_14 
REMARK    4  A    between atoms: N4_14  and  C11_15 
REMARK    5  A    between atoms: C15_20  and  C16_21 
REMARK    6  A    between atoms: C16_21  and  N6_22 
REMARK       I    between atoms: N6_22  and  C17_23 
ROOT
HETATM    1  N4  UNL     1      23.719   2.733  52.431  1.00  0.00    -0.352 N 
HETATM    2  H13 UNL     1      23.146   3.205  53.193  1.00  0.00     0.163 HD
ENDROOT
BRANCH   1   3
HETATM    3  C10 UNL     1      24.167   1.370  52.351  1.00  0.00     0.242 A 
HETATM    4  C5  UNL     1      23.112   0.378  52.680  1.00  0.00    -0.013 A 
HETATM    5  C4  UNL     1      21.942   0.273  52.066  1.00  0.00     0.011 C 
HETATM    6  C6  UNL     1      23.590  -0.459  53.796  1.00  0.00     0.038 A 
HETATM    7  C7  UNL     1      24.800  -0.026  54.112  1.00  0.00     0.052 A 
HETATM    8  C8  UNL     1      25.886  -0.335  55.082  1.00  0.00     0.226 A 
HETATM    9  N3  UNL     1      25.218   1.063  53.296  1.00  0.00    -0.158 N 
HETATM   10  N1  UNL     1      26.887   0.637  54.739  1.00  0.00    -0.101 NA
HETATM   11  C9  UNL     1      26.533   1.401  53.772  1.00  0.00     0.698 A 
BRANCH   5  12
HETATM   12  C3  UNL     1      21.532   1.143  50.958  1.00  0.00    -0.004 C 
HETATM   13  C2  UNL     1      21.576   0.725  49.708  1.00  0.00    -0.031 C 
HETATM   14  C1  UNL     1      21.148   1.643  48.606  1.00  0.00     0.036 C 
ENDBRANCH   5  12
BRANCH  11  15
HETATM   15  N2  UNL     1      27.282   2.471  53.178  1.00  0.00    -0.233 N 
HETATM   16  H10 UNL     1      27.217   3.439  53.564  1.00  0.00     0.174 HD
HETATM   17  H11 UNL     1      27.869   2.179  52.356  1.00  0.00     0.174 HD
ENDBRANCH  11  15
ENDBRANCH   1   3
BRANCH   1  18
HETATM   18  C11 UNL     1      24.070   3.609  51.369  1.00  0.00     0.096 C 
HETATM   19  N5  UNL     1      23.596   4.786  51.378  1.00  0.00    -0.272 NA
HETATM   20  C12 UNL     1      23.731   5.903  50.500  1.00  0.00     0.106 C 
HETATM   21  C13 UNL     1      24.440   6.985  51.237  1.00  0.00     0.034 C 
HETATM   22  C14 UNL     1      24.211   5.608  49.124  1.00  0.00     0.033 C 
HETATM   23  C15 UNL     1      25.574   5.078  48.956  1.00  0.00     0.006 C 
HETATM   24  C19 UNL     1      26.035   4.056  49.952  1.00  0.00     0.013 C 
HETATM   25  C20 UNL     1      24.976   3.069  50.323  1.00  0.00     0.078 C 
BRANCH  23  26
HETATM   26  C16 UNL     1      26.606   6.163  48.805  1.00  0.00     0.127 C 
BRANCH  26  27
HETATM   27  N6  UNL     1      27.953   5.666  49.021  1.00  0.00    -0.361 N 
HETATM   28  C17 UNL     1      28.885   6.228  48.105  1.00  0.00     0.213 C 
HETATM   29  C18 UNL     1      30.334   5.831  48.177  1.00  0.00     0.117 C 
HETATM   30  O1  UNL     1      28.395   7.045  47.278  1.00  0.00    -0.274 OA
HETATM   31  H23 UNL     1      28.323   4.972  49.736  1.00  0.00     0.162 HD
ENDBRANCH  26  27
ENDBRANCH  23  26
ENDBRANCH   1  18
TORSDOF 6
ENDMDL
MODEL 2
REMARK VINA RESULT:      -8.4      3.606      6.478
REMARK  6 active torsions:
REMARK  status: ('A' for Active; 'I' for Inactive)
REMARK    1  A    between atoms: C3_3  and  C4_4 
REMARK    2  A    between atoms: C9_10  and  N2_11 
REMARK    3  A    between atoms: C10_13  and  N4_14 
REMARK    4  A    between atoms: N4_14  and  C11_15 
REMARK    5  A    between atoms: C15_20  and  C16_21 
REMARK    6  A    between atoms: C16_21  and  N6_22 
REMARK       I    between atoms: N6_22  and  C17_23 
ROOT
HETATM    1  N4  UNL     1      20.941   1.263  52.144  1.00  0.00    -0.352 N 
HETATM    2  H13 UNL     1      20.655   2.177  52.607  1.00  0.00     0.163 HD
ENDROOT
BRANCH   1   3
HETATM    3  C10 UNL     1      20.136   0.344  51.387  1.00  0.00     0.242 A 
HETATM    4  C5  UNL     1      19.420   0.978  50.251  1.00  0.00    -0.013 A 
HETATM    5  C4  UNL     1      19.994   1.649  49.263  1.00  0.00     0.011 C 
HETATM    6  C6  UNL     1      17.975   0.732  50.414  1.00  0.00     0.038 A 
HETATM    7  C7  UNL     1      17.827   0.028  51.525  1.00  0.00     0.052 A 
HETATM    8  C8  UNL     1      16.735  -0.582  52.331  1.00  0.00     0.226 A 
HETATM    9  N3  UNL     1      19.069  -0.246  52.164  1.00  0.00    -0.158 N 
HETATM   10  N1  UNL     1      17.456  -1.185  53.417  1.00  0.00    -0.101 NA
HETATM   11  C9  UNL     1      18.723  -1.007  53.336  1.00  0.00     0.698 A 
BRANCH   5  12
HETATM   12  C3  UNL     1      21.444   1.855  49.164  1.00  0.00    -0.004 C 
HETATM   13  C2  UNL     1      21.951   3.054  48.955  1.00  0.00    -0.031 C 
HETATM   14  C1  UNL     1      23.436   3.222  48.860  1.00  0.00     0.036 C 
ENDBRANCH   5  12
BRANCH  11  15
HETATM   15  N2  UNL     1      19.736  -1.469  54.242  1.00  0.00    -0.233 N 
HETATM   16  H10 UNL     1      20.624  -0.933  54.360  1.00  0.00     0.174 HD
HETATM   17  H11 UNL     1      19.488  -2.359  54.743  1.00  0.00     0.174 HD
ENDBRANCH  11  15
ENDBRANCH   1   3
BRANCH   1  18
HETATM   18  C11 UNL     1      22.313   0.946  52.327  1.00  0.00     0.096 C 
HETATM   19  N5  UNL     1      23.167   1.876  52.203  1.00  0.00    -0.272 NA
HETATM   20  C12 UNL     1      24.590   1.921  52.314  1.00  0.00     0.106 C 
HETATM   21  C13 UNL     1      24.933   2.777  53.484  1.00  0.00     0.034 C 
HETATM   22  C14 UNL     1      25.302   0.620  52.207  1.00  0.00     0.033 C 
HETATM   23  C15 UNL     1      25.070  -0.395  53.248  1.00  0.00     0.006 C 
HETATM   24  C19 UNL     1      23.662  -0.555  53.740  1.00  0.00     0.013 C 
HETATM   25  C20 UNL     1      22.640  -0.466  52.653  1.00  0.00     0.078 C 
BRANCH  23  26
HETATM   26  C16 UNL     1      26.018  -0.265  54.409  1.00  0.00     0.127 C 
BRANCH  26  27
HETATM   27  N6  UNL     1      27.306  -0.873  54.131  1.00  0.00    -0.361 N 
HETATM   28  C17 UNL     1      28.369   0.069  54.194  1.00  0.00     0.213 C 
HETATM   29  C18 UNL     1      29.781  -0.380  53.934  1.00  0.00     0.117 C 
HETATM   30  O1  UNL     1      28.021   1.249  54.475  1.00  0.00    -0.274 OA
HETATM   31  H23 UNL     1      27.554  -1.880  53.898  1.00  0.00     0.162 HD
ENDBRANCH  26  27
ENDBRANCH  23  26
ENDBRANCH   1  18
TORSDOF 6
ENDMDL
MODEL 3
REMARK VINA RESULT:      -8.0      2.513      3.495
REMARK  6 active torsions:
REMARK  status: ('A' for Active; 'I' for Inactive)
REMARK    1  A    between atoms: C3_3  and  C4_4 
REMARK    2  A    between atoms: C9_10  and  N2_11 
REMARK    3  A    between atoms: C10_13  and  N4_14 
REMARK    4  A    between atoms: N4_14  and  C11_15 
REMARK    5  A    between atoms: C15_20  and  C16_21 
REMARK    6  A    between atoms: C16_21  and  N6_22 
REMARK       I    between atoms: N6_22  and  C17_23 
ROOT
HETATM    1  N4  UNL     1      23.760   2.058  53.049  1.00  0.00    -0.352 N 
HETATM    2  H13 UNL     1      23.572   2.527  53.985  1.00  0.00     0.163 HD
ENDROOT
BRANCH   1   3
HETATM    3  C10 UNL     1      24.677   0.996  52.740  1.00  0.00     0.242 A 
HETATM    4  C5  UNL     1      24.670  -0.105  53.736  1.00  0.00    -0.013 A 
HETATM    5  C4  UNL     1      23.606  -0.814  54.086  1.00  0.00     0.011 C 
HETATM    6  C6  UNL     1      26.038  -0.268  54.262  1.00  0.00     0.038 A 
HETATM    7  C7  UNL     1      26.795   0.632  53.655  1.00  0.00     0.052 A 
HETATM    8  C8  UNL     1      28.213   1.081  53.639  1.00  0.00     0.226 A 
HETATM    9  N3  UNL     1      26.058   1.426  52.730  1.00  0.00    -0.158 N 
HETATM   10  N1  UNL     1      28.188   2.141  52.670  1.00  0.00    -0.101 NA
HETATM   11  C9  UNL     1      27.023   2.336  52.171  1.00  0.00     0.698 A 
BRANCH   5  12
HETATM   12  C3  UNL     1      22.270  -0.596  53.518  1.00  0.00    -0.004 C 
HETATM   13  C2  UNL     1      21.182  -0.803  54.233  1.00  0.00    -0.031 C 
HETATM   14  C1  UNL     1      19.837  -0.569  53.618  1.00  0.00     0.036 C 
ENDBRANCH   5  12
BRANCH  11  15
HETATM   15  N2  UNL     1      26.639   3.306  51.185  1.00  0.00    -0.233 N 
HETATM   16  H10 UNL     1      26.790   3.115  50.170  1.00  0.00     0.174 HD
HETATM   17  H11 UNL     1      26.214   4.179  51.586  1.00  0.00     0.174 HD
ENDBRANCH  11  15
ENDBRANCH   1   3
BRANCH   1  18
HETATM   18  C11 UNL     1      22.978   2.587  51.988  1.00  0.00     0.096 C 
HETATM   19  N5  UNL     1      22.216   3.572  52.236  1.00  0.00    -0.272 NA
HETATM   20  C12 UNL     1      21.315   4.337  51.436  1.00  0.00     0.106 C 
HETATM   21  C13 UNL     1      21.843   5.727  51.350  1.00  0.00     0.034 C 
HETATM   22  C14 UNL     1      20.868   3.714  50.163  1.00  0.00     0.033 C 
HETATM   23  C15 UNL     1      21.870   3.461  49.115  1.00  0.00     0.006 C 
HETATM   24  C19 UNL     1      23.207   2.949  49.562  1.00  0.00     0.013 C 
HETATM   25  C20 UNL     1      23.119   1.938  50.660  1.00  0.00     0.078 C 
BRANCH  23  26
HETATM   26  C16 UNL     1      22.044   4.629  48.182  1.00  0.00     0.127 C 
BRANCH  26  27
HETATM   27  N6  UNL     1      23.420   5.091  48.139  1.00  0.00    -0.361 N 
HETATM   28  C17 UNL     1      23.508   6.509  48.070  1.00  0.00     0.213 C 
HETATM   29  C18 UNL     1      24.858   7.171  48.018  1.00  0.00     0.117 C 
HETATM   30  O1  UNL     1      22.401   7.113  48.057  1.00  0.00    -0.274 OA
HETATM   31  H23 UNL     1      24.330   4.541  48.153  1.00  0.00     0.162 HD
ENDBRANCH  26  27
ENDBRANCH  23  26
ENDBRANCH   1  18
TORSDOF 6
ENDMDL
MODEL 4
REMARK VINA RESULT:      -7.8      2.922      5.909
REMARK  6 active torsions:
REMARK  status: ('A' for Active; 'I' for Inactive)
REMARK    1  A    between atoms: C3_3  and  C4_4 
REMARK    2  A    between atoms: C9_10  and  N2_11 
REMARK    3  A    between atoms: C10_13  and  N4_14 
REMARK    4  A    between atoms: N4_14  and  C11_15 
REMARK    5  A    between atoms: C15_20  and  C16_21 
REMARK    6  A    between atoms: C16_21  and  N6_22 
REMARK       I    between atoms: N6_22  and  C17_23 
ROOT
HETATM    1  N4  UNL     1      22.204   2.785  52.315  1.00  0.00    -0.352 N 
HETATM    2  H13 UNL     1      21.629   2.713  53.208  1.00  0.00     0.163 HD
ENDROOT
BRANCH   1   3
HETATM    3  C10 UNL     1      21.946   3.564  51.135  1.00  0.00     0.242 A 
HETATM    4  C5  UNL     1      21.716   2.744  49.919  1.00  0.00    -0.013 A 
HETATM    5  C4  UNL     1      20.781   1.814  49.789  1.00  0.00     0.011 C 
HETATM    6  C6  UNL     1      22.700   3.141  48.895  1.00  0.00     0.038 A 
HETATM    7  C7  UNL     1      23.447   4.096  49.427  1.00  0.00     0.052 A 
HETATM    8  C8  UNL     1      24.593   4.967  49.050  1.00  0.00     0.226 A 
HETATM    9  N3  UNL     1      23.060   4.408  50.761  1.00  0.00    -0.158 N 
HETATM   10  N1  UNL     1      24.789   5.746  50.241  1.00  0.00    -0.101 NA
HETATM   11  C9  UNL     1      23.964   5.449  51.176  1.00  0.00     0.698 A 
BRANCH   5  12
HETATM   12  C3  UNL     1      19.832   1.470  50.854  1.00  0.00    -0.004 C 
HETATM   13  C2  UNL     1      19.653   0.220  51.233  1.00  0.00    -0.031 C 
HETATM   14  C1  UNL     1      18.675  -0.089  52.324  1.00  0.00     0.036 C 
ENDBRANCH   5  12
BRANCH  11  15
HETATM   15  N2  UNL     1      23.876   6.024  52.488  1.00  0.00    -0.233 N 
HETATM   16  H10 UNL     1      24.004   7.052  52.623  1.00  0.00     0.174 HD
HETATM   17  H11 UNL     1      23.679   5.327  53.249  1.00  0.00     0.174 HD
ENDBRANCH  11  15
ENDBRANCH   1   3
BRANCH   1  18
HETATM   18  C11 UNL     1      23.375   1.982  52.336  1.00  0.00     0.096 C 
HETATM   19  N5  UNL     1      24.503   2.564  52.373  1.00  0.00    -0.272 NA
HETATM   20  C12 UNL     1      25.849   2.089  52.403  1.00  0.00     0.106 C 
HETATM   21  C13 UNL     1      26.443   2.475  53.713  1.00  0.00     0.034 C 
HETATM   22  C14 UNL     1      26.065   0.687  51.960  1.00  0.00     0.033 C 
HETATM   23  C15 UNL     1      25.471  -0.401  52.755  1.00  0.00     0.006 C 
HETATM   24  C19 UNL     1      24.086  -0.177  53.285  1.00  0.00     0.013 C 
HETATM   25  C20 UNL     1      23.182   0.510  52.312  1.00  0.00     0.078 C 
BRANCH  23  26
HETATM   26  C16 UNL     1      26.379  -0.880  53.855  1.00  0.00     0.127 C 
BRANCH  26  27
HETATM   27  N6  UNL     1      27.691  -1.250  53.355  1.00  0.00    -0.361 N 
HETATM   28  C17 UNL     1      28.740  -0.645  54.101  1.00  0.00     0.213 C 
HETATM   29  C18 UNL     1      30.172  -0.914  53.727  1.00  0.00     0.117 C 
HETATM   30  O1  UNL     1      28.362   0.095  55.050  1.00  0.00    -0.274 OA
HETATM   31  H23 UNL     1      27.964  -1.883  52.545  1.00  0.00     0.162 HD
ENDBRANCH  26  27
ENDBRANCH  23  26
ENDBRANCH   1  18
TORSDOF 6
ENDMDL
MODEL 5
REMARK VINA RESULT:      -7.7      2.207      4.021
REMARK  6 active torsions:
REMARK  status: ('A' for Active; 'I' for Inactive)
REMARK    1  A    between atoms: C3_3  and  C4_4 
REMARK    2  A    between atoms: C9_10  and  N2_11 
REMARK    3  A    between atoms: C10_13  and  N4_14 
REMARK    4  A    between atoms: N4_14  and  C11_15 
REMARK    5  A    between atoms: C15_20  and  C16_21 
REMARK    6  A    between atoms: C16_21  and  N6_22 
REMARK       I    between atoms: N6_22  and  C17_23 
ROOT
HETATM    1  N4  UNL     1      22.836   0.958  51.508  1.00  0.00    -0.352 N 
HETATM    2  H13 UNL     1      23.133   0.213  50.809  1.00  0.00     0.163 HD
ENDROOT
BRANCH   1   3
HETATM    3  C10 UNL     1      22.262   0.793  52.815  1.00  0.00     0.242 A 
HETATM    4  C5  UNL     1      22.832  -0.348  53.575  1.00  0.00    -0.013 A 
HETATM    5  C4  UNL     1      24.115  -0.511  53.865  1.00  0.00     0.011 C 
HETATM    6  C6  UNL     1      21.732  -1.258  53.945  1.00  0.00     0.038 A 
HETATM    7  C7  UNL     1      20.617  -0.732  53.464  1.00  0.00     0.052 A 
HETATM    8  C8  UNL     1      19.161  -1.033  53.420  1.00  0.00     0.226 A 
HETATM    9  N3  UNL     1      20.848   0.494  52.777  1.00  0.00    -0.158 N 
HETATM   10  N1  UNL     1      18.640   0.085  52.683  1.00  0.00    -0.101 NA
HETATM   11  C9  UNL     1      19.547   0.918  52.329  1.00  0.00     0.698 A 
BRANCH   5  12
HETATM   12  C3  UNL     1      25.159   0.440  53.464  1.00  0.00    -0.004 C 
HETATM   13  C2  UNL     1      26.082   0.109  52.583  1.00  0.00    -0.031 C 
HETATM   14  C1  UNL     1      27.130   1.108  52.200  1.00  0.00     0.036 C 
ENDBRANCH   5  12
BRANCH  11  15
HETATM   15  N2  UNL     1      19.383   2.135  51.586  1.00  0.00    -0.233 N 
HETATM   16  H10 UNL     1      19.632   2.173  50.573  1.00  0.00     0.174 HD
HETATM   17  H11 UNL     1      19.002   2.934  52.153  1.00  0.00     0.174 HD
ENDBRANCH  11  15
ENDBRANCH   1   3
BRANCH   1  18
HETATM   18  C11 UNL     1      23.054   2.282  51.043  1.00  0.00     0.096 C 
HETATM   19  N5  UNL     1      22.644   3.246  51.760  1.00  0.00    -0.272 NA
HETATM   20  C12 UNL     1      22.691   4.666  51.611  1.00  0.00     0.106 C 
HETATM   21  C13 UNL     1      23.561   5.213  52.689  1.00  0.00     0.034 C 
HETATM   22  C14 UNL     1      22.930   5.179  50.237  1.00  0.00     0.033 C 
HETATM   23  C15 UNL     1      24.221   4.886  49.593  1.00  0.00     0.006 C 
HETATM   24  C19 UNL     1      24.786   3.512  49.795  1.00  0.00     0.013 C 
HETATM   25  C20 UNL     1      23.753   2.432  49.741  1.00  0.00     0.078 C 
BRANCH  23  26
HETATM   26  C16 UNL     1      25.266   5.928  49.886  1.00  0.00     0.127 C 
BRANCH  26  27
HETATM   27  N6  UNL     1      26.612   5.415  49.703  1.00  0.00    -0.361 N 
HETATM   28  C17 UNL     1      27.274   6.024  48.601  1.00  0.00     0.213 C 
HETATM   29  C18 UNL     1      28.681   5.617  48.259  1.00  0.00     0.117 C 
HETATM   30  O1  UNL     1      26.595   6.887  47.981  1.00  0.00    -0.274 OA
HETATM   31  H23 UNL     1      27.148   4.681  50.255  1.00  0.00     0.162 HD
ENDBRANCH  26  27
ENDBRANCH  23  26
ENDBRANCH   1  18
TORSDOF 6
ENDMDL
MODEL 6
REMARK VINA RESULT:      -7.7      2.885      6.518
REMARK  6 active torsions:
REMARK  status: ('A' for Active; 'I' for Inactive)
REMARK    1  A    between atoms: C3_3  and  C4_4 
REMARK    2  A    between atoms: C9_10  and  N2_11 
REMARK    3  A    between atoms: C10_13  and  N4_14 
REMARK    4  A    between atoms: N4_14  and  C11_15 
REMARK    5  A    between atoms: C15_20  and  C16_21 
REMARK    6  A    between atoms: C16_21  and  N6_22 
REMARK       I    between atoms: N6_22  and  C17_23 
ROOT
HETATM    1  N4  UNL     1      24.432   3.732  49.181  1.00  0.00    -0.352 N 
HETATM    2  H13 UNL     1      24.784   3.125  48.381  1.00  0.00     0.163 HD
ENDROOT
BRANCH   1   3
HETATM    3  C10 UNL     1      23.639   4.929  49.125  1.00  0.00     0.242 A 
HETATM    4  C5  UNL     1      22.568   4.885  48.098  1.00  0.00    -0.013 A 
HETATM    5  C4  UNL     1      21.611   3.971  48.029  1.00  0.00     0.011 C 
HETATM    6  C6  UNL     1      22.755   6.023  47.179  1.00  0.00     0.038 A 
HETATM    7  C7  UNL     1      23.821   6.686  47.598  1.00  0.00     0.052 A 
HETATM    8  C8  UNL     1      24.616   7.887  47.223  1.00  0.00     0.226 A 
HETATM    9  N3  UNL     1      24.406   6.098  48.755  1.00  0.00    -0.158 N 
HETATM   10  N1  UNL     1      25.640   7.902  48.232  1.00  0.00    -0.101 NA
HETATM   11  C9  UNL     1      25.535   6.935  49.067  1.00  0.00     0.698 A 
BRANCH   5  12
HETATM   12  C3  UNL     1      21.484   2.862  48.983  1.00  0.00    -0.004 C 
HETATM   13  C2  UNL     1      21.388   1.614  48.570  1.00  0.00    -0.031 C 
HETATM   14  C1  UNL     1      21.261   0.511  49.575  1.00  0.00     0.036 C 
ENDBRANCH   5  12
BRANCH  11  15
HETATM   15  N2  UNL     1      26.380   6.648  50.190  1.00  0.00    -0.233 N 
HETATM   16  H10 UNL     1      26.206   7.106  51.113  1.00  0.00     0.174 HD
HETATM   17  H11 UNL     1      27.149   5.962  49.984  1.00  0.00     0.174 HD
ENDBRANCH  11  15
ENDBRANCH   1   3
BRANCH   1  18
HETATM   18  C11 UNL     1      24.825   3.257  50.461  1.00  0.00     0.096 C 
HETATM   19  N5  UNL     1      23.918   2.971  51.301  1.00  0.00    -0.272 NA
HETATM   20  C12 UNL     1      23.944   2.481  52.642  1.00  0.00     0.106 C 
HETATM   21  C13 UNL     1      23.338   1.120  52.646  1.00  0.00     0.034 C 
HETATM   22  C14 UNL     1      25.225   2.643  53.379  1.00  0.00     0.033 C 
HETATM   23  C15 UNL     1      26.410   1.916  52.897  1.00  0.00     0.006 C 
HETATM   24  C19 UNL     1      26.612   1.852  51.412  1.00  0.00     0.013 C 
HETATM   25  C20 UNL     1      26.284   3.133  50.714  1.00  0.00     0.078 C 
BRANCH  23  26
HETATM   26  C16 UNL     1      26.535   0.542  53.499  1.00  0.00     0.127 C 
BRANCH  26  27
HETATM   27  N6  UNL     1      27.663  -0.191  52.952  1.00  0.00    -0.361 N 
HETATM   28  C17 UNL     1      28.618  -0.527  53.950  1.00  0.00     0.213 C 
HETATM   29  C18 UNL     1      29.857  -1.291  53.569  1.00  0.00     0.117 C 
HETATM   30  O1  UNL     1      28.332  -0.140  55.116  1.00  0.00    -0.274 OA
HETATM   31  H23 UNL     1      27.863  -0.499  51.955  1.00  0.00     0.162 HD
ENDBRANCH  26  27
ENDBRANCH  23  26
ENDBRANCH   1  18
TORSDOF 6
ENDMDL
MODEL 7
REMARK VINA RESULT:      -7.6      2.358      3.819
REMARK  6 active torsions:
REMARK  status: ('A' for Active; 'I' for Inactive)
REMARK    1  A    between atoms: C3_3  and  C4_4 
REMARK    2  A    between atoms: C9_10  and  N2_11 
REMARK    3  A    between atoms: C10_13  and  N4_14 
REMARK    4  A    between atoms: N4_14  and  C11_15 
REMARK    5  A    between atoms: C15_20  and  C16_21 
REMARK    6  A    between atoms: C16_21  and  N6_22 
REMARK       I    between atoms: N6_22  and  C17_23 
ROOT
HETATM    1  N4  UNL     1      23.316   1.078  51.611  1.00  0.00    -0.352 N 
HETATM    2  H13 UNL     1      23.410   0.285  50.907  1.00  0.00     0.163 HD
ENDROOT
BRANCH   1   3
HETATM    3  C10 UNL     1      23.636   1.085  53.011  1.00  0.00     0.242 A 
HETATM    4  C5  UNL     1      25.025   0.649  53.306  1.00  0.00    -0.013 A 
HETATM    5  C4  UNL     1      26.122   1.206  52.815  1.00  0.00     0.011 C 
HETATM    6  C6  UNL     1      24.967  -0.500  54.228  1.00  0.00     0.038 A 
HETATM    7  C7  UNL     1      23.688  -0.739  54.469  1.00  0.00     0.052 A 
HETATM    8  C8  UNL     1      22.850  -1.682  55.257  1.00  0.00     0.226 A 
HETATM    9  N3  UNL     1      22.828   0.165  53.781  1.00  0.00    -0.158 N 
HETATM   10  N1  UNL     1      21.518  -1.235  54.953  1.00  0.00    -0.101 NA
HETATM   11  C9  UNL     1      21.497  -0.235  54.152  1.00  0.00     0.698 A 
BRANCH   5  12
HETATM   12  C3  UNL     1      26.104   2.353  51.899  1.00  0.00    -0.004 C 
HETATM   13  C2  UNL     1      26.557   2.249  50.665  1.00  0.00    -0.031 C 
HETATM   14  C1  UNL     1      26.521   3.443  49.762  1.00  0.00     0.036 C 
ENDBRANCH   5  12
BRANCH  11  15
HETATM   15  N2  UNL     1      20.348   0.459  53.643  1.00  0.00    -0.233 N 
HETATM   16  H10 UNL     1      20.079   0.368  52.638  1.00  0.00     0.174 HD
HETATM   17  H11 UNL     1      19.841   1.034  54.362  1.00  0.00     0.174 HD
ENDBRANCH  11  15
ENDBRANCH   1   3
BRANCH   1  18
HETATM   18  C11 UNL     1      22.795   2.272  51.044  1.00  0.00     0.096 C 
HETATM   19  N5  UNL     1      22.664   3.287  51.796  1.00  0.00    -0.272 NA
HETATM   20  C12 UNL     1      22.190   4.615  51.574  1.00  0.00     0.106 C 
HETATM   21  C13 UNL     1      23.333   5.550  51.766  1.00  0.00     0.034 C 
HETATM   22  C14 UNL     1      21.354   4.824  50.362  1.00  0.00     0.033 C 
HETATM   23  C15 UNL     1      21.972   4.629  49.040  1.00  0.00     0.006 C 
HETATM   24  C19 UNL     1      22.909   3.467  48.893  1.00  0.00     0.013 C 
HETATM   25  C20 UNL     1      22.444   2.235  49.602  1.00  0.00     0.078 C 
BRANCH  23  26
HETATM   26  C16 UNL     1      22.607   5.883  48.504  1.00  0.00     0.127 C 
BRANCH  26  27
HETATM   27  N6  UNL     1      24.019   5.699  48.218  1.00  0.00    -0.361 N 
HETATM   28  C17 UNL     1      24.786   6.850  48.544  1.00  0.00     0.213 C 
HETATM   29  C18 UNL     1      26.273   6.845  48.316  1.00  0.00     0.117 C 
HETATM   30  O1  UNL     1      24.126   7.817  49.015  1.00  0.00    -0.274 OA
HETATM   31  H23 UNL     1      24.535   4.860  47.818  1.00  0.00     0.162 HD
ENDBRANCH  26  27
ENDBRANCH  23  26
ENDBRANCH   1  18
TORSDOF 6
ENDMDL
MODEL 8
REMARK VINA RESULT:      -7.6      2.791      4.328
REMARK  6 active torsions:
REMARK  status: ('A' for Active; 'I' for Inactive)
REMARK    1  A    between atoms: C3_3  and  C4_4 
REMARK    2  A    between atoms: C9_10  and  N2_11 
REMARK    3  A    between atoms: C10_13  and  N4_14 
REMARK    4  A    between atoms: N4_14  and  C11_15 
REMARK    5  A    between atoms: C15_20  and  C16_21 
REMARK    6  A    between atoms: C16_21  and  N6_22 
REMARK       I    between atoms: N6_22  and  C17_23 
ROOT
HETATM    1  N4  UNL     1      23.752   2.042  53.029  1.00  0.00    -0.352 N 
HETATM    2  H13 UNL     1      23.165   2.331  53.868  1.00  0.00     0.163 HD
ENDROOT
BRANCH   1   3
HETATM    3  C10 UNL     1      24.524   0.845  52.835  1.00  0.00     0.242 A 
HETATM    4  C5  UNL     1      24.124  -0.271  53.729  1.00  0.00    -0.013 A 
HETATM    5  C4  UNL     1      22.908  -0.791  53.807  1.00  0.00     0.011 C 
HETATM    6  C6  UNL     1      25.305  -0.692  54.506  1.00  0.00     0.038 A 
HETATM    7  C7  UNL     1      26.311   0.080  54.129  1.00  0.00     0.052 A 
HETATM    8  C8  UNL     1      27.756   0.271  54.431  1.00  0.00     0.226 A 
HETATM    9  N3  UNL     1      25.928   1.024  53.134  1.00  0.00    -0.158 N 
HETATM   10  N1  UNL     1      28.111   1.352  53.553  1.00  0.00    -0.101 NA
HETATM   11  C9  UNL     1      27.126   1.768  52.847  1.00  0.00     0.698 A 
BRANCH   5  12
HETATM   12  C3  UNL     1      21.776  -0.321  52.999  1.00  0.00    -0.004 C 
HETATM   13  C2  UNL     1      20.532  -0.506  53.393  1.00  0.00    -0.031 C 
HETATM   14  C1  UNL     1      19.405  -0.010  52.541  1.00  0.00     0.036 C 
ENDBRANCH   5  12
BRANCH  11  15
HETATM   15  N2  UNL     1      27.125   2.824  51.875  1.00  0.00    -0.233 N 
HETATM   16  H10 UNL     1      28.025   3.230  51.535  1.00  0.00     0.174 HD
HETATM   17  H11 UNL     1      26.165   3.120  51.566  1.00  0.00     0.174 HD
ENDBRANCH  11  15
ENDBRANCH   1   3
BRANCH   1  18
HETATM   18  C11 UNL     1      23.744   3.002  51.981  1.00  0.00     0.096 C 
HETATM   19  N5  UNL     1      23.958   2.600  50.796  1.00  0.00    -0.272 NA
HETATM   20  C12 UNL     1      24.022   3.264  49.534  1.00  0.00     0.106 C 
HETATM   21  C13 UNL     1      22.889   2.775  48.699  1.00  0.00     0.034 C 
HETATM   22  C14 UNL     1      24.235   4.735  49.571  1.00  0.00     0.033 C 
HETATM   23  C15 UNL     1      23.191   5.582  50.170  1.00  0.00     0.006 C 
HETATM   24  C19 UNL     1      22.532   5.070  51.416  1.00  0.00     0.013 C 
HETATM   25  C20 UNL     1      23.483   4.413  52.364  1.00  0.00     0.078 C 
BRANCH  23  26
HETATM   26  C16 UNL     1      22.153   6.017  49.172  1.00  0.00     0.127 C 
BRANCH  26  27
HETATM   27  N6  UNL     1      20.804   5.872  49.690  1.00  0.00    -0.361 N 
HETATM   28  C17 UNL     1      19.909   5.350  48.717  1.00  0.00     0.213 C 
HETATM   29  C18 UNL     1      18.464   5.130  49.075  1.00  0.00     0.117 C 
HETATM   30  O1  UNL     1      20.425   5.106  47.592  1.00  0.00    -0.274 OA
HETATM   31  H23 UNL     1      20.412   6.092  50.654  1.00  0.00     0.162 HD
ENDBRANCH  26  27
ENDBRANCH  23  26
ENDBRANCH   1  18
TORSDOF 6
ENDMDL
MODEL 9
REMARK VINA RESULT:      -7.5      2.880      5.053
REMARK  6 active torsions:
REMARK  status: ('A' for Active; 'I' for Inactive)
REMARK    1  A    between atoms: C3_3  and  C4_4 
REMARK    2  A    between atoms: C9_10  and  N2_11 
REMARK    3  A    between atoms: C10_13  and  N4_14 
REMARK    4  A    between atoms: N4_14  and  C11_15 
REMARK    5  A    between atoms: C15_20  and  C16_21 
REMARK    6  A    between atoms: C16_21  and  N6_22 
REMARK       I    between atoms: N6_22  and  C17_23 
ROOT
HETATM    1  N4  UNL     1      23.647   1.621  51.378  1.00  0.00    -0.352 N 
HETATM    2  H13 UNL     1      23.747   1.005  50.517  1.00  0.00     0.163 HD
ENDROOT
BRANCH   1   3
HETATM    3  C10 UNL     1      23.234   1.259  52.706  1.00  0.00     0.242 A 
HETATM    4  C5  UNL     1      23.798  -0.033  53.172  1.00  0.00    -0.013 A 
HETATM    5  C4  UNL     1      25.089  -0.322  53.246  1.00  0.00     0.011 C 
HETATM    6  C6  UNL     1      22.682  -0.926  53.534  1.00  0.00     0.038 A 
HETATM    7  C7  UNL     1      21.563  -0.255  53.313  1.00  0.00     0.052 A 
HETATM    8  C8  UNL     1      20.093  -0.454  53.425  1.00  0.00     0.226 A 
HETATM    9  N3  UNL     1      21.806   1.058  52.818  1.00  0.00    -0.158 N 
HETATM   10  N1  UNL     1      19.578   0.808  52.970  1.00  0.00    -0.101 NA
HETATM   11  C9  UNL     1      20.500   1.634  52.637  1.00  0.00     0.698 A 
BRANCH   5  12
HETATM   12  C3  UNL     1      26.150   0.620  52.868  1.00  0.00    -0.004 C 
HETATM   13  C2  UNL     1      26.811   1.306  53.780  1.00  0.00    -0.031 C 
HETATM   14  C1  UNL     1      27.886   2.257  53.353  1.00  0.00     0.036 C 
ENDBRANCH   5  12
BRANCH  11  15
HETATM   15  N2  UNL     1      20.345   2.973  52.144  1.00  0.00    -0.233 N 
HETATM   16  H10 UNL     1      20.397   3.786  52.797  1.00  0.00     0.174 HD
HETATM   17  H11 UNL     1      20.183   3.031  51.107  1.00  0.00     0.174 HD
ENDBRANCH  11  15
ENDBRANCH   1   3
BRANCH   1  18
HETATM   18  C11 UNL     1      23.975   2.982  51.135  1.00  0.00     0.096 C 
HETATM   19  N5  UNL     1      24.212   3.339  49.940  1.00  0.00    -0.272 NA
HETATM   20  C12 UNL     1      24.561   4.588  49.343  1.00  0.00     0.106 C 
HETATM   21  C13 UNL     1      23.440   5.003  48.455  1.00  0.00     0.034 C 
HETATM   22  C14 UNL     1      25.110   5.626  50.254  1.00  0.00     0.033 C 
HETATM   23  C15 UNL     1      24.236   6.167  51.309  1.00  0.00     0.006 C 
HETATM   24  C19 UNL     1      23.348   5.193  52.023  1.00  0.00     0.013 C 
HETATM   25  C20 UNL     1      24.014   3.885  52.313  1.00  0.00     0.078 C 
BRANCH  23  26
HETATM   26  C16 UNL     1      23.440   7.359  50.850  1.00  0.00     0.127 C 
BRANCH  26  27
HETATM   27  N6  UNL     1      22.010   7.116  50.916  1.00  0.00    -0.361 N 
HETATM   28  C17 UNL     1      21.310   7.741  49.848  1.00  0.00     0.213 C 
HETATM   29  C18 UNL     1      19.815   7.599  49.752  1.00  0.00     0.117 C 
HETATM   30  O1  UNL     1      22.033   8.387  49.041  1.00  0.00    -0.274 OA
HETATM   31  H23 UNL     1      21.440   6.560  51.620  1.00  0.00     0.162 HD
ENDBRANCH  26  27
ENDBRANCH  23  26
ENDBRANCH   1  18
TORSDOF 6
ENDMDL
