MODEL 1
REMARK VINA RESULT:      -8.0      0.000      0.000
REMARK  8 active torsions:
REMARK  status: ('A' for Active; 'I' for Inactive)
REMARK    1  A    between atoms: N1_2  and  C2_3 
REMARK    2  A    between atoms: N1_2  and  C14_19 
REMARK    3  A    between atoms: C3_4  and  C4_5 
REMARK    4  A    between atoms: C6_8  and  N3_9 
REMARK    5  A    between atoms: C7_11  and  C8_12 
REMARK    6  A    between atoms: C14_19  and  C15_20 
REMARK    7  A    between atoms: C16_21  and  C17_22 
REMARK    8  A    between atoms: C17_22  and  N5_23 
ROOT
HETATM    1  C4  UNL     1      26.796   0.622  53.615  1.00  0.00     0.014 A 
HETATM    2  C5  UNL     1      28.142   0.449  53.405  1.00  0.00     0.150 A 
HETATM    3  N2  UNL     1      28.724  -0.741  53.225  1.00  0.00    -0.075 NA
HETATM    4  C6  UNL     1      27.968  -1.877  53.243  1.00  0.00     0.720 A 
HETATM    5  N4  UNL     1      26.654  -1.748  53.445  1.00  0.00    -0.062 NA
HETATM    6  C7  UNL     1      26.059  -0.541  53.630  1.00  0.00     0.098 A 
ENDROOT
BRANCH   1   7
HETATM    7  C3  UNL     1      26.109   1.875  53.804  1.00  0.00     0.032 C 
HETATM    8  C2  UNL     1      25.577   2.642  52.894  1.00  0.00     0.086 C 
BRANCH   8   9
HETATM    9  N1  UNL     1      25.382   2.719  51.496  1.00  0.00    -0.391 N 
HETATM   10  C1  UNL     1      24.086   2.920  50.860  1.00  0.00     0.149 C 
BRANCH   9  11
HETATM   11  C14 UNL     1      26.337   2.634  50.407  1.00  0.00     0.148 C 
BRANCH  11  12
HETATM   12  C15 UNL     1      26.535   3.951  49.751  1.00  0.00    -0.010 C 
HETATM   13  C16 UNL     1      27.326   4.650  48.919  1.00  0.00     0.000 C 
BRANCH  13  14
HETATM   14  C17 UNL     1      27.177   6.063  48.474  1.00  0.00     0.293 C 
BRANCH  14  15
HETATM   15  N5  UNL     1      28.340   6.808  48.873  1.00  0.00     0.081 N 
HETATM   16  H19 UNL     1      28.118   7.704  49.319  1.00  0.00     0.313 HD
HETATM   17  H20 UNL     1      28.910   6.249  49.560  1.00  0.00     0.313 HD
ENDBRANCH  14  15
ENDBRANCH  13  14
ENDBRANCH  11  12
ENDBRANCH   9  11
ENDBRANCH   8   9
ENDBRANCH   1   7
BRANCH   6  18
HETATM   18  C8  UNL     1      24.621  -0.618  53.835  1.00  0.00    -0.005 A 
HETATM   19  C9  UNL     1      24.235  -1.136  55.063  1.00  0.00     0.014 A 
HETATM   20  C10 UNL     1      22.898  -1.248  55.403  1.00  0.00     0.002 A 
HETATM   21  C11 UNL     1      21.886  -0.850  54.537  1.00  0.00     0.019 A 
HETATM   22  C12 UNL     1      22.279  -0.332  53.309  1.00  0.00     0.011 A 
HETATM   23 BR1  UNL     1      20.986   0.245  52.041  1.00  0.00    -0.051 Br
HETATM   24  C13 UNL     1      23.611  -0.233  52.999  1.00  0.00     0.032 A 
ENDBRANCH   6  18
BRANCH   4  25
HETATM   25  N3  UNL     1      28.626  -3.123  53.048  1.00  0.00    -0.231 N 
HETATM   26  H7  UNL     1      28.670  -3.335  52.025  1.00  0.00     0.174 HD
HETATM   27  H8  UNL     1      28.941  -3.596  53.922  1.00  0.00     0.174 HD
ENDBRANCH   4  25
TORSDOF 8
ENDMDL
MODEL 2
REMARK VINA RESULT:      -7.5      1.518      2.405
REMARK  8 active torsions:
REMARK  status: ('A' for Active; 'I' for Inactive)
REMARK    1  A    between atoms: N1_2  and  C2_3 
REMARK    2  A    between atoms: N1_2  and  C14_19 
REMARK    3  A    between atoms: C3_4  and  C4_5 
REMARK    4  A    between atoms: C6_8  and  N3_9 
REMARK    5  A    between atoms: C7_11  and  C8_12 
REMARK    6  A    between atoms: C14_19  and  C15_20 
REMARK    7  A    between atoms: C16_21  and  C17_22 
REMARK    8  A    between atoms: C17_22  and  N5_23 
ROOT
HETATM    1  C4  UNL     1      26.679   0.659  53.606  1.00  0.00     0.014 A 
HETATM    2  C5  UNL     1      28.027   0.491  53.411  1.00  0.00     0.150 A 
HETATM    3  N2  UNL     1      28.614  -0.697  53.229  1.00  0.00    -0.075 NA
HETATM    4  C6  UNL     1      27.861  -1.835  53.230  1.00  0.00     0.720 A 
HETATM    5  N4  UNL     1      26.545  -1.711  53.417  1.00  0.00    -0.062 NA
HETATM    6  C7  UNL     1      25.944  -0.506  53.604  1.00  0.00     0.098 A 
ENDROOT
BRANCH   1   7
HETATM    7  C3  UNL     1      25.986   1.908  53.797  1.00  0.00     0.032 C 
HETATM    8  C2  UNL     1      25.496   2.700  52.883  1.00  0.00     0.086 C 
BRANCH   8   9
HETATM    9  N1  UNL     1      25.363   2.812  51.481  1.00  0.00    -0.391 N 
HETATM   10  C1  UNL     1      26.459   3.140  50.578  1.00  0.00     0.149 C 
BRANCH   9  11
HETATM   11  C14 UNL     1      24.201   2.638  50.630  1.00  0.00     0.148 C 
BRANCH  11  12
HETATM   12  C15 UNL     1      23.179   3.684  50.881  1.00  0.00    -0.010 C 
HETATM   13  C16 UNL     1      22.989   4.954  51.279  1.00  0.00     0.000 C 
BRANCH  13  14
HETATM   14  C17 UNL     1      21.705   5.697  51.411  1.00  0.00     0.293 C 
BRANCH  14  15
HETATM   15  N5  UNL     1      21.960   7.106  51.280  1.00  0.00     0.081 N 
HETATM   16  H19 UNL     1      21.122   7.656  51.066  1.00  0.00     0.313 HD
HETATM   17  H20 UNL     1      22.363   7.486  52.177  1.00  0.00     0.313 HD
ENDBRANCH  14  15
ENDBRANCH  13  14
ENDBRANCH  11  12
ENDBRANCH   9  11
ENDBRANCH   8   9
ENDBRANCH   1   7
BRANCH   6  18
HETATM   18  C8  UNL     1      24.504  -0.588  53.790  1.00  0.00    -0.005 A 
HETATM   19  C9  UNL     1      24.104  -1.129  55.004  1.00  0.00     0.014 A 
HETATM   20  C10 UNL     1      22.764  -1.248  55.326  1.00  0.00     0.002 A 
HETATM   21  C11 UNL     1      21.762  -0.835  54.456  1.00  0.00     0.019 A 
HETATM   22  C12 UNL     1      22.168  -0.294  53.242  1.00  0.00     0.011 A 
HETATM   23 BR1  UNL     1      20.890   0.305  51.971  1.00  0.00    -0.051 Br
HETATM   24  C13 UNL     1      23.503  -0.188  52.950  1.00  0.00     0.032 A 
ENDBRANCH   6  18
BRANCH   4  25
HETATM   25  N3  UNL     1      28.525  -3.078  53.034  1.00  0.00    -0.231 N 
HETATM   26  H7  UNL     1      27.937  -3.692  52.423  1.00  0.00     0.174 HD
HETATM   27  H8  UNL     1      29.447  -3.165  53.511  1.00  0.00     0.174 HD
ENDBRANCH   4  25
TORSDOF 8
ENDMDL
MODEL 3
REMARK VINA RESULT:      -7.4      1.930      3.148
REMARK  8 active torsions:
REMARK  status: ('A' for Active; 'I' for Inactive)
REMARK    1  A    between atoms: N1_2  and  C2_3 
REMARK    2  A    between atoms: N1_2  and  C14_19 
REMARK    3  A    between atoms: C3_4  and  C4_5 
REMARK    4  A    between atoms: C6_8  and  N3_9 
REMARK    5  A    between atoms: C7_11  and  C8_12 
REMARK    6  A    between atoms: C14_19  and  C15_20 
REMARK    7  A    between atoms: C16_21  and  C17_22 
REMARK    8  A    between atoms: C17_22  and  N5_23 
ROOT
HETATM    1  C4  UNL     1      25.471   1.198  53.001  1.00  0.00     0.014 A 
HETATM    2  C5  UNL     1      26.833   1.134  52.835  1.00  0.00     0.150 A 
HETATM    3  N2  UNL     1      27.529  -0.008  52.804  1.00  0.00    -0.075 NA
HETATM    4  C6  UNL     1      26.884  -1.202  52.941  1.00  0.00     0.720 A 
HETATM    5  N4  UNL     1      25.559  -1.179  53.106  1.00  0.00    -0.062 NA
HETATM    6  C7  UNL     1      24.847  -0.022  53.139  1.00  0.00     0.098 A 
ENDROOT
BRANCH   1   7
HETATM    7  C3  UNL     1      24.664   2.391  53.033  1.00  0.00     0.032 C 
HETATM    8  C2  UNL     1      24.511   3.280  52.090  1.00  0.00     0.086 C 
BRANCH   8   9
HETATM    9  N1  UNL     1      24.931   3.569  50.773  1.00  0.00    -0.391 N 
HETATM   10  C1  UNL     1      26.282   3.338  50.274  1.00  0.00     0.149 C 
BRANCH   9  11
HETATM   11  C14 UNL     1      24.195   4.119  49.650  1.00  0.00     0.148 C 
BRANCH  11  12
HETATM   12  C15 UNL     1      23.255   3.125  49.074  1.00  0.00    -0.010 C 
HETATM   13  C16 UNL     1      22.489   2.056  49.352  1.00  0.00     0.000 C 
BRANCH  13  14
HETATM   14  C17 UNL     1      21.624   1.275  48.425  1.00  0.00     0.293 C 
BRANCH  14  15
HETATM   15  N5  UNL     1      20.423   2.019  48.160  1.00  0.00     0.081 N 
HETATM   16  H19 UNL     1      20.596   2.944  47.751  1.00  0.00     0.313 HD
HETATM   17  H20 UNL     1      19.810   1.489  47.486  1.00  0.00     0.313 HD
ENDBRANCH  14  15
ENDBRANCH  13  14
ENDBRANCH  11  12
ENDBRANCH   9  11
ENDBRANCH   8   9
ENDBRANCH   1   7
BRANCH   6  18
HETATM   18  C8  UNL     1      23.418  -0.214  53.328  1.00  0.00    -0.005 A 
HETATM   19  C9  UNL     1      23.064  -0.805  54.533  1.00  0.00     0.014 A 
HETATM   20  C10 UNL     1      21.738  -1.030  54.856  1.00  0.00     0.002 A 
HETATM   21  C11 UNL     1      20.704  -0.677  53.996  1.00  0.00     0.019 A 
HETATM   22  C12 UNL     1      21.064  -0.085  52.791  1.00  0.00     0.011 A 
HETATM   23 BR1  UNL     1      19.740   0.440  51.534  1.00  0.00    -0.051 Br
HETATM   24  C13 UNL     1      22.387   0.125  52.498  1.00  0.00     0.032 A 
ENDBRANCH   6  18
BRANCH   4  25
HETATM   25  N3  UNL     1      27.662  -2.392  52.904  1.00  0.00    -0.231 N 
HETATM   26  H7  UNL     1      28.649  -2.152  52.649  1.00  0.00     0.174 HD
HETATM   27  H8  UNL     1      27.141  -3.267  53.126  1.00  0.00     0.174 HD
ENDBRANCH   4  25
TORSDOF 8
ENDMDL
MODEL 4
REMARK VINA RESULT:      -7.1      3.842      7.127
REMARK  8 active torsions:
REMARK  status: ('A' for Active; 'I' for Inactive)
REMARK    1  A    between atoms: N1_2  and  C2_3 
REMARK    2  A    between atoms: N1_2  and  C14_19 
REMARK    3  A    between atoms: C3_4  and  C4_5 
REMARK    4  A    between atoms: C6_8  and  N3_9 
REMARK    5  A    between atoms: C7_11  and  C8_12 
REMARK    6  A    between atoms: C14_19  and  C15_20 
REMARK    7  A    between atoms: C16_21  and  C17_22 
REMARK    8  A    between atoms: C17_22  and  N5_23 
ROOT
HETATM    1  C4  UNL     1      22.959   3.001  50.210  1.00  0.00     0.014 A 
HETATM    2  C5  UNL     1      22.743   4.267  49.722  1.00  0.00     0.150 A 
HETATM    3  N2  UNL     1      23.129   5.385  50.347  1.00  0.00    -0.075 NA
HETATM    4  C6  UNL     1      23.781   5.304  51.543  1.00  0.00     0.720 A 
HETATM    5  N4  UNL     1      24.008   4.090  52.049  1.00  0.00    -0.062 NA
HETATM    6  C7  UNL     1      23.616   2.951  51.419  1.00  0.00     0.098 A 
ENDROOT
BRANCH   1   7
HETATM    7  C3  UNL     1      22.578   1.761  49.582  1.00  0.00     0.032 C 
HETATM    8  C2  UNL     1      21.396   1.408  49.158  1.00  0.00     0.086 C 
BRANCH   8   9
HETATM    9  N1  UNL     1      20.071   1.890  49.065  1.00  0.00    -0.391 N 
HETATM   10  C1  UNL     1      19.636   2.914  48.122  1.00  0.00     0.149 C 
BRANCH   9  11
HETATM   11  C14 UNL     1      18.882   1.526  49.813  1.00  0.00     0.148 C 
BRANCH  11  12
HETATM   12  C15 UNL     1      19.226   0.826  51.077  1.00  0.00    -0.010 C 
HETATM   13  C16 UNL     1      18.766  -0.011  52.022  1.00  0.00     0.000 C 
BRANCH  13  14
HETATM   14  C17 UNL     1      19.473  -0.513  53.233  1.00  0.00     0.293 C 
BRANCH  14  15
HETATM   15  N5  UNL     1      18.724  -1.601  53.800  1.00  0.00     0.081 N 
HETATM   16  H19 UNL     1      18.399  -1.421  54.756  1.00  0.00     0.313 HD
HETATM   17  H20 UNL     1      17.871  -1.798  53.212  1.00  0.00     0.313 HD
ENDBRANCH  14  15
ENDBRANCH  13  14
ENDBRANCH  11  12
ENDBRANCH   9  11
ENDBRANCH   8   9
ENDBRANCH   1   7
BRANCH   6  18
HETATM   18  C8  UNL     1      23.958   1.733  52.136  1.00  0.00    -0.005 A 
HETATM   19  C9  UNL     1      22.922   1.185  52.879  1.00  0.00     0.014 A 
HETATM   20  C10 UNL     1      23.097   0.015  53.596  1.00  0.00     0.002 A 
HETATM   21  C11 UNL     1      24.311  -0.663  53.605  1.00  0.00     0.019 A 
HETATM   22  C12 UNL     1      25.345  -0.110  52.858  1.00  0.00     0.011 A 
HETATM   23 BR1  UNL     1      27.050  -0.946  52.794  1.00  0.00    -0.051 Br
HETATM   24  C13 UNL     1      25.141   1.051  52.158  1.00  0.00     0.032 A 
ENDBRANCH   6  18
BRANCH   4  25
HETATM   25  N3  UNL     1      24.173   6.517  52.175  1.00  0.00    -0.231 N 
HETATM   26  H7  UNL     1      23.479   7.267  51.946  1.00  0.00     0.174 HD
HETATM   27  H8  UNL     1      25.049   6.459  52.736  1.00  0.00     0.174 HD
ENDBRANCH   4  25
TORSDOF 8
ENDMDL
MODEL 5
REMARK VINA RESULT:      -7.0      3.209      6.876
REMARK  8 active torsions:
REMARK  status: ('A' for Active; 'I' for Inactive)
REMARK    1  A    between atoms: N1_2  and  C2_3 
REMARK    2  A    between atoms: N1_2  and  C14_19 
REMARK    3  A    between atoms: C3_4  and  C4_5 
REMARK    4  A    between atoms: C6_8  and  N3_9 
REMARK    5  A    between atoms: C7_11  and  C8_12 
REMARK    6  A    between atoms: C14_19  and  C15_20 
REMARK    7  A    between atoms: C16_21  and  C17_22 
REMARK    8  A    between atoms: C17_22  and  N5_23 
ROOT
HETATM    1  C4  UNL     1      24.975   2.404  51.912  1.00  0.00     0.014 A 
HETATM    2  C5  UNL     1      24.371   3.323  51.089  1.00  0.00     0.150 A 
HETATM    3  N2  UNL     1      25.023   4.056  50.181  1.00  0.00    -0.075 NA
HETATM    4  C6  UNL     1      26.372   3.910  50.031  1.00  0.00     0.720 A 
HETATM    5  N4  UNL     1      26.994   3.026  50.814  1.00  0.00    -0.062 NA
HETATM    6  C7  UNL     1      26.336   2.280  51.740  1.00  0.00     0.098 A 
ENDROOT
BRANCH   1   7
HETATM    7  C3  UNL     1      24.328   1.579  52.900  1.00  0.00     0.032 C 
HETATM    8  C2  UNL     1      23.066   1.255  52.972  1.00  0.00     0.086 C 
BRANCH   8   9
HETATM    9  N1  UNL     1      21.840   1.455  52.301  1.00  0.00    -0.391 N 
HETATM   10  C1  UNL     1      21.024   2.658  52.425  1.00  0.00     0.149 C 
BRANCH   9  11
HETATM   11  C14 UNL     1      21.121   0.597  51.378  1.00  0.00     0.148 C 
BRANCH  11  12
HETATM   12  C15 UNL     1      19.945  -0.037  52.025  1.00  0.00    -0.010 C 
HETATM   13  C16 UNL     1      18.611  -0.189  51.960  1.00  0.00     0.000 C 
BRANCH  13  14
HETATM   14  C17 UNL     1      17.725  -0.964  52.872  1.00  0.00     0.293 C 
BRANCH  14  15
HETATM   15  N5  UNL     1      18.529  -1.618  53.868  1.00  0.00     0.081 N 
HETATM   16  H19 UNL     1      19.417  -1.981  53.504  1.00  0.00     0.313 HD
HETATM   17  H20 UNL     1      18.762  -0.945  54.645  1.00  0.00     0.313 HD
ENDBRANCH  14  15
ENDBRANCH  13  14
ENDBRANCH  11  12
ENDBRANCH   9  11
ENDBRANCH   8   9
ENDBRANCH   1   7
BRANCH   6  18
HETATM   18  C8  UNL     1      27.195   1.378  52.489  1.00  0.00    -0.005 A 
HETATM   19  C9  UNL     1      28.007   1.995  53.430  1.00  0.00     0.014 A 
HETATM   20  C10 UNL     1      28.861   1.258  54.231  1.00  0.00     0.002 A 
HETATM   21  C11 UNL     1      28.946  -0.126  54.132  1.00  0.00     0.019 A 
HETATM   22  C12 UNL     1      28.130  -0.739  53.189  1.00  0.00     0.011 A 
HETATM   23 BR1  UNL     1      28.159  -2.625  52.960  1.00  0.00    -0.051 Br
HETATM   24  C13 UNL     1      27.294   0.017  52.409  1.00  0.00     0.032 A 
ENDBRANCH   6  18
BRANCH   4  25
HETATM   25  N3  UNL     1      27.027   4.710  49.054  1.00  0.00    -0.231 N 
HETATM   26  H7  UNL     1      27.579   5.459  49.533  1.00  0.00     0.174 HD
HETATM   27  H8  UNL     1      26.855   4.428  48.066  1.00  0.00     0.174 HD
ENDBRANCH   4  25
TORSDOF 8
ENDMDL
MODEL 6
REMARK VINA RESULT:      -7.0      2.594      5.539
REMARK  8 active torsions:
REMARK  status: ('A' for Active; 'I' for Inactive)
REMARK    1  A    between atoms: N1_2  and  C2_3 
REMARK    2  A    between atoms: N1_2  and  C14_19 
REMARK    3  A    between atoms: C3_4  and  C4_5 
REMARK    4  A    between atoms: C6_8  and  N3_9 
REMARK    5  A    between atoms: C7_11  and  C8_12 
REMARK    6  A    between atoms: C14_19  and  C15_20 
REMARK    7  A    between atoms: C16_21  and  C17_22 
REMARK    8  A    between atoms: C17_22  and  N5_23 
ROOT
HETATM    1  C4  UNL     1      23.488   2.661  51.617  1.00  0.00     0.014 A 
HETATM    2  C5  UNL     1      23.719   3.336  50.443  1.00  0.00     0.150 A 
HETATM    3  N2  UNL     1      23.189   2.989  49.265  1.00  0.00    -0.075 NA
HETATM    4  C6  UNL     1      22.363   1.906  49.184  1.00  0.00     0.720 A 
HETATM    5  N4  UNL     1      22.116   1.225  50.305  1.00  0.00    -0.062 NA
HETATM    6  C7  UNL     1      22.653   1.573  51.504  1.00  0.00     0.098 A 
ENDROOT
BRANCH   1   7
HETATM    7  C3  UNL     1      24.019   2.990  52.916  1.00  0.00     0.032 C 
HETATM    8  C2  UNL     1      25.224   2.775  53.367  1.00  0.00     0.086 C 
BRANCH   8   9
HETATM    9  N1  UNL     1      26.464   2.226  52.972  1.00  0.00    -0.391 N 
HETATM   10  C1  UNL     1      27.682   2.292  53.772  1.00  0.00     0.149 C 
BRANCH   9  11
HETATM   11  C14 UNL     1      26.833   1.501  51.770  1.00  0.00     0.148 C 
BRANCH  11  12
HETATM   12  C15 UNL     1      26.844   0.034  52.001  1.00  0.00    -0.010 C 
HETATM   13  C16 UNL     1      27.398  -0.955  52.723  1.00  0.00     0.000 C 
BRANCH  13  14
HETATM   14  C17 UNL     1      27.123  -2.416  52.651  1.00  0.00     0.293 C 
BRANCH  14  15
HETATM   15  N5  UNL     1      28.308  -3.139  53.025  1.00  0.00     0.081 N 
HETATM   16  H19 UNL     1      28.633  -3.793  52.305  1.00  0.00     0.313 HD
HETATM   17  H20 UNL     1      29.097  -2.467  53.216  1.00  0.00     0.313 HD
ENDBRANCH  14  15
ENDBRANCH  13  14
ENDBRANCH  11  12
ENDBRANCH   9  11
ENDBRANCH   8   9
ENDBRANCH   1   7
BRANCH   6  18
HETATM   18  C8  UNL     1      22.259   0.702  52.601  1.00  0.00    -0.005 A 
HETATM   19  C9  UNL     1      20.890   0.518  52.736  1.00  0.00     0.014 A 
HETATM   20  C10 UNL     1      20.373  -0.302  53.723  1.00  0.00     0.002 A 
HETATM   21  C11 UNL     1      21.194  -0.975  54.620  1.00  0.00     0.019 A 
HETATM   22  C12 UNL     1      22.564  -0.788  54.480  1.00  0.00     0.011 A 
HETATM   23 BR1  UNL     1      23.786  -1.656  55.647  1.00  0.00    -0.051 Br
HETATM   24  C13 UNL     1      23.048   0.030  53.492  1.00  0.00     0.032 A 
ENDBRANCH   6  18
BRANCH   4  25
HETATM   25  N3  UNL     1      21.822   1.571  47.912  1.00  0.00    -0.231 N 
HETATM   26  H7  UNL     1      20.935   1.031  48.044  1.00  0.00     0.174 HD
HETATM   27  H8  UNL     1      22.376   1.904  47.095  1.00  0.00     0.174 HD
ENDBRANCH   4  25
TORSDOF 8
ENDMDL
MODEL 7
REMARK VINA RESULT:      -6.9      2.998      6.838
REMARK  8 active torsions:
REMARK  status: ('A' for Active; 'I' for Inactive)
REMARK    1  A    between atoms: N1_2  and  C2_3 
REMARK    2  A    between atoms: N1_2  and  C14_19 
REMARK    3  A    between atoms: C3_4  and  C4_5 
REMARK    4  A    between atoms: C6_8  and  N3_9 
REMARK    5  A    between atoms: C7_11  and  C8_12 
REMARK    6  A    between atoms: C14_19  and  C15_20 
REMARK    7  A    between atoms: C16_21  and  C17_22 
REMARK    8  A    between atoms: C17_22  and  N5_23 
ROOT
HETATM    1  C4  UNL     1      24.035   1.637  51.587  1.00  0.00     0.014 A 
HETATM    2  C5  UNL     1      23.920   0.667  52.553  1.00  0.00     0.150 A 
HETATM    3  N2  UNL     1      24.789   0.505  53.557  1.00  0.00    -0.075 NA
HETATM    4  C6  UNL     1      25.867   1.334  53.663  1.00  0.00     0.720 A 
HETATM    5  N4  UNL     1      26.012   2.289  52.742  1.00  0.00    -0.062 NA
HETATM    6  C7  UNL     1      25.133   2.457  51.719  1.00  0.00     0.098 A 
ENDROOT
BRANCH   1   7
HETATM    7  C3  UNL     1      23.130   1.869  50.490  1.00  0.00     0.032 C 
HETATM    8  C2  UNL     1      21.840   2.057  50.541  1.00  0.00     0.086 C 
BRANCH   8   9
HETATM    9  N1  UNL     1      20.776   2.134  51.467  1.00  0.00    -0.391 N 
HETATM   10  C1  UNL     1      20.500   3.297  52.302  1.00  0.00     0.149 C 
BRANCH   9  11
HETATM   11  C14 UNL     1      19.751   1.165  51.806  1.00  0.00     0.148 C 
BRANCH  11  12
HETATM   12  C15 UNL     1      20.281   0.097  52.690  1.00  0.00    -0.010 C 
HETATM   13  C16 UNL     1      20.812  -0.159  53.898  1.00  0.00     0.000 C 
BRANCH  13  14
HETATM   14  C17 UNL     1      21.250  -1.468  54.455  1.00  0.00     0.293 C 
BRANCH  14  15
HETATM   15  N5  UNL     1      22.501  -1.294  55.142  1.00  0.00     0.081 N 
HETATM   16  H19 UNL     1      22.763  -2.095  55.726  1.00  0.00     0.313 HD
HETATM   17  H20 UNL     1      23.279  -1.147  54.445  1.00  0.00     0.313 HD
ENDBRANCH  14  15
ENDBRANCH  13  14
ENDBRANCH  11  12
ENDBRANCH   9  11
ENDBRANCH   8   9
ENDBRANCH   1   7
BRANCH   6  18
HETATM   18  C8  UNL     1      25.472   3.553  50.825  1.00  0.00    -0.005 A 
HETATM   19  C9  UNL     1      26.551   3.308  49.988  1.00  0.00     0.014 A 
HETATM   20  C10 UNL     1      26.972   4.254  49.069  1.00  0.00     0.002 A 
HETATM   21  C11 UNL     1      26.339   5.485  48.943  1.00  0.00     0.019 A 
HETATM   22  C12 UNL     1      25.258   5.724  49.783  1.00  0.00     0.011 A 
HETATM   23 BR1  UNL     1      24.313   7.370  49.704  1.00  0.00    -0.051 Br
HETATM   24  C13 UNL     1      24.863   4.768  50.684  1.00  0.00     0.032 A 
ENDBRANCH   6  18
BRANCH   4  25
HETATM   25  N3  UNL     1      26.767   1.126  54.745  1.00  0.00    -0.231 N 
HETATM   26  H7  UNL     1      26.514   0.239  55.240  1.00  0.00     0.174 HD
HETATM   27  H8  UNL     1      27.496   1.862  54.860  1.00  0.00     0.174 HD
ENDBRANCH   4  25
TORSDOF 8
ENDMDL
MODEL 8
REMARK VINA RESULT:      -6.8      3.184      7.418
REMARK  8 active torsions:
REMARK  status: ('A' for Active; 'I' for Inactive)
REMARK    1  A    between atoms: N1_2  and  C2_3 
REMARK    2  A    between atoms: N1_2  and  C14_19 
REMARK    3  A    between atoms: C3_4  and  C4_5 
REMARK    4  A    between atoms: C6_8  and  N3_9 
REMARK    5  A    between atoms: C7_11  and  C8_12 
REMARK    6  A    between atoms: C14_19  and  C15_20 
REMARK    7  A    between atoms: C16_21  and  C17_22 
REMARK    8  A    between atoms: C17_22  and  N5_23 
ROOT
HETATM    1  C4  UNL     1      23.181   2.530  51.682  1.00  0.00     0.014 A 
HETATM    2  C5  UNL     1      22.058   1.747  51.787  1.00  0.00     0.150 A 
HETATM    3  N2  UNL     1      21.247   1.462  50.762  1.00  0.00    -0.075 NA
HETATM    4  C6  UNL     1      21.520   1.960  49.521  1.00  0.00     0.720 A 
HETATM    5  N4  UNL     1      22.604   2.726  49.381  1.00  0.00    -0.062 NA
HETATM    6  C7  UNL     1      23.429   3.020  50.420  1.00  0.00     0.098 A 
ENDROOT
BRANCH   1   7
HETATM    7  C3  UNL     1      24.097   2.865  52.743  1.00  0.00     0.032 C 
HETATM    8  C2  UNL     1      25.031   2.116  53.261  1.00  0.00     0.086 C 
BRANCH   8   9
HETATM    9  N1  UNL     1      25.598   0.827  53.144  1.00  0.00    -0.391 N 
HETATM   10  C1  UNL     1      26.411   0.389  52.015  1.00  0.00     0.149 C 
BRANCH   9  11
HETATM   11  C14 UNL     1      25.540  -0.312  54.041  1.00  0.00     0.148 C 
BRANCH  11  12
HETATM   12  C15 UNL     1      24.140  -0.652  54.401  1.00  0.00    -0.010 C 
HETATM   13  C16 UNL     1      22.909  -0.876  53.911  1.00  0.00     0.000 C 
BRANCH  13  14
HETATM   14  C17 UNL     1      21.666  -1.214  54.657  1.00  0.00     0.293 C 
BRANCH  14  15
HETATM   15  N5  UNL     1      20.879  -0.024  54.827  1.00  0.00     0.081 N 
HETATM   16  H19 UNL     1      20.450   0.055  55.756  1.00  0.00     0.313 HD
HETATM   17  H20 UNL     1      21.479   0.831  54.686  1.00  0.00     0.313 HD
ENDBRANCH  14  15
ENDBRANCH  13  14
ENDBRANCH  11  12
ENDBRANCH   9  11
ENDBRANCH   8   9
ENDBRANCH   1   7
BRANCH   6  18
HETATM   18  C8  UNL     1      24.552   3.870  50.058  1.00  0.00    -0.005 A 
HETATM   19  C9  UNL     1      25.665   3.192  49.581  1.00  0.00     0.014 A 
HETATM   20  C10 UNL     1      26.800   3.875  49.179  1.00  0.00     0.002 A 
HETATM   21  C11 UNL     1      26.878   5.261  49.232  1.00  0.00     0.019 A 
HETATM   22  C12 UNL     1      25.760   5.935  49.710  1.00  0.00     0.011 A 
HETATM   23 BR1  UNL     1      25.748   7.831  49.830  1.00  0.00    -0.051 Br
HETATM   24  C13 UNL     1      24.650   5.232  50.101  1.00  0.00     0.032 A 
ENDBRANCH   6  18
BRANCH   4  25
HETATM   25  N3  UNL     1      20.631   1.633  48.459  1.00  0.00    -0.231 N 
HETATM   26  H7  UNL     1      20.217   2.513  48.071  1.00  0.00     0.174 HD
HETATM   27  H8  UNL     1      20.545   0.615  48.253  1.00  0.00     0.174 HD
ENDBRANCH   4  25
TORSDOF 8
ENDMDL
MODEL 9
REMARK VINA RESULT:      -6.7      3.075      4.896
REMARK  8 active torsions:
REMARK  status: ('A' for Active; 'I' for Inactive)
REMARK    1  A    between atoms: N1_2  and  C2_3 
REMARK    2  A    between atoms: N1_2  and  C14_19 
REMARK    3  A    between atoms: C3_4  and  C4_5 
REMARK    4  A    between atoms: C6_8  and  N3_9 
REMARK    5  A    between atoms: C7_11  and  C8_12 
REMARK    6  A    between atoms: C14_19  and  C15_20 
REMARK    7  A    between atoms: C16_21  and  C17_22 
REMARK    8  A    between atoms: C17_22  and  N5_23 
ROOT
HETATM    1  C4  UNL     1      24.982   1.962  51.303  1.00  0.00     0.014 A 
HETATM    2  C5  UNL     1      23.633   2.024  51.052  1.00  0.00     0.150 A 
HETATM    3  N2  UNL     1      22.699   1.493  51.850  1.00  0.00    -0.075 NA
HETATM    4  C6  UNL     1      23.070   0.844  52.991  1.00  0.00     0.720 A 
HETATM    5  N4  UNL     1      24.374   0.764  53.268  1.00  0.00    -0.062 NA
HETATM    6  C7  UNL     1      25.326   1.300  52.460  1.00  0.00     0.098 A 
ENDROOT
BRANCH   1   7
HETATM    7  C3  UNL     1      26.033   2.521  50.491  1.00  0.00     0.032 C 
HETATM    8  C2  UNL     1      26.101   3.721  49.983  1.00  0.00     0.086 C 
BRANCH   8   9
HETATM    9  N1  UNL     1      25.374   4.931  49.919  1.00  0.00    -0.391 N 
HETATM   10  C1  UNL     1      24.452   5.388  50.952  1.00  0.00     0.149 C 
BRANCH   9  11
HETATM   11  C14 UNL     1      25.354   5.964  48.901  1.00  0.00     0.148 C 
BRANCH  11  12
HETATM   12  C15 UNL     1      26.003   7.212  49.377  1.00  0.00    -0.010 C 
HETATM   13  C16 UNL     1      27.109   7.970  49.292  1.00  0.00     0.000 C 
BRANCH  13  14
HETATM   14  C17 UNL     1      27.402   9.256  49.983  1.00  0.00     0.293 C 
BRANCH  14  15
HETATM   15  N5  UNL     1      28.826   9.411  50.109  1.00  0.00     0.081 N 
HETATM   16  H19 UNL     1      29.352   8.565  49.867  1.00  0.00     0.313 HD
HETATM   17  H20 UNL     1      29.164  10.181  49.474  1.00  0.00     0.313 HD
ENDBRANCH  14  15
ENDBRANCH  13  14
ENDBRANCH  11  12
ENDBRANCH   9  11
ENDBRANCH   8   9
ENDBRANCH   1   7
BRANCH   6  18
HETATM   18  C8  UNL     1      26.684   1.103  52.940  1.00  0.00    -0.005 A 
HETATM   19  C9  UNL     1      27.289   2.240  53.458  1.00  0.00     0.014 A 
HETATM   20  C10 UNL     1      28.574   2.195  53.970  1.00  0.00     0.002 A 
HETATM   21  C11 UNL     1      29.314   1.019  53.990  1.00  0.00     0.019 A 
HETATM   22  C12 UNL     1      28.703  -0.116  53.470  1.00  0.00     0.011 A 
HETATM   23 BR1  UNL     1      29.616  -1.782  53.443  1.00  0.00    -0.051 Br
HETATM   24  C13 UNL     1      27.429  -0.042  52.969  1.00  0.00     0.032 A 
ENDBRANCH   6  18
BRANCH   4  25
HETATM   25  N3  UNL     1      22.046   0.293  53.811  1.00  0.00    -0.231 N 
HETATM   26  H7  UNL     1      21.912   0.899  54.653  1.00  0.00     0.174 HD
HETATM   27  H8  UNL     1      21.618  -0.586  53.450  1.00  0.00     0.174 HD
ENDBRANCH   4  25
TORSDOF 8
ENDMDL
