MODEL 1
REMARK VINA RESULT:      -8.4      0.000      0.000
REMARK  3 active torsions:
REMARK  status: ('A' for Active; 'I' for Inactive)
REMARK    1  A    between atoms: C2_3  and  C3_4 
REMARK       I    between atoms: C3_4  and  N2_6 
REMARK    2  A    between atoms: N2_6  and  C4_7 
REMARK    3  A    between atoms: N3_14  and  C11_15 
ROOT
HETATM    1  N1  UNL     1      29.673  -1.865  53.470  1.00  0.00    -0.197 NA
HETATM    2  C1  UNL     1      29.215  -0.841  53.803  1.00  0.00     0.068 C 
HETATM    3  C2  UNL     1      28.661   0.447  54.235  1.00  0.00     0.226 C 
ENDROOT
BRANCH   3   4
HETATM    4  C3  UNL     1      27.184   0.302  54.400  1.00  0.00     0.235 C 
HETATM    5  O1  UNL     1      26.419   1.168  54.918  1.00  0.00    -0.272 OA
HETATM    6  N2  UNL     1      26.535  -0.885  53.957  1.00  0.00    -0.326 N 
HETATM    7  H3  UNL     1      27.133  -1.617  53.526  1.00  0.00     0.169 HD
BRANCH   6   8
HETATM    8  C4  UNL     1      25.128  -0.845  54.195  1.00  0.00     0.035 A 
HETATM    9  C5  UNL     1      24.647  -1.300  55.423  1.00  0.00     0.032 A 
HETATM   10  C6  UNL     1      23.285  -1.257  55.644  1.00  0.00     0.033 A 
HETATM   11  C7  UNL     1      22.424  -0.773  54.667  1.00  0.00     0.052 A 
HETATM   12  C8  UNL     1      22.931  -0.331  53.465  1.00  0.00    -0.009 A 
HETATM   13  N5  UNL     1      21.015  -0.720  54.874  1.00  0.00    -0.303 N 
HETATM   14  C9  UNL     1      24.279  -0.357  53.206  1.00  0.00     0.040 A 
HETATM   15  C10 UNL     1      22.091   0.211  52.342  1.00  0.00     0.186 C 
HETATM   16  N3  UNL     1      20.717  -0.046  52.676  1.00  0.00    -0.290 N 
HETATM   17  N4  UNL     1      20.104  -0.525  53.838  1.00  0.00    -0.146 NA
HETATM   18  H11 UNL     1      19.419   0.215  54.126  1.00  0.00     0.173 HD
HETATM   19  H12 UNL     1      20.632  -0.830  55.841  1.00  0.00     0.182 HD
BRANCH  16  20
HETATM   20  C11 UNL     1      19.790   0.242  51.619  1.00  0.00     0.065 A 
HETATM   21  C12 UNL     1      19.782   0.721  50.368  1.00  0.00     0.038 A 
HETATM   22 BR1  UNL     1      21.150   1.355  49.177  1.00  0.00    -0.049 Br
HETATM   23  C13 UNL     1      18.334   0.567  50.285  1.00  0.00     0.024 A 
HETATM   24  C14 UNL     1      18.346   0.094  51.522  1.00  0.00     0.033 A 
ENDBRANCH  16  20
ENDBRANCH   6   8
ENDBRANCH   3   4
TORSDOF 3
ENDMDL
MODEL 2
REMARK VINA RESULT:      -8.1      2.974      7.370
REMARK  3 active torsions:
REMARK  status: ('A' for Active; 'I' for Inactive)
REMARK    1  A    between atoms: C2_3  and  C3_4 
REMARK       I    between atoms: C3_4  and  N2_6 
REMARK    2  A    between atoms: N2_6  and  C4_7 
REMARK    3  A    between atoms: N3_14  and  C11_15 
ROOT
HETATM    1  N1  UNL     1      17.709  -0.009  50.112  1.00  0.00    -0.197 NA
HETATM    2  C1  UNL     1      18.164   0.849  50.766  1.00  0.00     0.068 C 
HETATM    3  C2  UNL     1      18.728   1.940  51.567  1.00  0.00     0.226 C 
ENDROOT
BRANCH   3   4
HETATM    4  C3  UNL     1      19.900   1.417  52.331  1.00  0.00     0.235 C 
HETATM    5  O1  UNL     1      20.526   2.052  53.231  1.00  0.00    -0.272 OA
HETATM    6  N2  UNL     1      20.391   0.107  52.067  1.00  0.00    -0.326 N 
HETATM    7  H3  UNL     1      19.899  -0.442  51.334  1.00  0.00     0.169 HD
BRANCH   6   8
HETATM    8  C4  UNL     1      21.510  -0.220  52.890  1.00  0.00     0.035 A 
HETATM    9  C5  UNL     1      21.301  -1.037  54.003  1.00  0.00     0.032 A 
HETATM   10  C6  UNL     1      22.390  -1.347  54.793  1.00  0.00     0.033 A 
HETATM   11  C7  UNL     1      23.652  -0.859  54.484  1.00  0.00     0.052 A 
HETATM   12  C8  UNL     1      23.824  -0.055  53.378  1.00  0.00    -0.009 A 
HETATM   13  N5  UNL     1      24.790  -1.167  55.286  1.00  0.00    -0.303 N 
HETATM   14  C9  UNL     1      22.768   0.278  52.566  1.00  0.00     0.040 A 
HETATM   15  C10 UNL     1      25.144   0.526  52.952  1.00  0.00     0.186 C 
HETATM   16  N3  UNL     1      26.079   0.282  54.016  1.00  0.00    -0.290 N 
HETATM   17  N4  UNL     1      25.995  -0.476  55.188  1.00  0.00    -0.146 NA
HETATM   18  H11 UNL     1      26.779  -1.170  55.137  1.00  0.00     0.173 HD
HETATM   19  H12 UNL     1      24.733  -1.945  55.983  1.00  0.00     0.182 HD
BRANCH  16  20
HETATM   20  C11 UNL     1      27.344   0.940  53.850  1.00  0.00     0.065 A 
HETATM   21  C12 UNL     1      28.641   0.640  53.701  1.00  0.00     0.038 A 
HETATM   22 BR1  UNL     1      29.624  -1.010  53.620  1.00  0.00    -0.049 Br
HETATM   23  C13 UNL     1      28.992   2.053  53.627  1.00  0.00     0.024 A 
HETATM   24  C14 UNL     1      27.709   2.346  53.775  1.00  0.00     0.033 A 
ENDBRANCH  16  20
ENDBRANCH   6   8
ENDBRANCH   3   4
TORSDOF 3
ENDMDL
MODEL 3
REMARK VINA RESULT:      -7.5      2.390      2.964
REMARK  3 active torsions:
REMARK  status: ('A' for Active; 'I' for Inactive)
REMARK    1  A    between atoms: C2_3  and  C3_4 
REMARK       I    between atoms: C3_4  and  N2_6 
REMARK    2  A    between atoms: N2_6  and  C4_7 
REMARK    3  A    between atoms: N3_14  and  C11_15 
ROOT
HETATM    1  N1  UNL     1      29.419   2.110  54.952  1.00  0.00    -0.197 NA
HETATM    2  C1  UNL     1      29.148   1.045  54.549  1.00  0.00     0.068 C 
HETATM    3  C2  UNL     1      28.832  -0.292  54.036  1.00  0.00     0.226 C 
ENDROOT
BRANCH   3   4
HETATM    4  C3  UNL     1      27.413  -0.303  53.569  1.00  0.00     0.235 C 
HETATM    5  O1  UNL     1      26.970  -0.983  52.596  1.00  0.00    -0.272 OA
HETATM    6  N2  UNL     1      26.442   0.496  54.235  1.00  0.00    -0.326 N 
HETATM    7  H3  UNL     1      26.771   1.067  55.039  1.00  0.00     0.169 HD
BRANCH   6   8
HETATM    8  C4  UNL     1      25.146   0.358  53.653  1.00  0.00     0.035 A 
HETATM    9  C5  UNL     1      24.264  -0.572  54.204  1.00  0.00     0.032 A 
HETATM   10  C6  UNL     1      23.013  -0.699  53.633  1.00  0.00     0.033 A 
HETATM   11  C7  UNL     1      22.649   0.082  52.544  1.00  0.00     0.052 A 
HETATM   12  C8  UNL     1      23.544   0.992  52.023  1.00  0.00    -0.009 A 
HETATM   13  N5  UNL     1      21.364  -0.032  51.939  1.00  0.00    -0.303 N 
HETATM   14  C9  UNL     1      24.798   1.148  52.561  1.00  0.00     0.040 A 
HETATM   15  C10 UNL     1      23.254   1.885  50.849  1.00  0.00     0.186 C 
HETATM   16  N3  UNL     1      22.017   1.438  50.271  1.00  0.00    -0.290 N 
HETATM   17  N4  UNL     1      21.064   0.505  50.690  1.00  0.00    -0.146 NA
HETATM   18  H11 UNL     1      20.158   1.030  50.755  1.00  0.00     0.173 HD
HETATM   19  H12 UNL     1      20.600  -0.537  52.445  1.00  0.00     0.182 HD
BRANCH  16  20
HETATM   20  C11 UNL     1      21.690   2.068  49.023  1.00  0.00     0.065 A 
HETATM   21  C12 UNL     1      20.633   2.591  48.387  1.00  0.00     0.038 A 
HETATM   22 BR1  UNL     1      18.779   2.806  48.843  1.00  0.00    -0.049 Br
HETATM   23  C13 UNL     1      21.454   2.921  47.228  1.00  0.00     0.024 A 
HETATM   24  C14 UNL     1      22.497   2.404  47.859  1.00  0.00     0.033 A 
ENDBRANCH  16  20
ENDBRANCH   6   8
ENDBRANCH   3   4
TORSDOF 3
ENDMDL
MODEL 4
REMARK VINA RESULT:      -7.5      2.415      3.311
REMARK  3 active torsions:
REMARK  status: ('A' for Active; 'I' for Inactive)
REMARK    1  A    between atoms: C2_3  and  C3_4 
REMARK       I    between atoms: C3_4  and  N2_6 
REMARK    2  A    between atoms: N2_6  and  C4_7 
REMARK    3  A    between atoms: N3_14  and  C11_15 
ROOT
HETATM    1  N1  UNL     1      29.414   2.031  54.934  1.00  0.00    -0.197 NA
HETATM    2  C1  UNL     1      29.059   1.104  54.314  1.00  0.00     0.068 C 
HETATM    3  C2  UNL     1      28.638  -0.063  53.532  1.00  0.00     0.226 C 
ENDROOT
BRANCH   3   4
HETATM    4  C3  UNL     1      27.351   0.259  52.847  1.00  0.00     0.235 C 
HETATM    5  O1  UNL     1      26.812  -0.441  51.938  1.00  0.00    -0.272 OA
HETATM    6  N2  UNL     1      26.631   1.434  53.205  1.00  0.00    -0.326 N 
HETATM    7  H3  UNL     1      27.044   2.032  53.948  1.00  0.00     0.169 HD
BRANCH   6   8
HETATM    8  C4  UNL     1      25.429   1.576  52.449  1.00  0.00     0.035 A 
HETATM    9  C5  UNL     1      25.409   2.491  51.395  1.00  0.00     0.032 A 
HETATM   10  C6  UNL     1      24.242   2.621  50.670  1.00  0.00     0.033 A 
HETATM   11  C7  UNL     1      23.124   1.860  50.984  1.00  0.00     0.052 A 
HETATM   12  C8  UNL     1      23.176   0.965  52.031  1.00  0.00    -0.009 A 
HETATM   13  N5  UNL     1      21.909   1.978  50.249  1.00  0.00    -0.303 N 
HETATM   14  C9  UNL     1      24.318   0.805  52.777  1.00  0.00     0.040 A 
HETATM   15  C10 UNL     1      22.027   0.093  52.456  1.00  0.00     0.186 C 
HETATM   16  N3  UNL     1      20.865   0.544  51.741  1.00  0.00    -0.290 N 
HETATM   17  N4  UNL     1      20.696   1.464  50.702  1.00  0.00    -0.146 NA
HETATM   18  H11 UNL     1      20.241   0.933  49.920  1.00  0.00     0.173 HD
HETATM   19  H12 UNL     1      21.912   2.470  49.325  1.00  0.00     0.182 HD
BRANCH  16  20
HETATM   20  C11 UNL     1      19.637  -0.063  52.172  1.00  0.00     0.065 A 
HETATM   21  C12 UNL     1      18.379  -0.238  51.747  1.00  0.00     0.038 A 
HETATM   22 BR1  UNL     1      17.425   0.283  50.163  1.00  0.00    -0.049 Br
HETATM   23  C13 UNL     1      18.039  -0.973  52.960  1.00  0.00     0.024 A 
HETATM   24  C14 UNL     1      19.284  -0.798  53.377  1.00  0.00     0.033 A 
ENDBRANCH  16  20
ENDBRANCH   6   8
ENDBRANCH   3   4
TORSDOF 3
ENDMDL
MODEL 5
REMARK VINA RESULT:      -7.2      4.010      8.420
REMARK  3 active torsions:
REMARK  status: ('A' for Active; 'I' for Inactive)
REMARK    1  A    between atoms: C2_3  and  C3_4 
REMARK       I    between atoms: C3_4  and  N2_6 
REMARK    2  A    between atoms: N2_6  and  C4_7 
REMARK    3  A    between atoms: N3_14  and  C11_15 
ROOT
HETATM    1  N1  UNL     1      17.262   3.994  51.743  1.00  0.00    -0.197 NA
HETATM    2  C1  UNL     1      17.946   3.066  51.541  1.00  0.00     0.068 C 
HETATM    3  C2  UNL     1      18.788   1.889  51.303  1.00  0.00     0.226 C 
ENDROOT
BRANCH   3   4
HETATM    4  C3  UNL     1      20.213   2.330  51.215  1.00  0.00     0.235 C 
HETATM    5  O1  UNL     1      20.752   3.206  51.955  1.00  0.00    -0.272 OA
HETATM    6  N2  UNL     1      21.075   1.752  50.242  1.00  0.00    -0.326 N 
HETATM    7  H3  UNL     1      20.665   1.029  49.618  1.00  0.00     0.169 HD
BRANCH   6   8
HETATM    8  C4  UNL     1      22.394   2.294  50.307  1.00  0.00     0.035 A 
HETATM    9  C5  UNL     1      22.749   3.294  49.400  1.00  0.00     0.032 A 
HETATM   10  C6  UNL     1      24.027   3.812  49.471  1.00  0.00     0.033 A 
HETATM   11  C7  UNL     1      24.927   3.347  50.420  1.00  0.00     0.052 A 
HETATM   12  C8  UNL     1      24.546   2.358  51.302  1.00  0.00    -0.009 A 
HETATM   13  N5  UNL     1      26.251   3.867  50.512  1.00  0.00    -0.303 N 
HETATM   14  C9  UNL     1      23.284   1.817  51.264  1.00  0.00     0.040 A 
HETATM   15  C10 UNL     1      25.439   1.784  52.366  1.00  0.00     0.186 C 
HETATM   16  N3  UNL     1      26.765   2.280  52.121  1.00  0.00    -0.290 N 
HETATM   17  N4  UNL     1      27.263   3.241  51.236  1.00  0.00    -0.146 NA
HETATM   18  H11 UNL     1      27.745   3.957  51.831  1.00  0.00     0.173 HD
HETATM   19  H12 UNL     1      26.489   4.759  50.019  1.00  0.00     0.182 HD
BRANCH  16  20
HETATM   20  C11 UNL     1      27.779   1.677  52.938  1.00  0.00     0.065 A 
HETATM   21  C12 UNL     1      28.213   0.462  53.301  1.00  0.00     0.038 A 
HETATM   22 BR1  UNL     1      27.656  -1.329  52.883  1.00  0.00    -0.049 Br
HETATM   23  C13 UNL     1      29.261   1.049  54.128  1.00  0.00     0.024 A 
HETATM   24  C14 UNL     1      28.830   2.248  53.767  1.00  0.00     0.033 A 
ENDBRANCH  16  20
ENDBRANCH   6   8
ENDBRANCH   3   4
TORSDOF 3
ENDMDL
MODEL 6
REMARK VINA RESULT:      -7.2      2.354      2.785
REMARK  3 active torsions:
REMARK  status: ('A' for Active; 'I' for Inactive)
REMARK    1  A    between atoms: C2_3  and  C3_4 
REMARK       I    between atoms: C3_4  and  N2_6 
REMARK    2  A    between atoms: N2_6  and  C4_7 
REMARK    3  A    between atoms: N3_14  and  C11_15 
ROOT
HETATM    1  N1  UNL     1      29.416  -2.192  53.439  1.00  0.00    -0.197 NA
HETATM    2  C1  UNL     1      29.159  -1.122  53.838  1.00  0.00     0.068 C 
HETATM    3  C2  UNL     1      28.854   0.215  54.357  1.00  0.00     0.226 C 
ENDROOT
BRANCH   3   4
HETATM    4  C3  UNL     1      27.398   0.485  54.156  1.00  0.00     0.235 C 
HETATM    5  O1  UNL     1      26.725   1.359  54.780  1.00  0.00    -0.272 OA
HETATM    6  N2  UNL     1      26.663  -0.269  53.199  1.00  0.00    -0.326 N 
HETATM    7  H3  UNL     1      27.185  -0.995  52.668  1.00  0.00     0.169 HD
BRANCH   6   8
HETATM    8  C4  UNL     1      25.293   0.128  53.144  1.00  0.00     0.035 A 
HETATM    9  C5  UNL     1      24.360  -0.593  53.892  1.00  0.00     0.032 A 
HETATM   10  C6  UNL     1      23.038  -0.202  53.832  1.00  0.00     0.033 A 
HETATM   11  C7  UNL     1      22.654   0.879  53.049  1.00  0.00     0.052 A 
HETATM   12  C8  UNL     1      23.600   1.571  52.324  1.00  0.00    -0.009 A 
HETATM   13  N5  UNL     1      21.294   1.301  52.973  1.00  0.00    -0.303 N 
HETATM   14  C9  UNL     1      24.925   1.213  52.355  1.00  0.00     0.040 A 
HETATM   15  C10 UNL     1      23.294   2.753  51.447  1.00  0.00     0.186 C 
HETATM   16  N3  UNL     1      21.864   2.846  51.342  1.00  0.00    -0.290 N 
HETATM   17  N4  UNL     1      20.826   2.174  51.995  1.00  0.00    -0.146 NA
HETATM   18  H11 UNL     1      20.247   2.918  52.455  1.00  0.00     0.173 HD
HETATM   19  H12 UNL     1      20.606   0.948  53.678  1.00  0.00     0.182 HD
BRANCH  16  20
HETATM   20  C11 UNL     1      21.405   3.812  50.385  1.00  0.00     0.065 A 
HETATM   21  C12 UNL     1      21.350   3.992  49.059  1.00  0.00     0.038 A 
HETATM   22 BR1  UNL     1      21.917   2.946  47.549  1.00  0.00    -0.049 Br
HETATM   23  C13 UNL     1      20.697   5.285  49.229  1.00  0.00     0.024 A 
HETATM   24  C14 UNL     1      20.752   5.104  50.540  1.00  0.00     0.033 A 
ENDBRANCH  16  20
ENDBRANCH   6   8
ENDBRANCH   3   4
TORSDOF 3
ENDMDL
MODEL 7
REMARK VINA RESULT:      -7.1      3.275      7.902
REMARK  3 active torsions:
REMARK  status: ('A' for Active; 'I' for Inactive)
REMARK    1  A    between atoms: C2_3  and  C3_4 
REMARK       I    between atoms: C3_4  and  N2_6 
REMARK    2  A    between atoms: N2_6  and  C4_7 
REMARK    3  A    between atoms: N3_14  and  C11_15 
ROOT
HETATM    1  N1  UNL     1      16.728   1.429  51.008  1.00  0.00    -0.197 NA
HETATM    2  C1  UNL     1      17.551   0.681  51.372  1.00  0.00     0.068 C 
HETATM    3  C2  UNL     1      18.566  -0.266  51.845  1.00  0.00     0.226 C 
ENDROOT
BRANCH   3   4
HETATM    4  C3  UNL     1      19.901   0.404  51.807  1.00  0.00     0.235 C 
HETATM    5  O1  UNL     1      20.689   0.403  50.815  1.00  0.00    -0.272 OA
HETATM    6  N2  UNL     1      20.371   1.112  52.948  1.00  0.00    -0.326 N 
HETATM    7  H3  UNL     1      19.749   1.134  53.780  1.00  0.00     0.169 HD
BRANCH   6   8
HETATM    8  C4  UNL     1      21.660   1.685  52.727  1.00  0.00     0.035 A 
HETATM    9  C5  UNL     1      21.739   2.911  52.064  1.00  0.00     0.032 A 
HETATM   10  C6  UNL     1      22.990   3.457  51.855  1.00  0.00     0.033 A 
HETATM   11  C7  UNL     1      24.132   2.800  52.295  1.00  0.00     0.052 A 
HETATM   12  C8  UNL     1      24.019   1.591  52.947  1.00  0.00    -0.009 A 
HETATM   13  N5  UNL     1      25.432   3.345  52.090  1.00  0.00    -0.303 N 
HETATM   14  C9  UNL     1      22.794   1.014  53.174  1.00  0.00     0.040 A 
HETATM   15  C10 UNL     1      25.187   0.798  53.463  1.00  0.00     0.186 C 
HETATM   16  N3  UNL     1      26.379   1.411  52.946  1.00  0.00    -0.290 N 
HETATM   17  N4  UNL     1      26.599   2.601  52.246  1.00  0.00    -0.146 NA
HETATM   18  H11 UNL     1      27.278   3.153  52.825  1.00  0.00     0.173 HD
HETATM   19  H12 UNL     1      25.532   4.349  51.811  1.00  0.00     0.182 HD
BRANCH  16  20
HETATM   20  C11 UNL     1      27.579   0.663  53.193  1.00  0.00     0.065 A 
HETATM   21  C12 UNL     1      28.035  -0.594  53.116  1.00  0.00     0.038 A 
HETATM   22 BR1  UNL     1      27.249  -2.264  52.580  1.00  0.00    -0.049 Br
HETATM   23  C13 UNL     1      29.348  -0.181  53.599  1.00  0.00     0.024 A 
HETATM   24  C14 UNL     1      28.894   1.061  53.673  1.00  0.00     0.033 A 
ENDBRANCH  16  20
ENDBRANCH   6   8
ENDBRANCH   3   4
TORSDOF 3
ENDMDL
MODEL 8
REMARK VINA RESULT:      -7.1      2.669      3.068
REMARK  3 active torsions:
REMARK  status: ('A' for Active; 'I' for Inactive)
REMARK    1  A    between atoms: C2_3  and  C3_4 
REMARK       I    between atoms: C3_4  and  N2_6 
REMARK    2  A    between atoms: N2_6  and  C4_7 
REMARK    3  A    between atoms: N3_14  and  C11_15 
ROOT
HETATM    1  N1  UNL     1      29.675   2.159  54.922  1.00  0.00    -0.197 NA
HETATM    2  C1  UNL     1      29.100   1.207  54.557  1.00  0.00     0.068 C 
HETATM    3  C2  UNL     1      28.399   0.009  54.084  1.00  0.00     0.226 C 
ENDROOT
BRANCH   3   4
HETATM    4  C3  UNL     1      26.937   0.308  54.010  1.00  0.00     0.235 C 
HETATM    5  O1  UNL     1      26.307   1.070  54.803  1.00  0.00    -0.272 OA
HETATM    6  N2  UNL     1      26.144  -0.284  52.988  1.00  0.00    -0.326 N 
HETATM    7  H3  UNL     1      26.629  -0.914  52.319  1.00  0.00     0.169 HD
BRANCH   6   8
HETATM    8  C4  UNL     1      24.776   0.116  53.074  1.00  0.00     0.035 A 
HETATM    9  C5  UNL     1      23.886  -0.702  53.771  1.00  0.00     0.032 A 
HETATM   10  C6  UNL     1      22.565  -0.306  53.848  1.00  0.00     0.033 A 
HETATM   11  C7  UNL     1      22.142   0.873  53.249  1.00  0.00     0.052 A 
HETATM   12  C8  UNL     1      23.047   1.659  52.568  1.00  0.00    -0.009 A 
HETATM   13  N5  UNL     1      20.785   1.301  53.316  1.00  0.00    -0.303 N 
HETATM   14  C9  UNL     1      24.369   1.301  52.468  1.00  0.00     0.040 A 
HETATM   15  C10 UNL     1      22.698   2.952  51.885  1.00  0.00     0.186 C 
HETATM   16  N3  UNL     1      21.265   3.057  51.883  1.00  0.00    -0.290 N 
HETATM   17  N4  UNL     1      20.263   2.301  52.499  1.00  0.00    -0.146 NA
HETATM   18  H11 UNL     1      19.721   2.974  53.093  1.00  0.00     0.173 HD
HETATM   19  H12 UNL     1      20.138   0.853  54.006  1.00  0.00     0.182 HD
BRANCH  16  20
HETATM   20  C11 UNL     1      20.756   4.147  51.099  1.00  0.00     0.065 A 
HETATM   21  C12 UNL     1      19.684   4.464  50.361  1.00  0.00     0.038 A 
HETATM   22 BR1  UNL     1      18.069   3.533  49.894  1.00  0.00    -0.049 Br
HETATM   23  C13 UNL     1      20.239   5.780  50.063  1.00  0.00     0.024 A 
HETATM   24  C14 UNL     1      21.297   5.464  50.794  1.00  0.00     0.033 A 
ENDBRANCH  16  20
ENDBRANCH   6   8
ENDBRANCH   3   4
TORSDOF 3
ENDMDL
MODEL 9
REMARK VINA RESULT:      -7.0      3.923      4.434
REMARK  3 active torsions:
REMARK  status: ('A' for Active; 'I' for Inactive)
REMARK    1  A    between atoms: C2_3  and  C3_4 
REMARK       I    between atoms: C3_4  and  N2_6 
REMARK    2  A    between atoms: N2_6  and  C4_7 
REMARK    3  A    between atoms: N3_14  and  C11_15 
ROOT
HETATM    1  N1  UNL     1      28.113   4.779  48.614  1.00  0.00    -0.197 NA
HETATM    2  C1  UNL     1      27.001   4.942  48.942  1.00  0.00     0.068 C 
HETATM    3  C2  UNL     1      25.614   5.172  49.358  1.00  0.00     0.226 C 
ENDROOT
BRANCH   3   4
HETATM    4  C3  UNL     1      25.137   3.977  50.115  1.00  0.00     0.235 C 
HETATM    5  O1  UNL     1      24.888   2.843  49.607  1.00  0.00    -0.272 OA
HETATM    6  N2  UNL     1      24.929   4.064  51.521  1.00  0.00    -0.326 N 
HETATM    7  H3  UNL     1      25.124   4.981  51.970  1.00  0.00     0.169 HD
BRANCH   6   8
HETATM    8  C4  UNL     1      24.475   2.828  52.072  1.00  0.00     0.035 A 
HETATM    9  C5  UNL     1      25.426   1.911  52.523  1.00  0.00     0.032 A 
HETATM   10  C6  UNL     1      24.977   0.718  53.054  1.00  0.00     0.033 A 
HETATM   11  C7  UNL     1      23.618   0.446  53.134  1.00  0.00     0.052 A 
HETATM   12  C8  UNL     1      22.705   1.372  52.680  1.00  0.00    -0.009 A 
HETATM   13  N5  UNL     1      23.133  -0.779  53.679  1.00  0.00    -0.303 N 
HETATM   14  C9  UNL     1      23.110   2.570  52.145  1.00  0.00     0.040 A 
HETATM   15  C10 UNL     1      21.214   1.179  52.720  1.00  0.00     0.186 C 
HETATM   16  N3  UNL     1      20.972  -0.190  53.081  1.00  0.00    -0.290 N 
HETATM   17  N4  UNL     1      21.820  -1.214  53.513  1.00  0.00    -0.146 NA
HETATM   18  H11 UNL     1      21.446  -1.522  54.444  1.00  0.00     0.173 HD
HETATM   19  H12 UNL     1      23.779  -1.389  54.231  1.00  0.00     0.182 HD
BRANCH  16  20
HETATM   20  C11 UNL     1      19.597  -0.591  52.981  1.00  0.00     0.065 A 
HETATM   21  C12 UNL     1      18.495  -0.297  52.279  1.00  0.00     0.038 A 
HETATM   22 BR1  UNL     1      18.105   0.956  50.875  1.00  0.00    -0.049 Br
HETATM   23  C13 UNL     1      17.726  -1.300  53.007  1.00  0.00     0.024 A 
HETATM   24  C14 UNL     1      18.818  -1.589  53.699  1.00  0.00     0.033 A 
ENDBRANCH  16  20
ENDBRANCH   6   8
ENDBRANCH   3   4
TORSDOF 3
ENDMDL
