MODEL 1
REMARK VINA RESULT:      -8.4      0.000      0.000
REMARK  3 active torsions:
REMARK  status: ('A' for Active; 'I' for Inactive)
REMARK    1  A    between atoms: O1_2  and  C2_3 
REMARK    2  A    between atoms: C5_6  and  N1_7 
REMARK    3  A    between atoms: C11_15  and  N2_16 
ROOT
HETATM    1  C2  UNL     1      24.119   2.188  51.489  1.00  0.00     0.070 C 
HETATM    2  C3  UNL     1      25.167   1.931  52.347  1.00  0.00     0.009 C 
HETATM    3  C4  UNL     1      24.904   1.026  53.474  1.00  0.00     0.057 C 
HETATM    4  C5  UNL     1      25.329  -0.369  53.471  1.00  0.00     0.130 C 
HETATM    5  C11 UNL     1      24.711  -1.173  54.602  1.00  0.00     0.339 C 
HETATM    6  C12 UNL     1      23.197  -1.010  54.642  1.00  0.00     0.301 C 
HETATM    7  O2  UNL     1      22.534  -1.688  55.431  1.00  0.00    -0.262 OA
HETATM    8  O3  UNL     1      22.385  -0.232  53.954  1.00  0.00    -0.242 OA
HETATM    9  C13 UNL     1      21.119   0.078  53.781  1.00  0.00     0.294 C 
HETATM   10  O4  UNL     1      20.595  -0.720  54.601  1.00  0.00    -0.263 OA
HETATM   11  C14 UNL     1      20.712   1.141  52.782  1.00  0.00     0.381 C 
HETATM   12  N3  UNL     1      21.818   2.039  52.459  1.00  0.00     0.098 NA
HETATM   13  C15 UNL     1      22.902   1.409  51.847  1.00  0.00     0.334 C 
HETATM   14  H17 UNL     1      22.018   2.643  53.264  1.00  0.00     0.316 HD
ENDROOT
BRANCH   4  15
HETATM   15  N1  UNL     1      26.777  -0.557  53.461  1.00  0.00    -0.377 N 
HETATM   16  C6  UNL     1      27.463   0.592  54.002  1.00  0.00     0.113 A 
HETATM   17  C7  UNL     1      28.775   0.683  54.067  1.00  0.00     0.087 A 
HETATM   18 CL1  UNL     1      29.644   2.059  54.714  1.00  0.00    -0.080 Cl
HETATM   19  C8  UNL     1      29.622  -0.409  53.595  1.00  0.00     0.137 A 
HETATM   20  F1  UNL     1      30.975  -0.475  53.590  1.00  0.00    -0.205 F 
HETATM   21  C9  UNL     1      28.942  -1.445  53.123  1.00  0.00     0.037 A 
HETATM   22  C10 UNL     1      27.490  -1.708  52.981  1.00  0.00     0.153 A 
ENDBRANCH   4  15
BRANCH   5  23
HETATM   23  N2  UNL     1      25.149  -0.806  55.916  1.00  0.00     0.094 N 
HETATM   24  H13 UNL     1      24.832  -1.499  56.631  1.00  0.00     0.314 HD
HETATM   25  H14 UNL     1      26.192  -0.797  55.956  1.00  0.00     0.314 HD
ENDBRANCH   5  23
BRANCH   1  26
HETATM   26  O1  UNL     1      24.001   3.009  50.344  1.00  0.00    -0.359 OA
HETATM   27  C1  UNL     1      25.122   3.484  49.651  1.00  0.00     0.209 C 
ENDBRANCH   1  26
TORSDOF 3
ENDMDL
MODEL 2
REMARK VINA RESULT:      -8.1      3.344      5.535
REMARK  3 active torsions:
REMARK  status: ('A' for Active; 'I' for Inactive)
REMARK    1  A    between atoms: O1_2  and  C2_3 
REMARK    2  A    between atoms: C5_6  and  N1_7 
REMARK    3  A    between atoms: C11_15  and  N2_16 
ROOT
HETATM    1  C2  UNL     1      27.282   0.567  53.659  1.00  0.00     0.070 C 
HETATM    2  C3  UNL     1      27.003   1.051  52.399  1.00  0.00     0.009 C 
HETATM    3  C4  UNL     1      25.592   1.087  51.992  1.00  0.00     0.057 C 
HETATM    4  C5  UNL     1      24.807   2.316  52.001  1.00  0.00     0.130 C 
HETATM    5  C11 UNL     1      23.321   2.065  51.813  1.00  0.00     0.339 C 
HETATM    6  C12 UNL     1      22.803   1.019  52.791  1.00  0.00     0.301 C 
HETATM    7  O2  UNL     1      21.592   0.785  52.844  1.00  0.00    -0.262 OA
HETATM    8  O3  UNL     1      23.429   0.250  53.659  1.00  0.00    -0.242 OA
HETATM    9  C13 UNL     1      23.240  -0.666  54.583  1.00  0.00     0.294 C 
HETATM   10  O4  UNL     1      21.985  -0.744  54.546  1.00  0.00    -0.263 OA
HETATM   11  C14 UNL     1      24.413  -1.268  55.328  1.00  0.00     0.381 C 
HETATM   12  N3  UNL     1      25.668  -1.098  54.599  1.00  0.00     0.098 NA
HETATM   13  C15 UNL     1      26.042   0.234  54.414  1.00  0.00     0.334 C 
HETATM   14  H17 UNL     1      25.673  -1.707  53.774  1.00  0.00     0.316 HD
ENDROOT
BRANCH   4  15
HETATM   15  N1  UNL     1      25.264   3.329  51.053  1.00  0.00    -0.377 N 
HETATM   16  C6  UNL     1      24.543   4.569  51.216  1.00  0.00     0.113 A 
HETATM   17  C7  UNL     1      24.745   5.625  50.456  1.00  0.00     0.087 A 
HETATM   18 CL1  UNL     1      23.893   7.146  50.621  1.00  0.00    -0.080 Cl
HETATM   19  C8  UNL     1      25.744   5.596  49.390  1.00  0.00     0.137 A 
HETATM   20  F1  UNL     1      26.072   6.586  48.525  1.00  0.00    -0.205 F 
HETATM   21  C9  UNL     1      26.386   4.439  49.293  1.00  0.00     0.037 A 
HETATM   22  C10 UNL     1      26.286   3.172  50.056  1.00  0.00     0.153 A 
ENDBRANCH   4  15
BRANCH   5  23
HETATM   23  N2  UNL     1      22.949   1.570  50.522  1.00  0.00     0.094 N 
HETATM   24  H13 UNL     1      23.713   1.714  49.823  1.00  0.00     0.314 HD
HETATM   25  H14 UNL     1      22.780   0.541  50.568  1.00  0.00     0.314 HD
ENDBRANCH   5  23
BRANCH   1  26
HETATM   26  O1  UNL     1      28.494   0.365  54.359  1.00  0.00    -0.359 OA
HETATM   27  C1  UNL     1      29.536  -0.408  53.833  1.00  0.00     0.209 C 
ENDBRANCH   1  26
TORSDOF 3
ENDMDL
MODEL 3
REMARK VINA RESULT:      -8.0      3.501      4.976
REMARK  3 active torsions:
REMARK  status: ('A' for Active; 'I' for Inactive)
REMARK    1  A    between atoms: O1_2  and  C2_3 
REMARK    2  A    between atoms: C5_6  and  N1_7 
REMARK    3  A    between atoms: C11_15  and  N2_16 
ROOT
HETATM    1  C2  UNL     1      21.739   0.858  52.430  1.00  0.00     0.070 C 
HETATM    2  C3  UNL     1      22.562   1.953  52.277  1.00  0.00     0.009 C 
HETATM    3  C4  UNL     1      23.860   1.916  52.963  1.00  0.00     0.057 C 
HETATM    4  C5  UNL     1      25.105   1.615  52.265  1.00  0.00     0.130 C 
HETATM    5  C11 UNL     1      26.264   1.360  53.213  1.00  0.00     0.339 C 
HETATM    6  C12 UNL     1      25.905   0.321  54.267  1.00  0.00     0.301 C 
HETATM    7  O2  UNL     1      26.775  -0.083  55.043  1.00  0.00    -0.262 OA
HETATM    8  O3  UNL     1      24.767  -0.284  54.545  1.00  0.00    -0.242 OA
HETATM    9  C13 UNL     1      24.215  -1.178  55.334  1.00  0.00     0.294 C 
HETATM   10  O4  UNL     1      25.224  -1.516  56.006  1.00  0.00    -0.263 OA
HETATM   11  C14 UNL     1      22.741  -1.508  55.219  1.00  0.00     0.381 C 
HETATM   12  N3  UNL     1      21.994  -0.445  54.550  1.00  0.00     0.098 NA
HETATM   13  C15 UNL     1      22.386  -0.218  53.230  1.00  0.00     0.334 C 
HETATM   14  H17 UNL     1      21.927   0.370  55.168  1.00  0.00     0.316 HD
ENDROOT
BRANCH   4  15
HETATM   15  N1  UNL     1      25.490   2.609  51.266  1.00  0.00    -0.377 N 
HETATM   16  C6  UNL     1      24.617   3.758  51.301  1.00  0.00     0.113 A 
HETATM   17  C7  UNL     1      24.733   4.776  50.473  1.00  0.00     0.087 A 
HETATM   18 CL1  UNL     1      23.694   6.186  50.482  1.00  0.00    -0.080 Cl
HETATM   19  C8  UNL     1      25.787   4.798  49.462  1.00  0.00     0.137 A 
HETATM   20  F1  UNL     1      26.042   5.759  48.542  1.00  0.00    -0.205 F 
HETATM   21  C9  UNL     1      26.568   3.727  49.484  1.00  0.00     0.037 A 
HETATM   22  C10 UNL     1      26.579   2.513  50.335  1.00  0.00     0.153 A 
ENDBRANCH   4  15
BRANCH   5  23
HETATM   23  N2  UNL     1      26.696   2.502  53.963  1.00  0.00     0.094 N 
HETATM   24  H13 UNL     1      25.902   2.940  54.482  1.00  0.00     0.314 HD
HETATM   25  H14 UNL     1      27.396   2.214  54.682  1.00  0.00     0.314 HD
ENDBRANCH   5  23
BRANCH   1  26
HETATM   26  O1  UNL     1      20.441   0.564  51.951  1.00  0.00    -0.359 OA
HETATM   27  C1  UNL     1      19.511   1.569  51.661  1.00  0.00     0.209 C 
ENDBRANCH   1  26
TORSDOF 3
ENDMDL
MODEL 4
REMARK VINA RESULT:      -7.6      4.375      7.322
REMARK  3 active torsions:
REMARK  status: ('A' for Active; 'I' for Inactive)
REMARK    1  A    between atoms: O1_2  and  C2_3 
REMARK    2  A    between atoms: C5_6  and  N1_7 
REMARK    3  A    between atoms: C11_15  and  N2_16 
ROOT
HETATM    1  C2  UNL     1      23.158  -0.204  53.658  1.00  0.00     0.070 C 
HETATM    2  C3  UNL     1      22.646   0.988  53.191  1.00  0.00     0.009 C 
HETATM    3  C4  UNL     1      23.600   1.953  52.630  1.00  0.00     0.057 C 
HETATM    4  C5  UNL     1      23.772   2.138  51.193  1.00  0.00     0.130 C 
HETATM    5  C11 UNL     1      24.994   2.973  50.850  1.00  0.00     0.339 C 
HETATM    6  C12 UNL     1      26.244   2.443  51.539  1.00  0.00     0.301 C 
HETATM    7  O2  UNL     1      27.341   2.943  51.273  1.00  0.00    -0.262 OA
HETATM    8  O3  UNL     1      26.411   1.487  52.431  1.00  0.00    -0.242 OA
HETATM    9  C13 UNL     1      27.321   0.850  53.133  1.00  0.00     0.294 C 
HETATM   10  O4  UNL     1      28.355   1.431  52.713  1.00  0.00    -0.263 OA
HETATM   11  C14 UNL     1      26.925  -0.250  54.097  1.00  0.00     0.381 C 
HETATM   12  N3  UNL     1      25.520  -0.156  54.484  1.00  0.00     0.098 NA
HETATM   13  C15 UNL     1      24.625  -0.309  53.424  1.00  0.00     0.334 C 
HETATM   14  H17 UNL     1      25.385   0.652  55.101  1.00  0.00     0.316 HD
ENDROOT
BRANCH   4  15
HETATM   15  N1  UNL     1      22.597   2.671  50.509  1.00  0.00    -0.377 N 
HETATM   16  C6  UNL     1      22.767   2.655  49.076  1.00  0.00     0.113 A 
HETATM   17  C7  UNL     1      21.862   3.118  48.238  1.00  0.00     0.087 A 
HETATM   18 CL1  UNL     1      22.030   3.116  46.495  1.00  0.00    -0.080 Cl
HETATM   19  C8  UNL     1      20.605   3.674  48.731  1.00  0.00     0.137 A 
HETATM   20  F1  UNL     1      19.580   4.188  48.011  1.00  0.00    -0.205 F 
HETATM   21  C9  UNL     1      20.495   3.651  50.053  1.00  0.00     0.037 A 
HETATM   22  C10 UNL     1      21.400   3.172  51.125  1.00  0.00     0.153 A 
ENDBRANCH   4  15
BRANCH   5  23
HETATM   23  N2  UNL     1      24.917   4.348  51.246  1.00  0.00     0.094 N 
HETATM   24  H13 UNL     1      24.103   4.829  50.800  1.00  0.00     0.314 HD
HETATM   25  H14 UNL     1      24.772   4.416  52.278  1.00  0.00     0.314 HD
ENDBRANCH   5  23
BRANCH   1  26
HETATM   26  O1  UNL     1      22.558  -1.327  54.272  1.00  0.00    -0.359 OA
HETATM   27  C1  UNL     1      21.174  -1.538  54.244  1.00  0.00     0.209 C 
ENDBRANCH   1  26
TORSDOF 3
ENDMDL
MODEL 5
REMARK VINA RESULT:      -7.4      3.536      5.956
REMARK  3 active torsions:
REMARK  status: ('A' for Active; 'I' for Inactive)
REMARK    1  A    between atoms: O1_2  and  C2_3 
REMARK    2  A    between atoms: C5_6  and  N1_7 
REMARK    3  A    between atoms: C11_15  and  N2_16 
ROOT
HETATM    1  C2  UNL     1      27.010   1.971  53.216  1.00  0.00     0.070 C 
HETATM    2  C3  UNL     1      26.903   2.501  51.948  1.00  0.00     0.009 C 
HETATM    3  C4  UNL     1      25.644   2.267  51.228  1.00  0.00     0.057 C 
HETATM    4  C5  UNL     1      24.610   3.290  51.110  1.00  0.00     0.130 C 
HETATM    5  C11 UNL     1      23.299   2.740  50.573  1.00  0.00     0.339 C 
HETATM    6  C12 UNL     1      22.843   1.518  51.358  1.00  0.00     0.301 C 
HETATM    7  O2  UNL     1      21.738   1.022  51.121  1.00  0.00    -0.262 OA
HETATM    8  O3  UNL     1      23.429   0.825  52.313  1.00  0.00    -0.242 OA
HETATM    9  C13 UNL     1      23.266  -0.194  53.127  1.00  0.00     0.294 C 
HETATM   10  O4  UNL     1      22.102  -0.540  52.798  1.00  0.00    -0.263 OA
HETATM   11  C14 UNL     1      24.360  -0.595  54.096  1.00  0.00     0.381 C 
HETATM   12  N3  UNL     1      25.666  -0.087  53.685  1.00  0.00     0.098 NA
HETATM   13  C15 UNL     1      25.750   1.306  53.650  1.00  0.00     0.334 C 
HETATM   14  H17 UNL     1      25.990  -0.599  52.857  1.00  0.00     0.316 HD
ENDROOT
BRANCH   4  15
HETATM   15  N1  UNL     1      25.010   4.463  50.338  1.00  0.00    -0.377 N 
HETATM   16  C6  UNL     1      26.297   4.270  49.712  1.00  0.00     0.113 A 
HETATM   17  C7  UNL     1      26.894   5.198  48.992  1.00  0.00     0.087 A 
HETATM   18 CL1  UNL     1      28.453   5.003  48.218  1.00  0.00    -0.080 Cl
HETATM   19  C8  UNL     1      26.261   6.495  48.775  1.00  0.00     0.137 A 
HETATM   20  F1  UNL     1      26.735   7.549  48.068  1.00  0.00    -0.205 F 
HETATM   21  C9  UNL     1      25.075   6.614  49.359  1.00  0.00     0.037 A 
HETATM   22  C10 UNL     1      24.270   5.685  50.188  1.00  0.00     0.153 A 
ENDBRANCH   4  15
BRANCH   5  23
HETATM   23  N2  UNL     1      23.339   2.301  49.210  1.00  0.00     0.094 N 
HETATM   24  H13 UNL     1      22.386   2.299  48.782  1.00  0.00     0.314 HD
HETATM   25  H14 UNL     1      23.919   2.956  48.640  1.00  0.00     0.314 HD
ENDBRANCH   5  23
BRANCH   1  26
HETATM   26  O1  UNL     1      28.055   1.972  54.167  1.00  0.00    -0.359 OA
HETATM   27  C1  UNL     1      29.147   1.100  54.073  1.00  0.00     0.209 C 
ENDBRANCH   1  26
TORSDOF 3
ENDMDL
MODEL 6
REMARK VINA RESULT:      -7.4      3.427      5.682
REMARK  3 active torsions:
REMARK  status: ('A' for Active; 'I' for Inactive)
REMARK    1  A    between atoms: O1_2  and  C2_3 
REMARK    2  A    between atoms: C5_6  and  N1_7 
REMARK    3  A    between atoms: C11_15  and  N2_16 
ROOT
HETATM    1  C2  UNL     1      25.835   0.352  52.997  1.00  0.00     0.070 C 
HETATM    2  C3  UNL     1      25.645   1.056  51.827  1.00  0.00     0.009 C 
HETATM    3  C4  UNL     1      24.279   1.507  51.531  1.00  0.00     0.057 C 
HETATM    4  C5  UNL     1      23.847   2.884  51.744  1.00  0.00     0.130 C 
HETATM    5  C11 UNL     1      22.341   3.050  51.636  1.00  0.00     0.339 C 
HETATM    6  C12 UNL     1      21.604   2.050  52.516  1.00  0.00     0.301 C 
HETATM    7  O2  UNL     1      20.377   2.129  52.629  1.00  0.00    -0.262 OA
HETATM    8  O3  UNL     1      22.038   1.037  53.239  1.00  0.00    -0.242 OA
HETATM    9  C13 UNL     1      21.650   0.084  54.057  1.00  0.00     0.294 C 
HETATM   10  O4  UNL     1      20.417   0.336  54.102  1.00  0.00    -0.263 OA
HETATM   11  C14 UNL     1      22.651  -0.894  54.638  1.00  0.00     0.381 C 
HETATM   12  N3  UNL     1      23.876  -0.954  53.846  1.00  0.00     0.098 NA
HETATM   13  C15 UNL     1      24.582   0.249  53.795  1.00  0.00     0.334 C 
HETATM   14  H17 UNL     1      23.689  -1.427  52.955  1.00  0.00     0.316 HD
ENDROOT
BRANCH   4  15
HETATM   15  N1  UNL     1      24.518   3.863  50.894  1.00  0.00    -0.377 N 
HETATM   16  C6  UNL     1      24.103   5.210  51.209  1.00  0.00     0.113 A 
HETATM   17  C7  UNL     1      24.537   6.269  50.558  1.00  0.00     0.087 A 
HETATM   18 CL1  UNL     1      24.058   7.916  50.910  1.00  0.00    -0.080 Cl
HETATM   19  C8  UNL     1      25.494   6.130  49.464  1.00  0.00     0.137 A 
HETATM   20  F1  UNL     1      26.034   7.108  48.698  1.00  0.00    -0.205 F 
HETATM   21  C9  UNL     1      25.852   4.875  49.225  1.00  0.00     0.037 A 
HETATM   22  C10 UNL     1      25.470   3.588  49.854  1.00  0.00     0.153 A 
ENDBRANCH   4  15
BRANCH   5  23
HETATM   23  N2  UNL     1      21.802   2.845  50.325  1.00  0.00     0.094 N 
HETATM   24  H13 UNL     1      21.936   3.688  49.721  1.00  0.00     0.314 HD
HETATM   25  H14 UNL     1      22.300   2.060  49.851  1.00  0.00     0.314 HD
ENDBRANCH   5  23
BRANCH   1  26
HETATM   26  O1  UNL     1      26.977  -0.246  53.578  1.00  0.00    -0.359 OA
HETATM   27  C1  UNL     1      27.550   0.240  54.760  1.00  0.00     0.209 C 
ENDBRANCH   1  26
TORSDOF 3
ENDMDL
MODEL 7
REMARK VINA RESULT:      -7.3      3.701      5.964
REMARK  3 active torsions:
REMARK  status: ('A' for Active; 'I' for Inactive)
REMARK    1  A    between atoms: O1_2  and  C2_3 
REMARK    2  A    between atoms: C5_6  and  N1_7 
REMARK    3  A    between atoms: C11_15  and  N2_16 
ROOT
HETATM    1  C2  UNL     1      26.608   1.028  52.905  1.00  0.00     0.070 C 
HETATM    2  C3  UNL     1      25.806   1.312  51.819  1.00  0.00     0.009 C 
HETATM    3  C4  UNL     1      24.383   0.966  51.930  1.00  0.00     0.057 C 
HETATM    4  C5  UNL     1      23.356   1.964  52.209  1.00  0.00     0.130 C 
HETATM    5  C11 UNL     1      22.012   1.344  52.552  1.00  0.00     0.339 C 
HETATM    6  C12 UNL     1      22.144   0.298  53.651  1.00  0.00     0.301 C 
HETATM    7  O2  UNL     1      21.126  -0.217  54.123  1.00  0.00    -0.262 OA
HETATM    8  O3  UNL     1      23.202  -0.212  54.248  1.00  0.00    -0.242 OA
HETATM    9  C13 UNL     1      23.579  -1.058  55.181  1.00  0.00     0.294 C 
HETATM   10  O4  UNL     1      22.450  -1.442  55.584  1.00  0.00    -0.263 OA
HETATM   11  C14 UNL     1      25.048  -1.286  55.472  1.00  0.00     0.381 C 
HETATM   12  N3  UNL     1      25.894  -0.884  54.352  1.00  0.00     0.098 NA
HETATM   13  C15 UNL     1      25.826   0.476  54.045  1.00  0.00     0.334 C 
HETATM   14  H17 UNL     1      25.780  -1.547  53.578  1.00  0.00     0.316 HD
ENDROOT
BRANCH   4  15
HETATM   15  N1  UNL     1      23.188   2.965  51.159  1.00  0.00    -0.377 N 
HETATM   16  C6  UNL     1      22.971   2.349  49.871  1.00  0.00     0.113 A 
HETATM   17  C7  UNL     1      22.828   3.038  48.758  1.00  0.00     0.087 A 
HETATM   18 CL1  UNL     1      22.564   2.329  47.179  1.00  0.00    -0.080 Cl
HETATM   19  C8  UNL     1      22.871   4.498  48.775  1.00  0.00     0.137 A 
HETATM   20  F1  UNL     1      22.744   5.349  47.729  1.00  0.00    -0.205 F 
HETATM   21  C9  UNL     1      23.058   5.012  49.983  1.00  0.00     0.037 A 
HETATM   22  C10 UNL     1      23.231   4.392  51.318  1.00  0.00     0.153 A 
ENDBRANCH   4  15
BRANCH   5  23
HETATM   23  N2  UNL     1      21.370   0.655  51.472  1.00  0.00     0.094 N 
HETATM   24  H13 UNL     1      20.384   0.404  51.712  1.00  0.00     0.314 HD
HETATM   25  H14 UNL     1      21.322   1.273  50.632  1.00  0.00     0.314 HD
ENDBRANCH   5  23
BRANCH   1  26
HETATM   26  O1  UNL     1      27.992   1.193  53.139  1.00  0.00    -0.359 OA
HETATM   27  C1  UNL     1      28.524   2.384  53.648  1.00  0.00     0.209 C 
ENDBRANCH   1  26
TORSDOF 3
ENDMDL
MODEL 8
REMARK VINA RESULT:      -7.2      2.511      3.488
REMARK  3 active torsions:
REMARK  status: ('A' for Active; 'I' for Inactive)
REMARK    1  A    between atoms: O1_2  and  C2_3 
REMARK    2  A    between atoms: C5_6  and  N1_7 
REMARK    3  A    between atoms: C11_15  and  N2_16 
ROOT
HETATM    1  C2  UNL     1      24.536   4.000  49.804  1.00  0.00     0.070 C 
HETATM    2  C3  UNL     1      24.828   3.617  51.096  1.00  0.00     0.009 C 
HETATM    3  C4  UNL     1      23.911   2.664  51.736  1.00  0.00     0.057 C 
HETATM    4  C5  UNL     1      24.223   1.245  51.865  1.00  0.00     0.130 C 
HETATM    5  C11 UNL     1      23.026   0.418  52.300  1.00  0.00     0.339 C 
HETATM    6  C12 UNL     1      21.813   0.684  51.419  1.00  0.00     0.301 C 
HETATM    7  O2  UNL     1      20.793   0.006  51.570  1.00  0.00    -0.262 OA
HETATM    8  O3  UNL     1      21.610   1.558  50.454  1.00  0.00    -0.242 OA
HETATM    9  C13 UNL     1      20.725   1.966  49.572  1.00  0.00     0.294 C 
HETATM   10  O4  UNL     1      19.794   1.157  49.820  1.00  0.00    -0.263 OA
HETATM   11  C14 UNL     1      21.038   3.116  48.636  1.00  0.00     0.381 C 
HETATM   12  N3  UNL     1      22.123   3.952  49.143  1.00  0.00     0.098 NA
HETATM   13  C15 UNL     1      23.344   3.287  49.268  1.00  0.00     0.334 C 
HETATM   14  H17 UNL     1      21.795   4.489  49.952  1.00  0.00     0.316 HD
ENDROOT
BRANCH   4  15
HETATM   15  N1  UNL     1      25.367   0.957  52.727  1.00  0.00    -0.377 N 
HETATM   16  C6  UNL     1      25.925  -0.345  52.447  1.00  0.00     0.113 A 
HETATM   17  C7  UNL     1      26.940  -0.852  53.115  1.00  0.00     0.087 A 
HETATM   18 CL1  UNL     1      27.645  -2.425  52.807  1.00  0.00    -0.080 Cl
HETATM   19  C8  UNL     1      27.576  -0.097  54.192  1.00  0.00     0.137 A 
HETATM   20  F1  UNL     1      28.619  -0.470  54.971  1.00  0.00    -0.205 F 
HETATM   21  C9  UNL     1      27.034   1.096  54.397  1.00  0.00     0.037 A 
HETATM   22  C10 UNL     1      25.910   1.811  53.747  1.00  0.00     0.153 A 
ENDBRANCH   4  15
BRANCH   5  23
HETATM   23  N2  UNL     1      22.568   0.670  53.634  1.00  0.00     0.094 N 
HETATM   24  H13 UNL     1      22.042   1.572  53.692  1.00  0.00     0.314 HD
HETATM   25  H14 UNL     1      21.905  -0.079  53.933  1.00  0.00     0.314 HD
ENDBRANCH   5  23
BRANCH   1  26
HETATM   26  O1  UNL     1      25.162   4.897  48.909  1.00  0.00    -0.359 OA
HETATM   27  C1  UNL     1      26.525   5.206  48.998  1.00  0.00     0.209 C 
ENDBRANCH   1  26
TORSDOF 3
ENDMDL
MODEL 9
REMARK VINA RESULT:      -7.1      4.247      6.627
REMARK  3 active torsions:
REMARK  status: ('A' for Active; 'I' for Inactive)
REMARK    1  A    between atoms: O1_2  and  C2_3 
REMARK    2  A    between atoms: C5_6  and  N1_7 
REMARK    3  A    between atoms: C11_15  and  N2_16 
ROOT
HETATM    1  C2  UNL     1      25.944   2.722  50.913  1.00  0.00     0.070 C 
HETATM    2  C3  UNL     1      24.650   2.509  50.485  1.00  0.00     0.009 C 
HETATM    3  C4  UNL     1      23.840   1.553  51.251  1.00  0.00     0.057 C 
HETATM    4  C5  UNL     1      22.830   1.979  52.213  1.00  0.00     0.130 C 
HETATM    5  C11 UNL     1      22.323   0.837  53.077  1.00  0.00     0.339 C 
HETATM    6  C12 UNL     1      23.471   0.068  53.717  1.00  0.00     0.301 C 
HETATM    7  O2  UNL     1      23.224  -0.819  54.539  1.00  0.00    -0.262 OA
HETATM    8  O3  UNL     1      24.777   0.159  53.561  1.00  0.00    -0.242 OA
HETATM    9  C13 UNL     1      25.923  -0.334  53.974  1.00  0.00     0.294 C 
HETATM   10  O4  UNL     1      25.502  -1.162  54.822  1.00  0.00    -0.263 OA
HETATM   11  C14 UNL     1      27.233   0.172  53.406  1.00  0.00     0.381 C 
HETATM   12  N3  UNL     1      27.050   0.825  52.112  1.00  0.00     0.098 NA
HETATM   13  C15 UNL     1      26.249   1.967  52.160  1.00  0.00     0.334 C 
HETATM   14  H17 UNL     1      26.827   0.123  51.399  1.00  0.00     0.316 HD
ENDROOT
BRANCH   4  15
HETATM   15  N1  UNL     1      21.702   2.696  51.625  1.00  0.00    -0.377 N 
HETATM   16  C6  UNL     1      21.550   2.382  50.223  1.00  0.00     0.113 A 
HETATM   17  C7  UNL     1      20.628   2.929  49.459  1.00  0.00     0.087 A 
HETATM   18 CL1  UNL     1      20.411   2.577  47.758  1.00  0.00    -0.080 Cl
HETATM   19  C8  UNL     1      19.681   3.896  50.009  1.00  0.00     0.137 A 
HETATM   20  F1  UNL     1      18.682   4.547  49.366  1.00  0.00    -0.205 F 
HETATM   21  C9  UNL     1      19.856   4.137  51.302  1.00  0.00     0.037 A 
HETATM   22  C10 UNL     1      20.825   3.615  52.295  1.00  0.00     0.153 A 
ENDBRANCH   4  15
BRANCH   5  23
HETATM   23  N2  UNL     1      21.564  -0.158  52.380  1.00  0.00     0.094 N 
HETATM   24  H13 UNL     1      21.979  -1.110  52.503  1.00  0.00     0.314 HD
HETATM   25  H14 UNL     1      20.596  -0.206  52.766  1.00  0.00     0.314 HD
ENDBRANCH   5  23
BRANCH   1  26
HETATM   26  O1  UNL     1      26.993   3.529  50.418  1.00  0.00    -0.359 OA
HETATM   27  C1  UNL     1      26.836   4.343  49.289  1.00  0.00     0.209 C 
ENDBRANCH   1  26
TORSDOF 3
ENDMDL
