MODEL 1
REMARK VINA RESULT:      -7.9      0.000      0.000
REMARK  0 active torsions:
REMARK  status: ('A' for Active; 'I' for Inactive)
ROOT
HETATM    1  C1  UNL     1      22.752  -0.917  53.735  1.00  0.00     0.046 C 
HETATM    2  C2  UNL     1      22.635   0.425  53.062  1.00  0.00    -0.056 C 
HETATM    3  C3  UNL     1      23.799   0.945  52.697  1.00  0.00    -0.060 C 
HETATM    4  C4  UNL     1      25.003   0.121  53.010  1.00  0.00     0.081 C 
HETATM    5  C5  UNL     1      25.769   0.849  54.041  1.00  0.00     0.088 C 
HETATM    6  N1  UNL     1      26.004   2.037  53.640  1.00  0.00    -0.295 NA
HETATM    7  C6  UNL     1      25.558   2.532  52.360  1.00  0.00     0.145 C 
HETATM    8  C7  UNL     1      26.565   2.161  51.289  1.00  0.00     0.039 C 
HETATM    9  C8  UNL     1      26.323   2.961  50.198  1.00  0.00     0.101 C 
HETATM   10  F1  UNL     1      27.030   2.928  49.010  1.00  0.00    -0.210 F 
HETATM   11  C9  UNL     1      25.591   4.055  49.488  1.00  0.00     0.086 C 
HETATM   12  C10 UNL     1      24.607   4.965  49.638  1.00  0.00     0.005 C 
HETATM   13  C11 UNL     1      23.502   5.742  50.298  1.00  0.00     0.107 C 
HETATM   14  N2  UNL     1      23.018   5.660  51.480  1.00  0.00    -0.298 NA
HETATM   15  C12 UNL     1      23.421   4.766  52.535  1.00  0.00     0.185 C 
HETATM   16  C13 UNL     1      23.176   3.330  52.305  1.00  0.00    -0.028 C 
HETATM   17  C14 UNL     1      21.843   3.231  52.398  1.00  0.00     0.140 C 
HETATM   18  O1  UNL     1      21.183   2.057  52.250  1.00  0.00    -0.359 OA
HETATM   19  C15 UNL     1      21.226   0.869  52.943  1.00  0.00     0.208 C 
HETATM   20  C16 UNL     1      24.151   2.220  52.017  1.00  0.00     0.076 C 
ENDROOT
TORSDOF 0
ENDMDL
MODEL 2
REMARK VINA RESULT:      -7.9      2.553      5.454
REMARK  0 active torsions:
REMARK  status: ('A' for Active; 'I' for Inactive)
ROOT
HETATM    1  C1  UNL     1      24.032   4.033  48.651  1.00  0.00     0.046 C 
HETATM    2  C2  UNL     1      24.777   3.292  49.729  1.00  0.00    -0.056 C 
HETATM    3  C3  UNL     1      23.988   2.707  50.621  1.00  0.00    -0.060 C 
HETATM    4  C4  UNL     1      22.523   2.882  50.403  1.00  0.00     0.081 C 
HETATM    5  C5  UNL     1      22.018   3.721  51.507  1.00  0.00     0.088 C 
HETATM    6  N1  UNL     1      22.349   3.202  52.624  1.00  0.00    -0.295 NA
HETATM    7  C6  UNL     1      23.107   1.977  52.722  1.00  0.00     0.145 C 
HETATM    8  C7  UNL     1      22.169   0.788  52.650  1.00  0.00     0.039 C 
HETATM    9  C8  UNL     1      22.849  -0.305  53.132  1.00  0.00     0.101 C 
HETATM   10  F1  UNL     1      22.336  -1.586  53.228  1.00  0.00    -0.210 F 
HETATM   11  C9  UNL     1      24.048  -0.966  53.732  1.00  0.00     0.086 C 
HETATM   12  C10 UNL     1      25.298  -0.727  54.179  1.00  0.00     0.005 C 
HETATM   13  C11 UNL     1      26.542   0.044  54.525  1.00  0.00     0.107 C 
HETATM   14  N2  UNL     1      26.807   1.291  54.412  1.00  0.00    -0.298 NA
HETATM   15  C12 UNL     1      25.947   2.330  53.905  1.00  0.00     0.185 C 
HETATM   16  C13 UNL     1      25.593   2.248  52.476  1.00  0.00    -0.028 C 
HETATM   17  C14 UNL     1      26.742   2.561  51.862  1.00  0.00     0.140 C 
HETATM   18  O1  UNL     1      26.862   2.607  50.513  1.00  0.00    -0.359 OA
HETATM   19  C15 UNL     1      26.246   3.369  49.547  1.00  0.00     0.208 C 
HETATM   20  C16 UNL     1      24.284   1.888  51.826  1.00  0.00     0.076 C 
ENDROOT
TORSDOF 0
ENDMDL
MODEL 3
REMARK VINA RESULT:      -7.6      2.681      3.782
REMARK  0 active torsions:
REMARK  status: ('A' for Active; 'I' for Inactive)
ROOT
HETATM    1  C1  UNL     1      25.100  -0.541  54.529  1.00  0.00     0.046 C 
HETATM    2  C2  UNL     1      23.747  -0.398  53.882  1.00  0.00    -0.056 C 
HETATM    3  C3  UNL     1      23.703   0.524  52.930  1.00  0.00    -0.060 C 
HETATM    4  C4  UNL     1      24.981   1.247  52.669  1.00  0.00     0.081 C 
HETATM    5  C5  UNL     1      24.782   2.646  53.095  1.00  0.00     0.088 C 
HETATM    6  N1  UNL     1      23.751   3.127  52.518  1.00  0.00    -0.295 NA
HETATM    7  C6  UNL     1      22.942   2.362  51.599  1.00  0.00     0.145 C 
HETATM    8  C7  UNL     1      23.538   2.439  50.207  1.00  0.00     0.039 C 
HETATM    9  C8  UNL     1      22.564   2.051  49.318  1.00  0.00     0.101 C 
HETATM   10  F1  UNL     1      22.716   1.985  47.945  1.00  0.00    -0.210 F 
HETATM   11  C9  UNL     1      21.180   1.603  48.975  1.00  0.00     0.086 C 
HETATM   12  C10 UNL     1      19.977   1.314  49.514  1.00  0.00     0.005 C 
HETATM   13  C11 UNL     1      18.918   1.129  50.565  1.00  0.00     0.107 C 
HETATM   14  N2  UNL     1      18.960   1.312  51.831  1.00  0.00    -0.298 NA
HETATM   15  C12 UNL     1      20.079   1.765  52.617  1.00  0.00     0.185 C 
HETATM   16  C13 UNL     1      21.242   0.860  52.682  1.00  0.00    -0.028 C 
HETATM   17  C14 UNL     1      20.800  -0.147  53.445  1.00  0.00     0.140 C 
HETATM   18  O1  UNL     1      21.569  -1.217  53.765  1.00  0.00    -0.359 OA
HETATM   19  C15 UNL     1      22.755  -1.340  54.451  1.00  0.00     0.208 C 
HETATM   20  C16 UNL     1      22.601   0.991  52.047  1.00  0.00     0.076 C 
ENDROOT
TORSDOF 0
ENDMDL
MODEL 4
REMARK VINA RESULT:      -7.5      2.627      3.954
REMARK  0 active torsions:
REMARK  status: ('A' for Active; 'I' for Inactive)
ROOT
HETATM    1  C1  UNL     1      19.379   0.400  50.239  1.00  0.00     0.046 C 
HETATM    2  C2  UNL     1      20.770   0.961  50.109  1.00  0.00    -0.056 C 
HETATM    3  C3  UNL     1      21.543   0.727  51.161  1.00  0.00    -0.060 C 
HETATM    4  C4  UNL     1      20.910  -0.042  52.272  1.00  0.00     0.081 C 
HETATM    5  C5  UNL     1      20.785   0.879  53.419  1.00  0.00     0.088 C 
HETATM    6  N1  UNL     1      21.923   1.390  53.683  1.00  0.00    -0.295 NA
HETATM    7  C6  UNL     1      23.115   1.074  52.932  1.00  0.00     0.145 C 
HETATM    8  C7  UNL     1      23.751  -0.185  53.486  1.00  0.00     0.039 C 
HETATM    9  C8  UNL     1      25.046  -0.231  53.030  1.00  0.00     0.101 C 
HETATM   10  F1  UNL     1      25.958  -1.230  53.314  1.00  0.00    -0.210 F 
HETATM   11  C9  UNL     1      26.210   0.327  52.275  1.00  0.00     0.086 C 
HETATM   12  C10 UNL     1      26.604   1.379  51.529  1.00  0.00     0.005 C 
HETATM   13  C11 UNL     1      26.528   2.698  50.811  1.00  0.00     0.107 C 
HETATM   14  N2  UNL     1      25.570   3.540  50.716  1.00  0.00    -0.298 NA
HETATM   15  C12 UNL     1      24.255   3.446  51.299  1.00  0.00     0.185 C 
HETATM   16  C13 UNL     1      23.391   2.364  50.792  1.00  0.00    -0.028 C 
HETATM   17  C14 UNL     1      23.080   2.778  49.557  1.00  0.00     0.140 C 
HETATM   18  O1  UNL     1      22.284   2.065  48.724  1.00  0.00    -0.359 OA
HETATM   19  C15 UNL     1      20.975   1.649  48.813  1.00  0.00     0.208 C 
HETATM   20  C16 UNL     1      22.955   1.086  51.458  1.00  0.00     0.076 C 
ENDROOT
TORSDOF 0
ENDMDL
MODEL 5
REMARK VINA RESULT:      -7.4      2.671      4.591
REMARK  0 active torsions:
REMARK  status: ('A' for Active; 'I' for Inactive)
ROOT
HETATM    1  C1  UNL     1      18.980  -0.878  53.128  1.00  0.00     0.046 C 
HETATM    2  C2  UNL     1      20.419  -0.682  53.525  1.00  0.00    -0.056 C 
HETATM    3  C3  UNL     1      21.033   0.283  52.854  1.00  0.00    -0.060 C 
HETATM    4  C4  UNL     1      20.204   0.996  51.839  1.00  0.00     0.081 C 
HETATM    5  C5  UNL     1      20.751   0.651  50.513  1.00  0.00     0.088 C 
HETATM    6  N1  UNL     1      22.000   0.912  50.484  1.00  0.00    -0.295 NA
HETATM    7  C6  UNL     1      22.709   1.460  51.616  1.00  0.00     0.145 C 
HETATM    8  C7  UNL     1      22.575   2.970  51.622  1.00  0.00     0.039 C 
HETATM    9  C8  UNL     1      23.555   3.470  52.445  1.00  0.00     0.101 C 
HETATM   10  F1  UNL     1      23.764   4.809  52.717  1.00  0.00    -0.210 F 
HETATM   11  C9  UNL     1      24.737   3.319  53.348  1.00  0.00     0.086 C 
HETATM   12  C10 UNL     1      25.574   2.405  53.882  1.00  0.00     0.005 C 
HETATM   13  C11 UNL     1      26.180   1.062  54.181  1.00  0.00     0.107 C 
HETATM   14  N2  UNL     1      25.866  -0.106  53.761  1.00  0.00    -0.298 NA
HETATM   15  C12 UNL     1      24.804  -0.457  52.852  1.00  0.00     0.185 C 
HETATM   16  C13 UNL     1      23.429  -0.229  53.333  1.00  0.00    -0.028 C 
HETATM   17  C14 UNL     1      23.273  -1.177  54.266  1.00  0.00     0.140 C 
HETATM   18  O1  UNL     1      22.127  -1.328  54.973  1.00  0.00    -0.359 OA
HETATM   19  C15 UNL     1      20.832  -1.613  54.601  1.00  0.00     0.208 C 
HETATM   20  C16 UNL     1      22.422   0.810  52.917  1.00  0.00     0.076 C 
ENDROOT
TORSDOF 0
ENDMDL
MODEL 6
REMARK VINA RESULT:      -7.2      2.985      5.280
REMARK  0 active torsions:
REMARK  status: ('A' for Active; 'I' for Inactive)
ROOT
HETATM    1  C1  UNL     1      23.845   5.237  52.198  1.00  0.00     0.046 C 
HETATM    2  C2  UNL     1      22.686   4.276  52.173  1.00  0.00    -0.056 C 
HETATM    3  C3  UNL     1      23.012   3.034  52.507  1.00  0.00    -0.060 C 
HETATM    4  C4  UNL     1      24.448   2.811  52.846  1.00  0.00     0.081 C 
HETATM    5  C5  UNL     1      25.014   1.954  51.786  1.00  0.00     0.088 C 
HETATM    6  N1  UNL     1      24.307   0.899  51.665  1.00  0.00    -0.295 NA
HETATM    7  C6  UNL     1      23.139   0.645  52.474  1.00  0.00     0.145 C 
HETATM    8  C7  UNL     1      23.553   0.003  53.783  1.00  0.00     0.039 C 
HETATM    9  C8  UNL     1      22.433  -0.572  54.335  1.00  0.00     0.101 C 
HETATM   10  F1  UNL     1      22.395  -1.256  55.536  1.00  0.00    -0.210 F 
HETATM   11  C9  UNL     1      20.983  -0.936  54.323  1.00  0.00     0.086 C 
HETATM   12  C10 UNL     1      19.857  -0.845  53.587  1.00  0.00     0.005 C 
HETATM   13  C11 UNL     1      18.955  -0.486  52.438  1.00  0.00     0.107 C 
HETATM   14  N2  UNL     1      19.208   0.121  51.340  1.00  0.00    -0.298 NA
HETATM   15  C12 UNL     1      20.476   0.641  50.894  1.00  0.00     0.185 C 
HETATM   16  C13 UNL     1      21.034   1.761  51.673  1.00  0.00    -0.028 C 
HETATM   17  C14 UNL     1      20.227   2.782  51.357  1.00  0.00     0.140 C 
HETATM   18  O1  UNL     1      20.390   4.029  51.864  1.00  0.00    -0.359 OA
HETATM   19  C15 UNL     1      21.419   4.940  51.788  1.00  0.00     0.208 C 
HETATM   20  C16 UNL     1      22.208   1.789  52.616  1.00  0.00     0.076 C 
ENDROOT
TORSDOF 0
ENDMDL
MODEL 7
REMARK VINA RESULT:      -7.1      2.649      3.913
REMARK  0 active torsions:
REMARK  status: ('A' for Active; 'I' for Inactive)
ROOT
HETATM    1  C1  UNL     1      24.681  -0.395  53.948  1.00  0.00     0.046 C 
HETATM    2  C2  UNL     1      25.168   0.792  53.160  1.00  0.00    -0.056 C 
HETATM    3  C3  UNL     1      24.196   1.505  52.607  1.00  0.00    -0.060 C 
HETATM    4  C4  UNL     1      22.810   1.015  52.860  1.00  0.00     0.081 C 
HETATM    5  C5  UNL     1      22.276   0.540  51.568  1.00  0.00     0.088 C 
HETATM    6  N1  UNL     1      22.383   1.463  50.695  1.00  0.00    -0.295 NA
HETATM    7  C6  UNL     1      22.951   2.757  50.992  1.00  0.00     0.145 C 
HETATM    8  C7  UNL     1      21.882   3.666  51.566  1.00  0.00     0.039 C 
HETATM    9  C8  UNL     1      22.339   4.958  51.465  1.00  0.00     0.101 C 
HETATM   10  F1  UNL     1      21.653   6.083  51.882  1.00  0.00    -0.210 F 
HETATM   11  C9  UNL     1      23.348   5.983  51.056  1.00  0.00     0.086 C 
HETATM   12  C10 UNL     1      24.547   6.133  50.456  1.00  0.00     0.005 C 
HETATM   13  C11 UNL     1      25.824   5.757  49.757  1.00  0.00     0.107 C 
HETATM   14  N2  UNL     1      26.265   4.615  49.386  1.00  0.00    -0.298 NA
HETATM   15  C12 UNL     1      25.627   3.332  49.544  1.00  0.00     0.185 C 
HETATM   16  C13 UNL     1      25.461   2.850  50.928  1.00  0.00    -0.028 C 
HETATM   17  C14 UNL     1      26.713   2.546  51.294  1.00  0.00     0.140 C 
HETATM   18  O1  UNL     1      27.019   2.055  52.520  1.00  0.00    -0.359 OA
HETATM   19  C15 UNL     1      26.645   0.911  53.187  1.00  0.00     0.208 C 
HETATM   20  C16 UNL     1      24.215   2.730  51.764  1.00  0.00     0.076 C 
ENDROOT
TORSDOF 0
ENDMDL
MODEL 8
REMARK VINA RESULT:      -7.0      2.952      5.346
REMARK  0 active torsions:
REMARK  status: ('A' for Active; 'I' for Inactive)
ROOT
HETATM    1  C1  UNL     1      20.472   2.987  48.366  1.00  0.00     0.046 C 
HETATM    2  C2  UNL     1      21.671   2.732  49.242  1.00  0.00    -0.056 C 
HETATM    3  C3  UNL     1      21.382   2.116  50.380  1.00  0.00    -0.060 C 
HETATM    4  C4  UNL     1      19.942   1.786  50.591  1.00  0.00     0.081 C 
HETATM    5  C5  UNL     1      19.465   2.624  51.709  1.00  0.00     0.088 C 
HETATM    6  N1  UNL     1      20.222   2.457  52.722  1.00  0.00    -0.295 NA
HETATM    7  C6  UNL     1      21.359   1.567  52.709  1.00  0.00     0.145 C 
HETATM    8  C7  UNL     1      20.909   0.157  53.035  1.00  0.00     0.039 C 
HETATM    9  C8  UNL     1      22.024  -0.560  53.397  1.00  0.00     0.101 C 
HETATM   10  F1  UNL     1      22.031  -1.893  53.766  1.00  0.00    -0.210 F 
HETATM   11  C9  UNL     1      23.487  -0.692  53.675  1.00  0.00     0.086 C 
HETATM   12  C10 UNL     1      24.643   0.001  53.706  1.00  0.00     0.005 C 
HETATM   13  C11 UNL     1      25.584   1.168  53.590  1.00  0.00     0.107 C 
HETATM   14  N2  UNL     1      25.360   2.390  53.282  1.00  0.00    -0.298 NA
HETATM   15  C12 UNL     1      24.095   2.997  52.955  1.00  0.00     0.185 C 
HETATM   16  C13 UNL     1      23.451   2.538  51.710  1.00  0.00    -0.028 C 
HETATM   17  C14 UNL     1      24.228   3.065  50.755  1.00  0.00     0.140 C 
HETATM   18  O1  UNL     1      23.988   2.886  49.434  1.00  0.00    -0.359 OA
HETATM   19  C15 UNL     1      22.926   3.221  48.625  1.00  0.00     0.208 C 
HETATM   20  C16 UNL     1      22.233   1.675  51.517  1.00  0.00     0.076 C 
ENDROOT
TORSDOF 0
ENDMDL
MODEL 9
REMARK VINA RESULT:      -6.5      2.816      4.126
REMARK  0 active torsions:
REMARK  status: ('A' for Active; 'I' for Inactive)
ROOT
HETATM    1  C1  UNL     1      21.038   2.805  49.013  1.00  0.00     0.046 C 
HETATM    2  C2  UNL     1      21.831   4.085  48.978  1.00  0.00    -0.056 C 
HETATM    3  C3  UNL     1      23.109   3.933  49.300  1.00  0.00    -0.060 C 
HETATM    4  C4  UNL     1      23.532   2.542  49.632  1.00  0.00     0.081 C 
HETATM    5  C5  UNL     1      23.869   2.523  51.069  1.00  0.00     0.088 C 
HETATM    6  N1  UNL     1      24.726   3.434  51.319  1.00  0.00    -0.295 NA
HETATM    7  C6  UNL     1      25.247   4.317  50.304  1.00  0.00     0.145 C 
HETATM    8  C7  UNL     1      26.417   3.657  49.601  1.00  0.00     0.039 C 
HETATM    9  C8  UNL     1      27.115   4.641  48.944  1.00  0.00     0.101 C 
HETATM   10  F1  UNL     1      28.252   4.442  48.183  1.00  0.00    -0.210 F 
HETATM   11  C9  UNL     1      27.361   6.064  48.559  1.00  0.00     0.086 C 
HETATM   12  C10 UNL     1      26.899   7.320  48.728  1.00  0.00     0.005 C 
HETATM   13  C11 UNL     1      26.029   8.441  49.224  1.00  0.00     0.107 C 
HETATM   14  N2  UNL     1      25.017   8.425  50.008  1.00  0.00    -0.298 NA
HETATM   15  C12 UNL     1      24.422   7.281  50.652  1.00  0.00     0.185 C 
HETATM   16  C13 UNL     1      23.785   6.290  49.766  1.00  0.00    -0.028 C 
HETATM   17  C14 UNL     1      22.687   6.927  49.338  1.00  0.00     0.140 C 
HETATM   18  O1  UNL     1      21.798   6.362  48.486  1.00  0.00    -0.359 OA
HETATM   19  C15 UNL     1      21.000   5.244  48.576  1.00  0.00     0.208 C 
HETATM   20  C16 UNL     1      24.233   4.901  49.394  1.00  0.00     0.076 C 
ENDROOT
TORSDOF 0
ENDMDL
