MODEL 1
REMARK VINA RESULT:      -9.2      0.000      0.000
REMARK  3 active torsions:
REMARK  status: ('A' for Active; 'I' for Inactive)
REMARK    1  A    between atoms: O1_2  and  C2_3 
REMARK    2  A    between atoms: C6_9  and  N3_10 
REMARK    3  A    between atoms: N3_10  and  C7_11 
ROOT
HETATM    1  C2  UNL     1      19.843  -0.432  52.967  1.00  0.00     0.106 A 
HETATM    2  C3  UNL     1      20.333  -1.076  54.086  1.00  0.00     0.072 A 
HETATM    3  C4  UNL     1      21.694  -0.967  54.258  1.00  0.00     0.077 A 
HETATM    4  N1  UNL     1      22.215  -1.582  55.337  1.00  0.00    -0.241 NA
HETATM    5  C5  UNL     1      23.530  -1.523  55.575  1.00  0.00     0.236 A 
HETATM    6  N2  UNL     1      24.356  -0.862  54.760  1.00  0.00    -0.223 NA
HETATM    7  C6  UNL     1      23.888  -0.243  53.688  1.00  0.00     0.144 A 
HETATM    8  C13 UNL     1      22.548  -0.286  53.420  1.00  0.00     0.075 A 
HETATM    9  C14 UNL     1      22.056   0.345  52.322  1.00  0.00     0.121 A 
HETATM   10  C15 UNL     1      20.684   0.257  52.114  1.00  0.00     0.136 A 
HETATM   11  O2  UNL     1      20.180   0.908  50.982  1.00  0.00    -0.344 OA
HETATM   12  C16 UNL     1      21.036   0.944  49.851  1.00  0.00     0.202 C 
HETATM   13  C17 UNL     1      22.396   1.500  50.200  1.00  0.00     0.202 C 
HETATM   14  O3  UNL     1      22.830   1.041  51.441  1.00  0.00    -0.345 OA
ENDROOT
BRANCH   7  15
HETATM   15  N3  UNL     1      24.844   0.435  52.885  1.00  0.00    -0.340 N 
HETATM   16  H6  UNL     1      24.922   1.106  52.097  1.00  0.00     0.167 HD
BRANCH  15  17
HETATM   17  C7  UNL     1      26.244   0.225  53.111  1.00  0.00     0.035 A 
HETATM   18  C8  UNL     1      26.767  -1.023  52.768  1.00  0.00     0.032 A 
HETATM   19  C9  UNL     1      28.085  -1.363  52.958  1.00  0.00     0.046 A 
HETATM   20  C10 UNL     1      28.977  -0.444  53.518  1.00  0.00     0.138 A 
HETATM   21  F1  UNL     1      30.281  -0.694  53.739  1.00  0.00    -0.204 F 
HETATM   22  C11 UNL     1      28.494   0.795  53.867  1.00  0.00     0.074 A 
HETATM   23 CL1  UNL     1      29.506   2.036  54.576  1.00  0.00    -0.081 Cl
HETATM   24  C12 UNL     1      27.180   1.109  53.668  1.00  0.00     0.056 A 
ENDBRANCH  15  17
ENDBRANCH   7  15
BRANCH   1  25
HETATM   25  O1  UNL     1      18.476  -0.492  52.718  1.00  0.00    -0.353 OA
HETATM   26  C1  UNL     1      17.694  -1.593  53.135  1.00  0.00     0.210 C 
ENDBRANCH   1  25
TORSDOF 3
ENDMDL
MODEL 2
REMARK VINA RESULT:      -8.6      2.024      3.596
REMARK  3 active torsions:
REMARK  status: ('A' for Active; 'I' for Inactive)
REMARK    1  A    between atoms: O1_2  and  C2_3 
REMARK    2  A    between atoms: C6_9  and  N3_10 
REMARK    3  A    between atoms: N3_10  and  C7_11 
ROOT
HETATM    1  C2  UNL     1      21.289   0.585  51.184  1.00  0.00     0.106 A 
HETATM    2  C3  UNL     1      22.024   1.493  50.449  1.00  0.00     0.072 A 
HETATM    3  C4  UNL     1      23.246   1.814  50.995  1.00  0.00     0.077 A 
HETATM    4  N1  UNL     1      23.997   2.698  50.310  1.00  0.00    -0.241 NA
HETATM    5  C5  UNL     1      25.198   3.062  50.774  1.00  0.00     0.236 A 
HETATM    6  N2  UNL     1      25.682   2.567  51.916  1.00  0.00    -0.223 NA
HETATM    7  C6  UNL     1      24.979   1.696  52.621  1.00  0.00     0.144 A 
HETATM    8  C13 UNL     1      23.748   1.306  52.171  1.00  0.00     0.075 A 
HETATM    9  C14 UNL     1      23.017   0.412  52.888  1.00  0.00     0.121 A 
HETATM   10  C15 UNL     1      21.775   0.063  52.367  1.00  0.00     0.136 A 
HETATM   11  O2  UNL     1      21.024  -0.857  53.107  1.00  0.00    -0.344 OA
HETATM   12  C16 UNL     1      21.176  -0.796  54.517  1.00  0.00     0.202 C 
HETATM   13  C17 UNL     1      22.628  -0.873  54.924  1.00  0.00     0.202 C 
HETATM   14  O3  UNL     1      23.438  -0.140  54.061  1.00  0.00    -0.345 OA
ENDROOT
BRANCH   7  15
HETATM   15  N3  UNL     1      25.580   1.225  53.820  1.00  0.00    -0.340 N 
HETATM   16  H6  UNL     1      25.415   1.148  54.842  1.00  0.00     0.167 HD
BRANCH  15  17
HETATM   17  C7  UNL     1      26.877   0.616  53.777  1.00  0.00     0.035 A 
HETATM   18  C8  UNL     1      27.973   1.424  54.088  1.00  0.00     0.032 A 
HETATM   19  C9  UNL     1      29.270   0.973  54.058  1.00  0.00     0.046 A 
HETATM   20  C10 UNL     1      29.550  -0.351  53.706  1.00  0.00     0.138 A 
HETATM   21  F1  UNL     1      30.789  -0.874  53.651  1.00  0.00    -0.204 F 
HETATM   22  C11 UNL     1      28.492  -1.173  53.394  1.00  0.00     0.074 A 
HETATM   23 CL1  UNL     1      28.705  -2.850  52.937  1.00  0.00    -0.081 Cl
HETATM   24  C12 UNL     1      27.212  -0.701  53.430  1.00  0.00     0.056 A 
ENDBRANCH  15  17
ENDBRANCH   7  15
BRANCH   1  25
HETATM   25  O1  UNL     1      20.040   0.206  50.703  1.00  0.00    -0.353 OA
HETATM   26  C1  UNL     1      18.861   0.887  51.081  1.00  0.00     0.210 C 
ENDBRANCH   1  25
TORSDOF 3
ENDMDL
MODEL 3
REMARK VINA RESULT:      -8.5      1.991      3.545
REMARK  3 active torsions:
REMARK  status: ('A' for Active; 'I' for Inactive)
REMARK    1  A    between atoms: O1_2  and  C2_3 
REMARK    2  A    between atoms: C6_9  and  N3_10 
REMARK    3  A    between atoms: N3_10  and  C7_11 
ROOT
HETATM    1  C2  UNL     1      20.952   2.737  52.329  1.00  0.00     0.106 A 
HETATM    2  C3  UNL     1      21.864   3.487  51.612  1.00  0.00     0.072 A 
HETATM    3  C4  UNL     1      23.127   2.942  51.548  1.00  0.00     0.077 A 
HETATM    4  N1  UNL     1      24.048   3.641  50.859  1.00  0.00    -0.241 NA
HETATM    5  C5  UNL     1      25.299   3.179  50.750  1.00  0.00     0.236 A 
HETATM    6  N2  UNL     1      25.667   2.026  51.314  1.00  0.00    -0.223 NA
HETATM    7  C6  UNL     1      24.794   1.306  52.001  1.00  0.00     0.144 A 
HETATM    8  C13 UNL     1      23.508   1.753  52.129  1.00  0.00     0.075 A 
HETATM    9  C14 UNL     1      22.604   1.023  52.832  1.00  0.00     0.121 A 
HETATM   10  C15 UNL     1      21.316   1.542  52.918  1.00  0.00     0.136 A 
HETATM   11  O2  UNL     1      20.386   0.787  53.643  1.00  0.00    -0.344 OA
HETATM   12  C16 UNL     1      20.900   0.058  54.747  1.00  0.00     0.202 C 
HETATM   13  C17 UNL     1      22.065  -0.813  54.344  1.00  0.00     0.202 C 
HETATM   14  O3  UNL     1      22.897  -0.163  53.437  1.00  0.00    -0.345 OA
ENDROOT
BRANCH   7  15
HETATM   15  N3  UNL     1      25.280   0.094  52.561  1.00  0.00    -0.340 N 
HETATM   16  H6  UNL     1      24.975  -0.860  52.836  1.00  0.00     0.167 HD
BRANCH  15  17
HETATM   17  C7  UNL     1      26.658  -0.017  52.939  1.00  0.00     0.035 A 
HETATM   18  C8  UNL     1      27.284  -1.246  52.726  1.00  0.00     0.032 A 
HETATM   19  C9  UNL     1      28.591  -1.493  53.067  1.00  0.00     0.046 A 
HETATM   20  C10 UNL     1      29.368  -0.492  53.657  1.00  0.00     0.138 A 
HETATM   21  F1  UNL     1      30.654  -0.648  54.023  1.00  0.00    -0.204 F 
HETATM   22  C11 UNL     1      28.781   0.732  53.881  1.00  0.00     0.074 A 
HETATM   23 CL1  UNL     1      29.643   2.070  54.613  1.00  0.00    -0.081 Cl
HETATM   24  C12 UNL     1      27.480   0.952  53.533  1.00  0.00     0.056 A 
ENDBRANCH  15  17
ENDBRANCH   7  15
BRANCH   1  25
HETATM   25  O1  UNL     1      19.651   3.216  52.443  1.00  0.00    -0.353 OA
HETATM   26  C1  UNL     1      18.972   3.788  51.344  1.00  0.00     0.210 C 
ENDBRANCH   1  25
TORSDOF 3
ENDMDL
MODEL 4
REMARK VINA RESULT:      -8.5      2.123      2.621
REMARK  3 active torsions:
REMARK  status: ('A' for Active; 'I' for Inactive)
REMARK    1  A    between atoms: O1_2  and  C2_3 
REMARK    2  A    between atoms: C6_9  and  N3_10 
REMARK    3  A    between atoms: N3_10  and  C7_11 
ROOT
HETATM    1  C2  UNL     1      20.466   2.571  52.425  1.00  0.00     0.106 A 
HETATM    2  C3  UNL     1      20.524   1.455  53.236  1.00  0.00     0.072 A 
HETATM    3  C4  UNL     1      21.757   0.843  53.278  1.00  0.00     0.077 A 
HETATM    4  N1  UNL     1      21.858  -0.251  54.058  1.00  0.00    -0.241 NA
HETATM    5  C5  UNL     1      23.022  -0.903  54.153  1.00  0.00     0.236 A 
HETATM    6  N2  UNL     1      24.105  -0.495  53.486  1.00  0.00    -0.223 NA
HETATM    7  C6  UNL     1      24.051   0.574  52.709  1.00  0.00     0.144 A 
HETATM    8  C13 UNL     1      22.874   1.261  52.593  1.00  0.00     0.075 A 
HETATM    9  C14 UNL     1      22.807   2.360  51.797  1.00  0.00     0.121 A 
HETATM   10  C15 UNL     1      21.577   3.007  51.729  1.00  0.00     0.136 A 
HETATM   11  O2  UNL     1      21.511   4.139  50.909  1.00  0.00    -0.344 OA
HETATM   12  C16 UNL     1      22.332   4.119  49.751  1.00  0.00     0.202 C 
HETATM   13  C17 UNL     1      23.771   3.818  50.095  1.00  0.00     0.202 C 
HETATM   14  O3  UNL     1      23.865   2.843  51.084  1.00  0.00    -0.345 OA
ENDROOT
BRANCH   7  15
HETATM   15  N3  UNL     1      25.255   0.930  52.043  1.00  0.00    -0.340 N 
HETATM   16  H6  UNL     1      25.611   1.460  51.225  1.00  0.00     0.167 HD
BRANCH  15  17
HETATM   17  C7  UNL     1      26.515   0.473  52.553  1.00  0.00     0.035 A 
HETATM   18  C8  UNL     1      27.390   1.438  53.055  1.00  0.00     0.032 A 
HETATM   19  C9  UNL     1      28.637   1.137  53.548  1.00  0.00     0.046 A 
HETATM   20  C10 UNL     1      29.089  -0.185  53.566  1.00  0.00     0.138 A 
HETATM   21  F1  UNL     1      30.293  -0.567  54.029  1.00  0.00    -0.204 F 
HETATM   22  C11 UNL     1      28.250  -1.161  53.078  1.00  0.00     0.074 A 
HETATM   23 CL1  UNL     1      28.695  -2.854  53.043  1.00  0.00    -0.081 Cl
HETATM   24  C12 UNL     1      27.016  -0.836  52.593  1.00  0.00     0.056 A 
ENDBRANCH  15  17
ENDBRANCH   7  15
BRANCH   1  25
HETATM   25  O1  UNL     1      19.256   3.250  52.325  1.00  0.00    -0.353 OA
HETATM   26  C1  UNL     1      18.220   2.799  51.476  1.00  0.00     0.210 C 
ENDBRANCH   1  25
TORSDOF 3
ENDMDL
MODEL 5
REMARK VINA RESULT:      -8.2      4.523      5.698
REMARK  3 active torsions:
REMARK  status: ('A' for Active; 'I' for Inactive)
REMARK    1  A    between atoms: O1_2  and  C2_3 
REMARK    2  A    between atoms: C6_9  and  N3_10 
REMARK    3  A    between atoms: N3_10  and  C7_11 
ROOT
HETATM    1  C2  UNL     1      23.037   0.546  52.884  1.00  0.00     0.106 A 
HETATM    2  C3  UNL     1      24.288   0.630  53.461  1.00  0.00     0.072 A 
HETATM    3  C4  UNL     1      25.214   1.329  52.719  1.00  0.00     0.077 A 
HETATM    4  N1  UNL     1      26.449   1.435  53.245  1.00  0.00    -0.241 NA
HETATM    5  C5  UNL     1      27.405   2.099  52.587  1.00  0.00     0.236 A 
HETATM    6  N2  UNL     1      27.167   2.670  51.403  1.00  0.00    -0.223 NA
HETATM    7  C6  UNL     1      25.968   2.591  50.849  1.00  0.00     0.144 A 
HETATM    8  C13 UNL     1      24.971   1.919  51.500  1.00  0.00     0.075 A 
HETATM    9  C14 UNL     1      23.736   1.831  50.940  1.00  0.00     0.121 A 
HETATM   10  C15 UNL     1      22.774   1.132  51.661  1.00  0.00     0.136 A 
HETATM   11  O2  UNL     1      21.502   1.043  51.081  1.00  0.00    -0.344 OA
HETATM   12  C16 UNL     1      21.465   0.984  49.664  1.00  0.00     0.202 C 
HETATM   13  C17 UNL     1      22.235   2.123  49.039  1.00  0.00     0.202 C 
HETATM   14  O3  UNL     1      23.411   2.386  49.737  1.00  0.00    -0.345 OA
ENDROOT
BRANCH   7  15
HETATM   15  N3  UNL     1      25.813   3.233  49.590  1.00  0.00    -0.340 N 
HETATM   16  H6  UNL     1      25.486   3.061  48.620  1.00  0.00     0.167 HD
BRANCH  15  17
HETATM   17  C7  UNL     1      26.202   4.604  49.434  1.00  0.00     0.035 A 
HETATM   18  C8  UNL     1      25.421   5.567  50.076  1.00  0.00     0.032 A 
HETATM   19  C9  UNL     1      25.667   6.915  49.986  1.00  0.00     0.046 A 
HETATM   20  C10 UNL     1      26.742   7.387  49.227  1.00  0.00     0.138 A 
HETATM   21  F1  UNL     1      27.055   8.689  49.085  1.00  0.00    -0.204 F 
HETATM   22  C11 UNL     1      27.532   6.464  48.582  1.00  0.00     0.074 A 
HETATM   23 CL1  UNL     1      28.908   6.922  47.601  1.00  0.00    -0.081 Cl
HETATM   24  C12 UNL     1      27.266   5.129  48.687  1.00  0.00     0.056 A 
ENDBRANCH  15  17
ENDBRANCH   7  15
BRANCH   1  25
HETATM   25  O1  UNL     1      22.041  -0.144  53.567  1.00  0.00    -0.353 OA
HETATM   26  C1  UNL     1      22.339  -0.979  54.668  1.00  0.00     0.210 C 
ENDBRANCH   1  25
TORSDOF 3
ENDMDL
MODEL 6
REMARK VINA RESULT:      -7.9      4.278      7.147
REMARK  3 active torsions:
REMARK  status: ('A' for Active; 'I' for Inactive)
REMARK    1  A    between atoms: O1_2  and  C2_3 
REMARK    2  A    between atoms: C6_9  and  N3_10 
REMARK    3  A    between atoms: N3_10  and  C7_11 
ROOT
HETATM    1  C2  UNL     1      26.726  -0.003  53.124  1.00  0.00     0.106 A 
HETATM    2  C3  UNL     1      26.071  -0.737  54.094  1.00  0.00     0.072 A 
HETATM    3  C4  UNL     1      24.707  -0.556  54.122  1.00  0.00     0.077 A 
HETATM    4  N1  UNL     1      24.028  -1.253  55.054  1.00  0.00    -0.241 NA
HETATM    5  C5  UNL     1      22.699  -1.133  55.146  1.00  0.00     0.236 A 
HETATM    6  N2  UNL     1      22.013  -0.329  54.329  1.00  0.00    -0.223 NA
HETATM    7  C6  UNL     1      22.640   0.374  53.399  1.00  0.00     0.144 A 
HETATM    8  C13 UNL     1      23.998   0.271  53.281  1.00  0.00     0.075 A 
HETATM    9  C14 UNL     1      24.652   0.988  52.330  1.00  0.00     0.121 A 
HETATM   10  C15 UNL     1      26.032   0.832  52.270  1.00  0.00     0.136 A 
HETATM   11  O2  UNL     1      26.703   1.572  51.290  1.00  0.00    -0.344 OA
HETATM   12  C16 UNL     1      26.150   2.842  50.980  1.00  0.00     0.202 C 
HETATM   13  C17 UNL     1      24.684   2.740  50.632  1.00  0.00     0.202 C 
HETATM   14  O3  UNL     1      24.028   1.830  51.456  1.00  0.00    -0.345 OA
ENDROOT
BRANCH   7  15
HETATM   15  N3  UNL     1      21.824   1.198  52.576  1.00  0.00    -0.340 N 
HETATM   16  H6  UNL     1      21.792   2.137  52.136  1.00  0.00     0.167 HD
BRANCH  15  17
HETATM   17  C7  UNL     1      20.562   0.708  52.104  1.00  0.00     0.035 A 
HETATM   18  C8  UNL     1      20.195   1.042  50.799  1.00  0.00     0.032 A 
HETATM   19  C9  UNL     1      19.002   0.660  50.233  1.00  0.00     0.046 A 
HETATM   20  C10 UNL     1      18.085  -0.099  50.965  1.00  0.00     0.138 A 
HETATM   21  F1  UNL     1      16.896  -0.514  50.490  1.00  0.00    -0.204 F 
HETATM   22  C11 UNL     1      18.416  -0.445  52.255  1.00  0.00     0.074 A 
HETATM   23 CL1  UNL     1      17.357  -1.392  53.278  1.00  0.00    -0.081 Cl
HETATM   24  C12 UNL     1      19.608  -0.053  52.794  1.00  0.00     0.056 A 
ENDBRANCH  15  17
ENDBRANCH   7  15
BRANCH   1  25
HETATM   25  O1  UNL     1      28.108  -0.127  53.027  1.00  0.00    -0.353 OA
HETATM   26  C1  UNL     1      28.945  -0.009  54.159  1.00  0.00     0.210 C 
ENDBRANCH   1  25
TORSDOF 3
ENDMDL
MODEL 7
REMARK VINA RESULT:      -7.8      4.537      7.325
REMARK  3 active torsions:
REMARK  status: ('A' for Active; 'I' for Inactive)
REMARK    1  A    between atoms: O1_2  and  C2_3 
REMARK    2  A    between atoms: C6_9  and  N3_10 
REMARK    3  A    between atoms: N3_10  and  C7_11 
ROOT
HETATM    1  C2  UNL     1      26.034  -0.268  52.930  1.00  0.00     0.106 A 
HETATM    2  C3  UNL     1      26.809   0.561  52.143  1.00  0.00     0.072 A 
HETATM    3  C4  UNL     1      26.133   1.632  51.603  1.00  0.00     0.077 A 
HETATM    4  N1  UNL     1      26.852   2.466  50.827  1.00  0.00    -0.241 NA
HETATM    5  C5  UNL     1      26.268   3.531  50.266  1.00  0.00     0.236 A 
HETATM    6  N2  UNL     1      24.973   3.795  50.454  1.00  0.00    -0.223 NA
HETATM    7  C6  UNL     1      24.229   3.002  51.209  1.00  0.00     0.144 A 
HETATM    8  C13 UNL     1      24.799   1.907  51.796  1.00  0.00     0.075 A 
HETATM    9  C14 UNL     1      24.045   1.085  52.572  1.00  0.00     0.121 A 
HETATM   10  C15 UNL     1      24.693  -0.008  53.136  1.00  0.00     0.136 A 
HETATM   11  O2  UNL     1      23.914  -0.853  53.935  1.00  0.00    -0.344 OA
HETATM   12  C16 UNL     1      22.554  -0.993  53.554  1.00  0.00     0.202 C 
HETATM   13  C17 UNL     1      21.876   0.349  53.412  1.00  0.00     0.202 C 
HETATM   14  O3  UNL     1      22.718   1.284  52.816  1.00  0.00    -0.345 OA
ENDROOT
BRANCH   7  15
HETATM   15  N3  UNL     1      22.863   3.368  51.351  1.00  0.00    -0.340 N 
HETATM   16  H6  UNL     1      22.177   3.710  52.051  1.00  0.00     0.167 HD
BRANCH  15  17
HETATM   17  C7  UNL     1      21.981   3.290  50.223  1.00  0.00     0.035 A 
HETATM   18  C8  UNL     1      21.974   2.097  49.499  1.00  0.00     0.032 A 
HETATM   19  C9  UNL     1      21.197   1.900  48.383  1.00  0.00     0.046 A 
HETATM   20  C10 UNL     1      20.360   2.918  47.918  1.00  0.00     0.138 A 
HETATM   21  F1  UNL     1      19.568   2.812  46.835  1.00  0.00    -0.204 F 
HETATM   22  C11 UNL     1      20.344   4.107  48.609  1.00  0.00     0.074 A 
HETATM   23 CL1  UNL     1      19.341   5.461  48.132  1.00  0.00    -0.081 Cl
HETATM   24  C12 UNL     1      21.125   4.278  49.715  1.00  0.00     0.056 A 
ENDBRANCH  15  17
ENDBRANCH   7  15
BRANCH   1  25
HETATM   25  O1  UNL     1      26.640  -1.376  53.515  1.00  0.00    -0.353 OA
HETATM   26  C1  UNL     1      27.344  -2.329  52.745  1.00  0.00     0.210 C 
ENDBRANCH   1  25
TORSDOF 3
ENDMDL
MODEL 8
REMARK VINA RESULT:      -7.6      4.457      7.281
REMARK  3 active torsions:
REMARK  status: ('A' for Active; 'I' for Inactive)
REMARK    1  A    between atoms: O1_2  and  C2_3 
REMARK    2  A    between atoms: C6_9  and  N3_10 
REMARK    3  A    between atoms: N3_10  and  C7_11 
ROOT
HETATM    1  C2  UNL     1      25.740   1.133  52.432  1.00  0.00     0.106 A 
HETATM    2  C3  UNL     1      25.426   0.117  53.312  1.00  0.00     0.072 A 
HETATM    3  C4  UNL     1      24.085   0.011  53.607  1.00  0.00     0.077 A 
HETATM    4  N1  UNL     1      23.733  -0.968  54.463  1.00  0.00    -0.241 NA
HETATM    5  C5  UNL     1      22.450  -1.136  54.800  1.00  0.00     0.236 A 
HETATM    6  N2  UNL     1      21.491  -0.348  54.306  1.00  0.00    -0.223 NA
HETATM    7  C6  UNL     1      21.791   0.626  53.462  1.00  0.00     0.144 A 
HETATM    8  C13 UNL     1      23.095   0.821  53.099  1.00  0.00     0.075 A 
HETATM    9  C14 UNL     1      23.415   1.818  52.234  1.00  0.00     0.121 A 
HETATM   10  C15 UNL     1      24.761   1.956  51.911  1.00  0.00     0.136 A 
HETATM   11  O2  UNL     1      25.087   2.985  51.020  1.00  0.00    -0.344 OA
HETATM   12  C16 UNL     1      24.285   4.152  51.094  1.00  0.00     0.202 C 
HETATM   13  C17 UNL     1      22.815   3.825  50.983  1.00  0.00     0.202 C 
HETATM   14  O3  UNL     1      22.497   2.665  51.684  1.00  0.00    -0.345 OA
ENDROOT
BRANCH   7  15
HETATM   15  N3  UNL     1      20.702   1.407  52.990  1.00  0.00    -0.340 N 
HETATM   16  H6  UNL     1      20.347   2.382  52.961  1.00  0.00     0.167 HD
BRANCH  15  17
HETATM   17  C7  UNL     1      19.625   0.778  52.283  1.00  0.00     0.035 A 
HETATM   18  C8  UNL     1      19.377   1.210  50.979  1.00  0.00     0.032 A 
HETATM   19  C9  UNL     1      18.360   0.709  50.202  1.00  0.00     0.046 A 
HETATM   20  C10 UNL     1      17.511  -0.282  50.704  1.00  0.00     0.138 A 
HETATM   21  F1  UNL     1      16.492  -0.826  50.014  1.00  0.00    -0.204 F 
HETATM   22  C11 UNL     1      17.729  -0.730  51.986  1.00  0.00     0.074 A 
HETATM   23 CL1  UNL     1      16.738  -1.966  52.733  1.00  0.00    -0.081 Cl
HETATM   24  C12 UNL     1      18.746  -0.216  52.738  1.00  0.00     0.056 A 
ENDBRANCH  15  17
ENDBRANCH   7  15
BRANCH   1  25
HETATM   25  O1  UNL     1      27.075   1.310  52.080  1.00  0.00    -0.353 OA
HETATM   26  C1  UNL     1      28.088   1.440  53.057  1.00  0.00     0.210 C 
ENDBRANCH   1  25
TORSDOF 3
ENDMDL
MODEL 9
REMARK VINA RESULT:      -7.5      4.776      7.624
REMARK  3 active torsions:
REMARK  status: ('A' for Active; 'I' for Inactive)
REMARK    1  A    between atoms: O1_2  and  C2_3 
REMARK    2  A    between atoms: C6_9  and  N3_10 
REMARK    3  A    between atoms: N3_10  and  C7_11 
ROOT
HETATM    1  C2  UNL     1      26.370   0.493  53.408  1.00  0.00     0.106 A 
HETATM    2  C3  UNL     1      27.147   1.305  52.605  1.00  0.00     0.072 A 
HETATM    3  C4  UNL     1      26.440   2.026  51.668  1.00  0.00     0.077 A 
HETATM    4  N1  UNL     1      27.159   2.832  50.863  1.00  0.00    -0.241 NA
HETATM    5  C5  UNL     1      26.547   3.566  49.927  1.00  0.00     0.236 A 
HETATM    6  N2  UNL     1      25.222   3.523  49.765  1.00  0.00    -0.223 NA
HETATM    7  C6  UNL     1      24.476   2.746  50.534  1.00  0.00     0.144 A 
HETATM    8  C13 UNL     1      25.075   1.985  51.500  1.00  0.00     0.075 A 
HETATM    9  C14 UNL     1      24.320   1.182  52.295  1.00  0.00     0.121 A 
HETATM   10  C15 UNL     1      24.999   0.438  53.254  1.00  0.00     0.136 A 
HETATM   11  O2  UNL     1      24.218  -0.387  54.072  1.00  0.00    -0.344 OA
HETATM   12  C16 UNL     1      23.062  -0.949  53.469  1.00  0.00     0.202 C 
HETATM   13  C17 UNL     1      22.195   0.111  52.834  1.00  0.00     0.202 C 
HETATM   14  O3  UNL     1      22.963   1.082  52.196  1.00  0.00    -0.345 OA
ENDROOT
BRANCH   7  15
HETATM   15  N3  UNL     1      23.077   2.771  50.287  1.00  0.00    -0.340 N 
HETATM   16  H6  UNL     1      22.259   2.146  50.153  1.00  0.00     0.167 HD
BRANCH  15  17
HETATM   17  C7  UNL     1      22.400   4.026  50.142  1.00  0.00     0.035 A 
HETATM   18  C8  UNL     1      22.252   4.809  51.288  1.00  0.00     0.032 A 
HETATM   19  C9  UNL     1      21.601   6.019  51.293  1.00  0.00     0.046 A 
HETATM   20  C10 UNL     1      21.046   6.526  50.114  1.00  0.00     0.138 A 
HETATM   21  F1  UNL     1      20.392   7.700  50.029  1.00  0.00    -0.204 F 
HETATM   22  C11 UNL     1      21.174   5.779  48.966  1.00  0.00     0.074 A 
HETATM   23 CL1  UNL     1      20.525   6.300  47.426  1.00  0.00    -0.081 Cl
HETATM   24  C12 UNL     1      21.826   4.579  48.988  1.00  0.00     0.056 A 
ENDBRANCH  15  17
ENDBRANCH   7  15
BRANCH   1  25
HETATM   25  O1  UNL     1      27.005  -0.271  54.382  1.00  0.00    -0.353 OA
HETATM   26  C1  UNL     1      28.309   0.038  54.833  1.00  0.00     0.210 C 
ENDBRANCH   1  25
TORSDOF 3
ENDMDL
