MODEL 1
REMARK VINA RESULT:      -7.7      0.000      0.000
REMARK  5 active torsions:
REMARK  status: ('A' for Active; 'I' for Inactive)
REMARK    1  A    between atoms: C2_2  and  C3_3 
REMARK    2  A    between atoms: C8_8  and  C9_9 
REMARK    3  A    between atoms: C10_12  and  S1_13 
REMARK    4  A    between atoms: S1_13  and  C11_14 
REMARK    5  A    between atoms: C11_14  and  C12_15 
ROOT
HETATM    1  C9  UNL     1      26.108   2.120  52.274  1.00  0.00     0.204 A 
HETATM    2  N1  UNL     1      26.054   2.660  51.044  1.00  0.00    -0.120 NA
HETATM    3  N2  UNL     1      24.807   3.084  50.798  1.00  0.00    -0.114 NA
HETATM    4  C10 UNL     1      24.100   2.792  51.906  1.00  0.00     0.231 A 
HETATM    5  O1  UNL     1      24.903   2.208  52.791  1.00  0.00    -0.263 OA
ENDROOT
BRANCH   1   6
HETATM    6  C8  UNL     1      27.286   1.546  52.911  1.00  0.00     0.025 A 
HETATM    7  C3  UNL     1      27.449   0.155  52.911  1.00  0.00    -0.044 A 
HETATM    8  C4  UNL     1      28.583  -0.385  53.528  1.00  0.00     0.008 A 
HETATM    9  C5  UNL     1      29.547   0.392  54.136  1.00  0.00     0.001 A 
HETATM   10  C6  UNL     1      29.342   1.777  54.112  1.00  0.00     0.001 A 
HETATM   11  C7  UNL     1      28.235   2.340  53.511  1.00  0.00     0.016 A 
BRANCH   7  12
HETATM   12  C2  UNL     1      26.457  -0.761  52.277  1.00  0.00     0.035 C 
HETATM   13  C1  UNL     1      26.905  -2.210  52.358  1.00  0.00     0.010 C 
ENDBRANCH   7  12
ENDBRANCH   1   6
BRANCH   4  14
HETATM   14  S1  UNL     1      22.374   3.253  51.862  1.00  0.00    -0.078 SA
BRANCH  14  15
HETATM   15  C11 UNL     1      21.415   1.781  51.371  1.00  0.00     0.121 C 
BRANCH  15  16
HETATM   16  C12 UNL     1      21.568   0.806  52.488  1.00  0.00    -0.049 A 
HETATM   17  C13 UNL     1      22.446  -0.265  52.520  1.00  0.00     0.008 A 
HETATM   18  C14 UNL     1      22.495  -1.100  53.617  1.00  0.00     0.001 A 
HETATM   19  C15 UNL     1      21.661  -0.878  54.715  1.00  0.00     0.000 A 
HETATM   20  C16 UNL     1      20.776   0.169  54.729  1.00  0.00     0.001 A 
HETATM   21  C17 UNL     1      20.744   1.002  53.605  1.00  0.00     0.008 A 
ENDBRANCH  15  16
ENDBRANCH  14  15
ENDBRANCH   4  14
TORSDOF 5
ENDMDL
MODEL 2
REMARK VINA RESULT:      -7.6      2.553      4.874
REMARK  5 active torsions:
REMARK  status: ('A' for Active; 'I' for Inactive)
REMARK    1  A    between atoms: C2_2  and  C3_3 
REMARK    2  A    between atoms: C8_8  and  C9_9 
REMARK    3  A    between atoms: C10_12  and  S1_13 
REMARK    4  A    between atoms: S1_13  and  C11_14 
REMARK    5  A    between atoms: C11_14  and  C12_15 
ROOT
HETATM    1  C9  UNL     1      25.611   0.029  52.817  1.00  0.00     0.204 A 
HETATM    2  N1  UNL     1      24.426  -0.308  53.354  1.00  0.00    -0.120 NA
HETATM    3  N2  UNL     1      23.491   0.564  52.954  1.00  0.00    -0.114 NA
HETATM    4  C10 UNL     1      24.132   1.442  52.160  1.00  0.00     0.231 A 
HETATM    5  O1  UNL     1      25.416   1.105  52.087  1.00  0.00    -0.263 OA
ENDROOT
BRANCH   1   6
HETATM    6  C8  UNL     1      26.875  -0.670  53.010  1.00  0.00     0.025 A 
HETATM    7  C3  UNL     1      27.916  -0.019  53.684  1.00  0.00    -0.044 A 
HETATM    8  C4  UNL     1      29.125  -0.701  53.862  1.00  0.00     0.008 A 
HETATM    9  C5  UNL     1      29.337  -1.984  53.402  1.00  0.00     0.001 A 
HETATM   10  C6  UNL     1      28.269  -2.594  52.734  1.00  0.00     0.001 A 
HETATM   11  C7  UNL     1      27.064  -1.950  52.544  1.00  0.00     0.016 A 
BRANCH   7  12
HETATM   12  C2  UNL     1      27.774   1.367  54.215  1.00  0.00     0.035 C 
HETATM   13  C1  UNL     1      28.745   2.323  53.544  1.00  0.00     0.010 C 
ENDBRANCH   7  12
ENDBRANCH   1   6
BRANCH   4  14
HETATM   14  S1  UNL     1      23.115   2.742  51.472  1.00  0.00    -0.078 SA
BRANCH  14  15
HETATM   15  C11 UNL     1      23.364   2.748  49.665  1.00  0.00     0.121 C 
BRANCH  15  16
HETATM   16  C12 UNL     1      24.529   3.646  49.419  1.00  0.00    -0.049 A 
HETATM   17  C13 UNL     1      25.865   3.290  49.509  1.00  0.00     0.008 A 
HETATM   18  C14 UNL     1      26.856   4.216  49.255  1.00  0.00     0.001 A 
HETATM   19  C15 UNL     1      26.529   5.526  48.902  1.00  0.00     0.000 A 
HETATM   20  C16 UNL     1      25.221   5.925  48.800  1.00  0.00     0.001 A 
HETATM   21  C17 UNL     1      24.233   4.969  49.063  1.00  0.00     0.008 A 
ENDBRANCH  15  16
ENDBRANCH  14  15
ENDBRANCH   4  14
TORSDOF 5
ENDMDL
MODEL 3
REMARK VINA RESULT:      -7.5      1.821      6.624
REMARK  5 active torsions:
REMARK  status: ('A' for Active; 'I' for Inactive)
REMARK    1  A    between atoms: C2_2  and  C3_3 
REMARK    2  A    between atoms: C8_8  and  C9_9 
REMARK    3  A    between atoms: C10_12  and  S1_13 
REMARK    4  A    between atoms: S1_13  and  C11_14 
REMARK    5  A    between atoms: C11_14  and  C12_15 
ROOT
HETATM    1  C9  UNL     1      22.563   1.416  52.167  1.00  0.00     0.204 A 
HETATM    2  N1  UNL     1      22.876   2.654  52.585  1.00  0.00    -0.120 NA
HETATM    3  N2  UNL     1      24.197   2.845  52.466  1.00  0.00    -0.114 NA
HETATM    4  C10 UNL     1      24.684   1.695  51.964  1.00  0.00     0.231 A 
HETATM    5  O1  UNL     1      23.681   0.838  51.789  1.00  0.00    -0.263 OA
ENDROOT
BRANCH   1   6
HETATM    6  C8  UNL     1      21.230   0.827  52.140  1.00  0.00     0.025 A 
HETATM    7  C3  UNL     1      20.801   0.065  53.234  1.00  0.00    -0.044 A 
HETATM    8  C4  UNL     1      19.520  -0.497  53.194  1.00  0.00     0.008 A 
HETATM    9  C5  UNL     1      18.662  -0.334  52.126  1.00  0.00     0.001 A 
HETATM   10  C6  UNL     1      19.134   0.434  51.056  1.00  0.00     0.001 A 
HETATM   11  C7  UNL     1      20.392   1.003  51.064  1.00  0.00     0.016 A 
BRANCH   7  12
HETATM   12  C2  UNL     1      21.663  -0.162  54.430  1.00  0.00     0.035 C 
HETATM   13  C1  UNL     1      21.877  -1.644  54.688  1.00  0.00     0.010 C 
ENDBRANCH   7  12
ENDBRANCH   1   6
BRANCH   4  14
HETATM   14  S1  UNL     1      26.450   1.659  51.695  1.00  0.00    -0.078 SA
BRANCH  14  15
HETATM   15  C11 UNL     1      27.258   1.430  53.315  1.00  0.00     0.121 C 
BRANCH  15  16
HETATM   16  C12 UNL     1      27.902   0.086  53.261  1.00  0.00    -0.049 A 
HETATM   17  C13 UNL     1      29.207  -0.206  53.621  1.00  0.00     0.008 A 
HETATM   18  C14 UNL     1      29.688  -1.496  53.528  1.00  0.00     0.001 A 
HETATM   19  C15 UNL     1      28.867  -2.528  53.069  1.00  0.00     0.000 A 
HETATM   20  C16 UNL     1      27.568  -2.286  52.701  1.00  0.00     0.001 A 
HETATM   21  C17 UNL     1      27.103  -0.970  52.804  1.00  0.00     0.008 A 
ENDBRANCH  15  16
ENDBRANCH  14  15
ENDBRANCH   4  14
TORSDOF 5
ENDMDL
MODEL 4
REMARK VINA RESULT:      -7.4      3.533      6.907
REMARK  5 active torsions:
REMARK  status: ('A' for Active; 'I' for Inactive)
REMARK    1  A    between atoms: C2_2  and  C3_3 
REMARK    2  A    between atoms: C8_8  and  C9_9 
REMARK    3  A    between atoms: C10_12  and  S1_13 
REMARK    4  A    between atoms: S1_13  and  C11_14 
REMARK    5  A    between atoms: C11_14  and  C12_15 
ROOT
HETATM    1  C9  UNL     1      23.273   1.748  52.420  1.00  0.00     0.204 A 
HETATM    2  N1  UNL     1      23.887   2.812  52.967  1.00  0.00    -0.120 NA
HETATM    3  N2  UNL     1      24.467   3.538  52.001  1.00  0.00    -0.114 NA
HETATM    4  C10 UNL     1      24.194   2.894  50.851  1.00  0.00     0.231 A 
HETATM    5  O1  UNL     1      23.470   1.811  51.121  1.00  0.00    -0.263 OA
ENDROOT
BRANCH   1   6
HETATM    6  C8  UNL     1      22.530   0.720  53.135  1.00  0.00     0.025 A 
HETATM    7  C3  UNL     1      23.214  -0.406  53.611  1.00  0.00    -0.044 A 
HETATM    8  C4  UNL     1      22.488  -1.388  54.295  1.00  0.00     0.008 A 
HETATM    9  C5  UNL     1      21.130  -1.296  54.522  1.00  0.00     0.001 A 
HETATM   10  C6  UNL     1      20.489  -0.153  54.028  1.00  0.00     0.001 A 
HETATM   11  C7  UNL     1      21.176   0.833  53.350  1.00  0.00     0.016 A 
BRANCH   7  12
HETATM   12  C2  UNL     1      24.680  -0.588  53.412  1.00  0.00     0.035 C 
HETATM   13  C1  UNL     1      25.423  -0.617  54.737  1.00  0.00     0.010 C 
ENDBRANCH   7  12
ENDBRANCH   1   6
BRANCH   4  14
HETATM   14  S1  UNL     1      24.854   3.647  49.372  1.00  0.00    -0.078 SA
BRANCH  14  15
HETATM   15  C11 UNL     1      26.674   3.605  49.487  1.00  0.00     0.121 C 
BRANCH  15  16
HETATM   16  C12 UNL     1      27.150   4.874  48.863  1.00  0.00    -0.049 A 
HETATM   17  C13 UNL     1      28.438   5.132  48.424  1.00  0.00     0.008 A 
HETATM   18  C14 UNL     1      28.755   6.351  47.860  1.00  0.00     0.001 A 
HETATM   19  C15 UNL     1      27.782   7.343  47.721  1.00  0.00     0.000 A 
HETATM   20  C16 UNL     1      26.494   7.133  48.142  1.00  0.00     0.001 A 
HETATM   21  C17 UNL     1      26.196   5.889  48.711  1.00  0.00     0.008 A 
ENDBRANCH  15  16
ENDBRANCH  14  15
ENDBRANCH   4  14
TORSDOF 5
ENDMDL
MODEL 5
REMARK VINA RESULT:      -7.2      3.340      6.494
REMARK  5 active torsions:
REMARK  status: ('A' for Active; 'I' for Inactive)
REMARK    1  A    between atoms: C2_2  and  C3_3 
REMARK    2  A    between atoms: C8_8  and  C9_9 
REMARK    3  A    between atoms: C10_12  and  S1_13 
REMARK    4  A    between atoms: S1_13  and  C11_14 
REMARK    5  A    between atoms: C11_14  and  C12_15 
ROOT
HETATM    1  C9  UNL     1      23.210   1.910  52.147  1.00  0.00     0.204 A 
HETATM    2  N1  UNL     1      23.392   1.765  50.823  1.00  0.00    -0.120 NA
HETATM    3  N2  UNL     1      23.716   2.949  50.285  1.00  0.00    -0.114 NA
HETATM    4  C10 UNL     1      23.728   3.821  51.311  1.00  0.00     0.231 A 
HETATM    5  O1  UNL     1      23.419   3.176  52.432  1.00  0.00    -0.263 OA
ENDROOT
BRANCH   1   6
HETATM    6  C8  UNL     1      22.848   0.857  53.087  1.00  0.00     0.025 A 
HETATM    7  C3  UNL     1      23.862   0.090  53.673  1.00  0.00    -0.044 A 
HETATM    8  C4  UNL     1      23.500  -0.919  54.573  1.00  0.00     0.008 A 
HETATM    9  C5  UNL     1      22.190  -1.191  54.908  1.00  0.00     0.001 A 
HETATM   10  C6  UNL     1      21.210  -0.398  54.298  1.00  0.00     0.001 A 
HETATM   11  C7  UNL     1      21.534   0.605  53.407  1.00  0.00     0.016 A 
BRANCH   7  12
HETATM   12  C2  UNL     1      25.304   0.315  53.369  1.00  0.00     0.035 C 
HETATM   13  C1  UNL     1      25.984  -0.966  52.916  1.00  0.00     0.010 C 
ENDBRANCH   7  12
ENDBRANCH   1   6
BRANCH   4  14
HETATM   14  S1  UNL     1      24.135   5.507  50.882  1.00  0.00    -0.078 SA
BRANCH  14  15
HETATM   15  C11 UNL     1      24.191   5.624  49.063  1.00  0.00     0.121 C 
BRANCH  15  16
HETATM   16  C12 UNL     1      25.620   5.872  48.716  1.00  0.00    -0.049 A 
HETATM   17  C13 UNL     1      26.139   7.044  48.191  1.00  0.00     0.008 A 
HETATM   18  C14 UNL     1      27.486   7.151  47.912  1.00  0.00     0.001 A 
HETATM   19  C15 UNL     1      28.349   6.080  48.156  1.00  0.00     0.000 A 
HETATM   20  C16 UNL     1      27.880   4.901  48.674  1.00  0.00     0.001 A 
HETATM   21  C17 UNL     1      26.510   4.815  48.949  1.00  0.00     0.008 A 
ENDBRANCH  15  16
ENDBRANCH  14  15
ENDBRANCH   4  14
TORSDOF 5
ENDMDL
MODEL 6
REMARK VINA RESULT:      -7.2      3.109      5.701
REMARK  5 active torsions:
REMARK  status: ('A' for Active; 'I' for Inactive)
REMARK    1  A    between atoms: C2_2  and  C3_3 
REMARK    2  A    between atoms: C8_8  and  C9_9 
REMARK    3  A    between atoms: C10_12  and  S1_13 
REMARK    4  A    between atoms: S1_13  and  C11_14 
REMARK    5  A    between atoms: C11_14  and  C12_15 
ROOT
HETATM    1  C9  UNL     1      25.891   1.406  52.333  1.00  0.00     0.204 A 
HETATM    2  N1  UNL     1      25.080   2.039  53.198  1.00  0.00    -0.120 NA
HETATM    3  N2  UNL     1      24.355   2.955  52.541  1.00  0.00    -0.114 NA
HETATM    4  C10 UNL     1      24.742   2.867  51.254  1.00  0.00     0.231 A 
HETATM    5  O1  UNL     1      25.674   1.924  51.145  1.00  0.00    -0.263 OA
ENDROOT
BRANCH   1   6
HETATM    6  C8  UNL     1      26.835   0.345  52.657  1.00  0.00     0.025 A 
HETATM    7  C3  UNL     1      28.057   0.680  53.253  1.00  0.00    -0.044 A 
HETATM    8  C4  UNL     1      28.956  -0.349  53.557  1.00  0.00     0.008 A 
HETATM    9  C5  UNL     1      28.692  -1.678  53.295  1.00  0.00     0.001 A 
HETATM   10  C6  UNL     1      27.458  -1.965  52.699  1.00  0.00     0.001 A 
HETATM   11  C7  UNL     1      26.550  -0.974  52.387  1.00  0.00     0.016 A 
BRANCH   7  12
HETATM   12  C2  UNL     1      28.425   2.089  53.571  1.00  0.00     0.035 C 
HETATM   13  C1  UNL     1      29.630   2.155  54.496  1.00  0.00     0.010 C 
ENDBRANCH   7  12
ENDBRANCH   1   6
BRANCH   4  14
HETATM   14  S1  UNL     1      23.929   3.991  50.127  1.00  0.00    -0.078 SA
BRANCH  14  15
HETATM   15  C11 UNL     1      24.582   5.666  50.439  1.00  0.00     0.121 C 
BRANCH  15  16
HETATM   16  C12 UNL     1      25.841   5.765  49.646  1.00  0.00    -0.049 A 
HETATM   17  C13 UNL     1      26.648   4.706  49.265  1.00  0.00     0.008 A 
HETATM   18  C14 UNL     1      27.793   4.927  48.527  1.00  0.00     0.001 A 
HETATM   19  C15 UNL     1      28.156   6.222  48.151  1.00  0.00     0.000 A 
HETATM   20  C16 UNL     1      27.388   7.302  48.506  1.00  0.00     0.001 A 
HETATM   21  C17 UNL     1      26.232   7.052  49.255  1.00  0.00     0.008 A 
ENDBRANCH  15  16
ENDBRANCH  14  15
ENDBRANCH   4  14
TORSDOF 5
ENDMDL
MODEL 7
REMARK VINA RESULT:      -7.0      2.560      6.791
REMARK  5 active torsions:
REMARK  status: ('A' for Active; 'I' for Inactive)
REMARK    1  A    between atoms: C2_2  and  C3_3 
REMARK    2  A    between atoms: C8_8  and  C9_9 
REMARK    3  A    between atoms: C10_12  and  S1_13 
REMARK    4  A    between atoms: S1_13  and  C11_14 
REMARK    5  A    between atoms: C11_14  and  C12_15 
ROOT
HETATM    1  C9  UNL     1      20.354   1.281  51.957  1.00  0.00     0.204 A 
HETATM    2  N1  UNL     1      20.311   2.588  52.269  1.00  0.00    -0.120 NA
HETATM    3  N2  UNL     1      21.424   3.189  51.826  1.00  0.00    -0.114 NA
HETATM    4  C10 UNL     1      22.148   2.219  51.236  1.00  0.00     0.231 A 
HETATM    5  O1  UNL     1      21.486   1.069  51.324  1.00  0.00    -0.263 OA
ENDROOT
BRANCH   1   6
HETATM    6  C8  UNL     1      19.334   0.288  52.266  1.00  0.00     0.025 A 
HETATM    7  C3  UNL     1      19.521  -0.560  53.366  1.00  0.00    -0.044 A 
HETATM    8  C4  UNL     1      18.534  -1.511  53.650  1.00  0.00     0.008 A 
HETATM    9  C5  UNL     1      17.387  -1.650  52.897  1.00  0.00     0.001 A 
HETATM   10  C6  UNL     1      17.243  -0.782  51.808  1.00  0.00     0.001 A 
HETATM   11  C7  UNL     1      18.197   0.167  51.501  1.00  0.00     0.016 A 
BRANCH   7  12
HETATM   12  C2  UNL     1      20.730  -0.478  54.234  1.00  0.00     0.035 C 
HETATM   13  C1  UNL     1      21.500  -1.788  54.241  1.00  0.00     0.010 C 
ENDBRANCH   7  12
ENDBRANCH   1   6
BRANCH   4  14
HETATM   14  S1  UNL     1      23.710   2.739  50.542  1.00  0.00    -0.078 SA
BRANCH  14  15
HETATM   15  C11 UNL     1      24.899   2.922  51.915  1.00  0.00     0.121 C 
BRANCH  15  16
HETATM   16  C12 UNL     1      25.241   1.535  52.342  1.00  0.00    -0.049 A 
HETATM   17  C13 UNL     1      24.525   0.758  53.237  1.00  0.00     0.008 A 
HETATM   18  C14 UNL     1      24.945  -0.519  53.551  1.00  0.00     0.001 A 
HETATM   19  C15 UNL     1      26.100  -1.048  52.971  1.00  0.00     0.000 A 
HETATM   20  C16 UNL     1      26.842  -0.316  52.080  1.00  0.00     0.001 A 
HETATM   21  C17 UNL     1      26.396   0.976  51.777  1.00  0.00     0.008 A 
ENDBRANCH  15  16
ENDBRANCH  14  15
ENDBRANCH   4  14
TORSDOF 5
ENDMDL
MODEL 8
REMARK VINA RESULT:      -6.8      3.719      6.338
REMARK  5 active torsions:
REMARK  status: ('A' for Active; 'I' for Inactive)
REMARK    1  A    between atoms: C2_2  and  C3_3 
REMARK    2  A    between atoms: C8_8  and  C9_9 
REMARK    3  A    between atoms: C10_12  and  S1_13 
REMARK    4  A    between atoms: S1_13  and  C11_14 
REMARK    5  A    between atoms: C11_14  and  C12_15 
ROOT
HETATM    1  C9  UNL     1      24.484   2.747  52.315  1.00  0.00     0.204 A 
HETATM    2  N1  UNL     1      23.956   3.901  52.759  1.00  0.00    -0.120 NA
HETATM    3  N2  UNL     1      23.789   4.740  51.728  1.00  0.00    -0.114 NA
HETATM    4  C10 UNL     1      24.227   4.073  50.644  1.00  0.00     0.231 A 
HETATM    5  O1  UNL     1      24.645   2.866  51.016  1.00  0.00    -0.263 OA
ENDROOT
BRANCH   1   6
HETATM    6  C8  UNL     1      24.816   1.583  53.126  1.00  0.00     0.025 A 
HETATM    7  C3  UNL     1      23.875   0.553  53.255  1.00  0.00    -0.044 A 
HETATM    8  C4  UNL     1      24.205  -0.559  54.038  1.00  0.00     0.008 A 
HETATM    9  C5  UNL     1      25.415  -0.685  54.689  1.00  0.00     0.001 A 
HETATM   10  C6  UNL     1      26.324   0.369  54.532  1.00  0.00     0.001 A 
HETATM   11  C7  UNL     1      26.029   1.478  53.766  1.00  0.00     0.016 A 
BRANCH   7  12
HETATM   12  C2  UNL     1      22.543   0.606  52.586  1.00  0.00     0.035 C 
HETATM   13  C1  UNL     1      21.508  -0.209  53.342  1.00  0.00     0.010 C 
ENDBRANCH   7  12
ENDBRANCH   1   6
BRANCH   4  14
HETATM   14  S1  UNL     1      24.122   4.963  49.098  1.00  0.00    -0.078 SA
BRANCH  14  15
HETATM   15  C11 UNL     1      24.970   6.564  49.316  1.00  0.00     0.121 C 
BRANCH  15  16
HETATM   16  C12 UNL     1      26.381   6.336  48.890  1.00  0.00    -0.049 A 
HETATM   17  C13 UNL     1      27.024   5.111  48.822  1.00  0.00     0.008 A 
HETATM   18  C14 UNL     1      28.338   5.030  48.409  1.00  0.00     0.001 A 
HETATM   19  C15 UNL     1      29.042   6.183  48.053  1.00  0.00     0.000 A 
HETATM   20  C16 UNL     1      28.448   7.417  48.105  1.00  0.00     0.001 A 
HETATM   21  C17 UNL     1      27.114   7.474  48.527  1.00  0.00     0.008 A 
ENDBRANCH  15  16
ENDBRANCH  14  15
ENDBRANCH   4  14
TORSDOF 5
ENDMDL
MODEL 9
REMARK VINA RESULT:      -6.8      3.611      6.576
REMARK  5 active torsions:
REMARK  status: ('A' for Active; 'I' for Inactive)
REMARK    1  A    between atoms: C2_2  and  C3_3 
REMARK    2  A    between atoms: C8_8  and  C9_9 
REMARK    3  A    between atoms: C10_12  and  S1_13 
REMARK    4  A    between atoms: S1_13  and  C11_14 
REMARK    5  A    between atoms: C11_14  and  C12_15 
ROOT
HETATM    1  C9  UNL     1      23.060   2.990  51.474  1.00  0.00     0.204 A 
HETATM    2  N1  UNL     1      22.639   4.166  51.972  1.00  0.00    -0.120 NA
HETATM    3  N2  UNL     1      22.745   5.113  51.029  1.00  0.00    -0.114 NA
HETATM    4  C10 UNL     1      23.240   4.489  49.944  1.00  0.00     0.231 A 
HETATM    5  O1  UNL     1      23.426   3.203  50.230  1.00  0.00    -0.263 OA
ENDROOT
BRANCH   1   6
HETATM    6  C8  UNL     1      23.102   1.719  52.185  1.00  0.00     0.025 A 
HETATM    7  C3  UNL     1      24.309   1.302  52.761  1.00  0.00    -0.044 A 
HETATM    8  C4  UNL     1      24.337   0.078  53.439  1.00  0.00     0.008 A 
HETATM    9  C5  UNL     1      23.229  -0.734  53.566  1.00  0.00     0.001 A 
HETATM   10  C6  UNL     1      22.046  -0.276  52.975  1.00  0.00     0.001 A 
HETATM   11  C7  UNL     1      21.985   0.926  52.300  1.00  0.00     0.016 A 
BRANCH   7  12
HETATM   12  C2  UNL     1      25.555   2.117  52.672  1.00  0.00     0.035 C 
HETATM   13  C1  UNL     1      26.495   1.583  51.605  1.00  0.00     0.010 C 
ENDBRANCH   7  12
ENDBRANCH   1   6
BRANCH   4  14
HETATM   14  S1  UNL     1      23.490   5.523  48.509  1.00  0.00    -0.078 SA
BRANCH  14  15
HETATM   15  C11 UNL     1      24.569   6.910  49.000  1.00  0.00     0.121 C 
BRANCH  15  16
HETATM   16  C12 UNL     1      25.962   6.463  48.712  1.00  0.00    -0.049 A 
HETATM   17  C13 UNL     1      26.961   7.231  48.137  1.00  0.00     0.008 A 
HETATM   18  C14 UNL     1      28.217   6.700  47.922  1.00  0.00     0.001 A 
HETATM   19  C15 UNL     1      28.501   5.381  48.281  1.00  0.00     0.000 A 
HETATM   20  C16 UNL     1      27.543   4.583  48.853  1.00  0.00     0.001 A 
HETATM   21  C17 UNL     1      26.277   5.143  49.061  1.00  0.00     0.008 A 
ENDBRANCH  15  16
ENDBRANCH  14  15
ENDBRANCH   4  14
TORSDOF 5
ENDMDL
