MODEL 1
REMARK VINA RESULT:      -8.1      0.000      0.000
REMARK  2 active torsions:
REMARK  status: ('A' for Active; 'I' for Inactive)
REMARK    1  A    between atoms: C8_8  and  N1_9 
REMARK    2  A    between atoms: N1_9  and  C9_10 
ROOT
HETATM    1  C1  UNL     1      29.380  -0.563  53.187  1.00  0.00     0.032 C 
HETATM    2  C2  UNL     1      29.099   0.366  54.355  1.00  0.00     0.083 C 
HETATM    3  C3  UNL     1      28.519   1.690  53.909  1.00  0.00     0.083 C 
HETATM    4  C4  UNL     1      27.077   1.407  53.864  1.00  0.00     0.034 C 
HETATM    5  C5  UNL     1      26.699   0.321  54.534  1.00  0.00     0.032 C 
HETATM    6  C6  UNL     1      25.495  -0.448  54.855  1.00  0.00     0.089 C 
HETATM    7  C7  UNL     1      24.347  -0.337  53.984  1.00  0.00     0.029 C 
HETATM    8  C8  UNL     1      23.700   0.409  53.121  1.00  0.00     0.121 C 
HETATM    9  N2  UNL     1      24.012   1.718  52.629  1.00  0.00    -0.227 NA
HETATM   10  C15 UNL     1      25.020   2.494  52.609  1.00  0.00     0.209 C 
HETATM   11  N3  UNL     1      26.332   2.356  53.103  1.00  0.00    -0.352 N 
HETATM   12  N4  UNL     1      27.930  -0.171  55.067  1.00  0.00    -0.387 N 
HETATM   13  H18 UNL     1      26.907   3.202  52.819  1.00  0.00     0.166 HD
HETATM   14  H19 UNL     1      28.081  -0.839  55.867  1.00  0.00     0.159 HD
ENDROOT
BRANCH   8  15
HETATM   15  N1  UNL     1      22.501  -0.106  52.553  1.00  0.00    -0.367 N 
HETATM   16  H10 UNL     1      22.932  -0.881  51.968  1.00  0.00     0.161 HD
BRANCH  15  17
HETATM   17  C9  UNL     1      21.170   0.382  52.795  1.00  0.00     0.110 A 
HETATM   18  C10 UNL     1      20.392   0.596  51.575  1.00  0.00     0.001 A 
HETATM   19  C11 UNL     1      19.194   0.273  51.127  1.00  0.00     0.040 A 
HETATM   20  C12 UNL     1      18.429  -0.502  52.091  1.00  0.00     0.112 A 
HETATM   21  F1  UNL     1      17.176  -0.945  51.854  1.00  0.00    -0.206 F 
HETATM   22  C13 UNL     1      19.071  -0.735  53.221  1.00  0.00     0.018 A 
HETATM   23  C14 UNL     1      20.398  -0.409  53.784  1.00  0.00     0.059 A 
ENDBRANCH  15  17
ENDBRANCH   8  15
TORSDOF 2
ENDMDL
MODEL 2
REMARK VINA RESULT:      -7.9      3.538      7.674
REMARK  2 active torsions:
REMARK  status: ('A' for Active; 'I' for Inactive)
REMARK    1  A    between atoms: C8_8  and  N1_9 
REMARK    2  A    between atoms: N1_9  and  C9_10 
ROOT
HETATM    1  C1  UNL     1      20.160   1.002  49.775  1.00  0.00     0.032 C 
HETATM    2  C2  UNL     1      19.758   1.818  50.992  1.00  0.00     0.083 C 
HETATM    3  C3  UNL     1      19.404   0.948  52.176  1.00  0.00     0.083 C 
HETATM    4  C4  UNL     1      20.709   0.740  52.821  1.00  0.00     0.034 C 
HETATM    5  C5  UNL     1      21.655   1.602  52.456  1.00  0.00     0.032 C 
HETATM    6  C6  UNL     1      23.064   1.912  52.714  1.00  0.00     0.089 C 
HETATM    7  C7  UNL     1      23.924   0.864  53.214  1.00  0.00     0.029 C 
HETATM    8  C8  UNL     1      23.999  -0.261  53.884  1.00  0.00     0.121 C 
HETATM    9  N2  UNL     1      22.958  -1.023  54.509  1.00  0.00    -0.227 NA
HETATM   10  C15 UNL     1      21.687  -1.081  54.468  1.00  0.00     0.209 C 
HETATM   11  N3  UNL     1      20.729  -0.358  53.730  1.00  0.00    -0.352 N 
HETATM   12  N4  UNL     1      20.980   2.443  51.520  1.00  0.00    -0.387 N 
HETATM   13  H18 UNL     1      19.764  -0.757  53.920  1.00  0.00     0.166 HD
HETATM   14  H19 UNL     1      21.247   3.406  51.186  1.00  0.00     0.159 HD
ENDROOT
BRANCH   8  15
HETATM   15  N1  UNL     1      25.277  -0.862  54.049  1.00  0.00    -0.367 N 
HETATM   16  H10 UNL     1      24.995  -1.633  54.723  1.00  0.00     0.161 HD
BRANCH  15  17
HETATM   17  C9  UNL     1      26.501  -0.440  53.423  1.00  0.00     0.110 A 
HETATM   18  C10 UNL     1      27.424   0.239  54.334  1.00  0.00     0.001 A 
HETATM   19  C11 UNL     1      28.701   0.153  54.651  1.00  0.00     0.040 A 
HETATM   20  C12 UNL     1      29.393  -0.887  53.904  1.00  0.00     0.112 A 
HETATM   21  F1  UNL     1      30.705  -1.158  54.060  1.00  0.00    -0.206 F 
HETATM   22  C13 UNL     1      28.619  -1.544  53.060  1.00  0.00     0.018 A 
HETATM   23  C14 UNL     1      27.197  -1.503  52.659  1.00  0.00     0.059 A 
ENDBRANCH  15  17
ENDBRANCH   8  15
TORSDOF 2
ENDMDL
MODEL 3
REMARK VINA RESULT:      -7.7      3.735      6.465
REMARK  2 active torsions:
REMARK  status: ('A' for Active; 'I' for Inactive)
REMARK    1  A    between atoms: C8_8  and  N1_9 
REMARK    2  A    between atoms: N1_9  and  C9_10 
ROOT
HETATM    1  C1  UNL     1      26.117   4.966  49.301  1.00  0.00     0.032 C 
HETATM    2  C2  UNL     1      24.762   5.560  49.643  1.00  0.00     0.083 C 
HETATM    3  C3  UNL     1      23.617   4.691  49.171  1.00  0.00     0.083 C 
HETATM    4  C4  UNL     1      23.432   3.768  50.301  1.00  0.00     0.034 C 
HETATM    5  C5  UNL     1      23.984   4.166  51.444  1.00  0.00     0.032 C 
HETATM    6  C6  UNL     1      24.146   3.732  52.834  1.00  0.00     0.089 C 
HETATM    7  C7  UNL     1      24.041   2.323  53.138  1.00  0.00     0.029 C 
HETATM    8  C8  UNL     1      23.541   1.164  52.783  1.00  0.00     0.121 C 
HETATM    9  N2  UNL     1      22.704   0.832  51.668  1.00  0.00    -0.227 NA
HETATM   10  C15 UNL     1      22.356   1.368  50.568  1.00  0.00     0.209 C 
HETATM   11  N3  UNL     1      22.686   2.600  49.967  1.00  0.00    -0.352 N 
HETATM   12  N4  UNL     1      24.578   5.417  51.095  1.00  0.00    -0.387 N 
HETATM   13  H18 UNL     1      22.248   2.649  49.001  1.00  0.00     0.166 HD
HETATM   14  H19 UNL     1      24.882   6.202  51.728  1.00  0.00     0.159 HD
ENDROOT
BRANCH   8  15
HETATM   15  N1  UNL     1      23.840   0.028  53.586  1.00  0.00    -0.367 N 
HETATM   16  H10 UNL     1      22.864  -0.148  53.966  1.00  0.00     0.161 HD
BRANCH  15  17
HETATM   17  C9  UNL     1      25.130  -0.588  53.739  1.00  0.00     0.110 A 
HETATM   18  C10 UNL     1      25.964  -0.510  52.538  1.00  0.00     0.001 A 
HETATM   19  C11 UNL     1      27.199  -0.151  52.245  1.00  0.00     0.040 A 
HETATM   20  C12 UNL     1      27.946   0.285  53.415  1.00  0.00     0.112 A 
HETATM   21  F1  UNL     1      29.229   0.698  53.358  1.00  0.00    -0.206 F 
HETATM   22  C13 UNL     1      27.254   0.242  54.538  1.00  0.00     0.018 A 
HETATM   23  C14 UNL     1      25.883  -0.143  54.936  1.00  0.00     0.059 A 
ENDBRANCH  15  17
ENDBRANCH   8  15
TORSDOF 2
ENDMDL
MODEL 4
REMARK VINA RESULT:      -7.3      4.054      6.986
REMARK  2 active torsions:
REMARK  status: ('A' for Active; 'I' for Inactive)
REMARK    1  A    between atoms: C8_8  and  N1_9 
REMARK    2  A    between atoms: N1_9  and  C9_10 
ROOT
HETATM    1  C1  UNL     1      23.093   6.410  50.392  1.00  0.00     0.032 C 
HETATM    2  C2  UNL     1      23.617   5.646  49.188  1.00  0.00     0.083 C 
HETATM    3  C3  UNL     1      25.086   5.310  49.315  1.00  0.00     0.083 C 
HETATM    4  C4  UNL     1      25.059   4.031  50.041  1.00  0.00     0.034 C 
HETATM    5  C5  UNL     1      23.884   3.406  50.027  1.00  0.00     0.032 C 
HETATM    6  C6  UNL     1      23.245   2.185  50.526  1.00  0.00     0.089 C 
HETATM    7  C7  UNL     1      23.812   1.528  51.682  1.00  0.00     0.029 C 
HETATM    8  C8  UNL     1      24.890   1.315  52.397  1.00  0.00     0.121 C 
HETATM    9  N2  UNL     1      26.225   1.802  52.207  1.00  0.00    -0.227 NA
HETATM   10  C15 UNL     1      26.800   2.716  51.533  1.00  0.00     0.209 C 
HETATM   11  N3  UNL     1      26.307   3.685  50.637  1.00  0.00    -0.352 N 
HETATM   12  N4  UNL     1      23.061   4.286  49.260  1.00  0.00    -0.387 N 
HETATM   13  H18 UNL     1      27.101   4.322  50.335  1.00  0.00     0.166 HD
HETATM   14  H19 UNL     1      22.152   4.079  48.770  1.00  0.00     0.159 HD
ENDROOT
BRANCH   8  15
HETATM   15  N1  UNL     1      24.782   0.483  53.546  1.00  0.00    -0.367 N 
HETATM   16  H10 UNL     1      23.791   0.743  53.827  1.00  0.00     0.161 HD
BRANCH  15  17
HETATM   17  C9  UNL     1      25.798  -0.398  54.055  1.00  0.00     0.110 A 
HETATM   18  C10 UNL     1      26.414  -1.238  53.028  1.00  0.00     0.001 A 
HETATM   19  C11 UNL     1      27.637  -1.554  52.648  1.00  0.00     0.040 A 
HETATM   20  C12 UNL     1      28.658  -0.903  53.456  1.00  0.00     0.112 A 
HETATM   21  F1  UNL     1      29.981  -1.076  53.253  1.00  0.00    -0.206 F 
HETATM   22  C13 UNL     1      28.173  -0.125  54.406  1.00  0.00     0.018 A 
HETATM   23  C14 UNL     1      26.831   0.272  54.882  1.00  0.00     0.059 A 
ENDBRANCH  15  17
ENDBRANCH   8  15
TORSDOF 2
ENDMDL
MODEL 5
REMARK VINA RESULT:      -7.3      4.430      7.114
REMARK  2 active torsions:
REMARK  status: ('A' for Active; 'I' for Inactive)
REMARK    1  A    between atoms: C8_8  and  N1_9 
REMARK    2  A    between atoms: N1_9  and  C9_10 
ROOT
HETATM    1  C1  UNL     1      23.379   6.072  47.886  1.00  0.00     0.032 C 
HETATM    2  C2  UNL     1      24.489   6.756  48.666  1.00  0.00     0.083 C 
HETATM    3  C3  UNL     1      24.090   7.051  50.095  1.00  0.00     0.083 C 
HETATM    4  C4  UNL     1      24.450   5.806  50.789  1.00  0.00     0.034 C 
HETATM    5  C5  UNL     1      25.293   5.019  50.125  1.00  0.00     0.032 C 
HETATM    6  C6  UNL     1      25.988   3.736  50.259  1.00  0.00     0.089 C 
HETATM    7  C7  UNL     1      25.441   2.740  51.152  1.00  0.00     0.029 C 
HETATM    8  C8  UNL     1      24.712   2.513  52.218  1.00  0.00     0.121 C 
HETATM    9  N2  UNL     1      24.037   3.438  53.079  1.00  0.00    -0.227 NA
HETATM   10  C15 UNL     1      23.682   4.660  53.044  1.00  0.00     0.209 C 
HETATM   11  N3  UNL     1      23.826   5.661  52.063  1.00  0.00    -0.352 N 
HETATM   12  N4  UNL     1      25.528   5.747  48.919  1.00  0.00    -0.387 N 
HETATM   13  H18 UNL     1      23.324   6.541  52.381  1.00  0.00     0.166 HD
HETATM   14  H19 UNL     1      26.320   5.645  48.231  1.00  0.00     0.159 HD
ENDROOT
BRANCH   8  15
HETATM   15  N1  UNL     1      24.528   1.164  52.632  1.00  0.00    -0.367 N 
HETATM   16  H10 UNL     1      23.609   0.977  52.134  1.00  0.00     0.161 HD
BRANCH  15  17
HETATM   17  C9  UNL     1      25.413   0.407  53.476  1.00  0.00     0.110 A 
HETATM   18  C10 UNL     1      25.978  -0.776  52.824  1.00  0.00     0.001 A 
HETATM   19  C11 UNL     1      27.174  -1.309  52.665  1.00  0.00     0.040 A 
HETATM   20  C12 UNL     1      28.222  -0.527  53.304  1.00  0.00     0.112 A 
HETATM   21  F1  UNL     1      29.525  -0.877  53.275  1.00  0.00    -0.206 F 
HETATM   22  C13 UNL     1      27.784   0.559  53.913  1.00  0.00     0.018 A 
HETATM   23  C14 UNL     1      26.474   1.211  54.127  1.00  0.00     0.059 A 
ENDBRANCH  15  17
ENDBRANCH   8  15
TORSDOF 2
ENDMDL
MODEL 6
REMARK VINA RESULT:      -7.3      1.684      2.142
REMARK  2 active torsions:
REMARK  status: ('A' for Active; 'I' for Inactive)
REMARK    1  A    between atoms: C8_8  and  N1_9 
REMARK    2  A    between atoms: N1_9  and  C9_10 
ROOT
HETATM    1  C1  UNL     1      27.190  -1.996  52.489  1.00  0.00     0.032 C 
HETATM    2  C2  UNL     1      27.171  -0.787  53.408  1.00  0.00     0.083 C 
HETATM    3  C3  UNL     1      26.897   0.499  52.662  1.00  0.00     0.083 C 
HETATM    4  C4  UNL     1      25.427   0.555  52.655  1.00  0.00     0.034 C 
HETATM    5  C5  UNL     1      24.834  -0.232  53.549  1.00  0.00     0.032 C 
HETATM    6  C6  UNL     1      23.497  -0.608  54.015  1.00  0.00     0.089 C 
HETATM    7  C7  UNL     1      22.375  -0.434  53.120  1.00  0.00     0.029 C 
HETATM    8  C8  UNL     1      21.887   0.226  52.098  1.00  0.00     0.121 C 
HETATM    9  N2  UNL     1      22.473   1.281  51.326  1.00  0.00    -0.227 NA
HETATM   10  C15 UNL     1      23.632   1.777  51.147  1.00  0.00     0.209 C 
HETATM   11  N3  UNL     1      24.894   1.453  51.684  1.00  0.00    -0.352 N 
HETATM   12  N4  UNL     1      25.936  -0.863  54.203  1.00  0.00    -0.387 N 
HETATM   13  H18 UNL     1      25.637   2.056  51.224  1.00  0.00     0.166 HD
HETATM   14  H19 UNL     1      25.958  -1.348  55.137  1.00  0.00     0.159 HD
ENDROOT
BRANCH   8  15
HETATM   15  N1  UNL     1      20.582  -0.112  51.641  1.00  0.00    -0.367 N 
HETATM   16  H10 UNL     1      20.852  -0.504  50.692  1.00  0.00     0.161 HD
BRANCH  15  17
HETATM   17  C9  UNL     1      19.354   0.080  52.364  1.00  0.00     0.110 A 
HETATM   18  C10 UNL     1      18.189   0.277  51.500  1.00  0.00     0.001 A 
HETATM   19  C11 UNL     1      16.970  -0.218  51.399  1.00  0.00     0.040 A 
HETATM   20  C12 UNL     1      16.694  -1.230  52.407  1.00  0.00     0.112 A 
HETATM   21  F1  UNL     1      15.513  -1.876  52.499  1.00  0.00    -0.206 F 
HETATM   22  C13 UNL     1      17.705  -1.461  53.224  1.00  0.00     0.018 A 
HETATM   23  C14 UNL     1      19.082  -0.952  53.393  1.00  0.00     0.059 A 
ENDBRANCH  15  17
ENDBRANCH   8  15
TORSDOF 2
ENDMDL
MODEL 7
REMARK VINA RESULT:      -7.2      4.182      7.854
REMARK  2 active torsions:
REMARK  status: ('A' for Active; 'I' for Inactive)
REMARK    1  A    between atoms: C8_8  and  N1_9 
REMARK    2  A    between atoms: N1_9  and  C9_10 
ROOT
HETATM    1  C1  UNL     1      21.183   1.319  48.526  1.00  0.00     0.032 C 
HETATM    2  C2  UNL     1      21.031   2.809  48.778  1.00  0.00     0.083 C 
HETATM    3  C3  UNL     1      20.947   3.137  50.252  1.00  0.00     0.083 C 
HETATM    4  C4  UNL     1      22.361   3.278  50.628  1.00  0.00     0.034 C 
HETATM    5  C5  UNL     1      23.196   3.455  49.607  1.00  0.00     0.032 C 
HETATM    6  C6  UNL     1      24.622   3.646  49.332  1.00  0.00     0.089 C 
HETATM    7  C7  UNL     1      25.585   3.182  50.305  1.00  0.00     0.029 C 
HETATM    8  C8  UNL     1      25.816   2.903  51.565  1.00  0.00     0.121 C 
HETATM    9  N2  UNL     1      24.942   2.995  52.697  1.00  0.00    -0.227 NA
HETATM   10  C15 UNL     1      23.692   3.110  52.906  1.00  0.00     0.209 C 
HETATM   11  N3  UNL     1      22.589   3.199  52.034  1.00  0.00    -0.352 N 
HETATM   12  N4  UNL     1      22.326   3.436  48.475  1.00  0.00    -0.387 N 
HETATM   13  H18 UNL     1      21.691   3.207  52.600  1.00  0.00     0.166 HD
HETATM   14  H19 UNL     1      22.502   3.801  47.502  1.00  0.00     0.159 HD
ENDROOT
BRANCH   8  15
HETATM   15  N1  UNL     1      27.111   2.434  51.924  1.00  0.00    -0.367 N 
HETATM   16  H10 UNL     1      27.653   2.852  51.112  1.00  0.00     0.161 HD
BRANCH  15  17
HETATM   17  C9  UNL     1      27.435   1.639  53.077  1.00  0.00     0.110 A 
HETATM   18  C10 UNL     1      27.314   0.198  52.851  1.00  0.00     0.001 A 
HETATM   19  C11 UNL     1      28.055  -0.874  53.054  1.00  0.00     0.040 A 
HETATM   20  C12 UNL     1      29.336  -0.559  53.669  1.00  0.00     0.112 A 
HETATM   21  F1  UNL     1      30.258  -1.496  53.972  1.00  0.00    -0.206 F 
HETATM   22  C13 UNL     1      29.515   0.728  53.903  1.00  0.00     0.018 A 
HETATM   23  C14 UNL     1      28.739   1.969  53.702  1.00  0.00     0.059 A 
ENDBRANCH  15  17
ENDBRANCH   8  15
TORSDOF 2
ENDMDL
MODEL 8
REMARK VINA RESULT:      -7.0      3.352      7.427
REMARK  2 active torsions:
REMARK  status: ('A' for Active; 'I' for Inactive)
REMARK    1  A    between atoms: C8_8  and  N1_9 
REMARK    2  A    between atoms: N1_9  and  C9_10 
ROOT
HETATM    1  C1  UNL     1      18.728   2.482  51.659  1.00  0.00     0.032 C 
HETATM    2  C2  UNL     1      19.088   1.447  50.606  1.00  0.00     0.083 C 
HETATM    3  C3  UNL     1      20.225   1.901  49.719  1.00  0.00     0.083 C 
HETATM    4  C4  UNL     1      21.410   1.462  50.471  1.00  0.00     0.034 C 
HETATM    5  C5  UNL     1      21.171   0.545  51.405  1.00  0.00     0.032 C 
HETATM    6  C6  UNL     1      21.871  -0.244  52.422  1.00  0.00     0.089 C 
HETATM    7  C7  UNL     1      23.130   0.245  52.934  1.00  0.00     0.029 C 
HETATM    8  C8  UNL     1      24.192   0.979  52.702  1.00  0.00     0.121 C 
HETATM    9  N2  UNL     1      24.540   1.744  51.541  1.00  0.00    -0.227 NA
HETATM   10  C15 UNL     1      23.951   2.192  50.506  1.00  0.00     0.209 C 
HETATM   11  N3  UNL     1      22.616   2.103  50.062  1.00  0.00    -0.352 N 
HETATM   12  N4  UNL     1      19.761   0.339  51.298  1.00  0.00    -0.387 N 
HETATM   13  H18 UNL     1      22.500   2.679  49.177  1.00  0.00     0.166 HD
HETATM   14  H19 UNL     1      19.186  -0.474  51.643  1.00  0.00     0.159 HD
ENDROOT
BRANCH   8  15
HETATM   15  N1  UNL     1      25.184   1.067  53.719  1.00  0.00    -0.367 N 
HETATM   16  H10 UNL     1      25.031   2.082  53.991  1.00  0.00     0.161 HD
BRANCH  15  17
HETATM   17  C9  UNL     1      26.059   0.008  54.145  1.00  0.00     0.110 A 
HETATM   18  C10 UNL     1      26.363  -0.961  53.091  1.00  0.00     0.001 A 
HETATM   19  C11 UNL     1      27.442  -1.527  52.585  1.00  0.00     0.040 A 
HETATM   20  C12 UNL     1      28.664  -1.080  53.237  1.00  0.00     0.112 A 
HETATM   21  F1  UNL     1      29.890  -1.523  52.889  1.00  0.00    -0.206 F 
HETATM   22  C13 UNL     1      28.465  -0.201  54.202  1.00  0.00     0.018 A 
HETATM   23  C14 UNL     1      27.299   0.470  54.813  1.00  0.00     0.059 A 
ENDBRANCH  15  17
ENDBRANCH   8  15
TORSDOF 2
ENDMDL
MODEL 9
REMARK VINA RESULT:      -7.0      3.624      5.567
REMARK  2 active torsions:
REMARK  status: ('A' for Active; 'I' for Inactive)
REMARK    1  A    between atoms: C8_8  and  N1_9 
REMARK    2  A    between atoms: N1_9  and  C9_10 
ROOT
HETATM    1  C1  UNL     1      24.224   7.153  47.667  1.00  0.00     0.032 C 
HETATM    2  C2  UNL     1      25.427   7.334  48.577  1.00  0.00     0.083 C 
HETATM    3  C3  UNL     1      25.029   7.576  50.015  1.00  0.00     0.083 C 
HETATM    4  C4  UNL     1      24.908   6.210  50.546  1.00  0.00     0.034 C 
HETATM    5  C5  UNL     1      25.503   5.272  49.814  1.00  0.00     0.032 C 
HETATM    6  C6  UNL     1      25.732   3.825  49.798  1.00  0.00     0.089 C 
HETATM    7  C7  UNL     1      24.820   2.970  50.524  1.00  0.00     0.029 C 
HETATM    8  C8  UNL     1      23.972   2.874  51.519  1.00  0.00     0.121 C 
HETATM    9  N2  UNL     1      23.564   3.864  52.472  1.00  0.00    -0.227 NA
HETATM   10  C15 UNL     1      23.628   5.130  52.591  1.00  0.00     0.209 C 
HETATM   11  N3  UNL     1      24.169   6.134  51.763  1.00  0.00    -0.352 N 
HETATM   12  N4  UNL     1      26.060   6.016  48.729  1.00  0.00    -0.387 N 
HETATM   13  H18 UNL     1      23.954   7.087  52.179  1.00  0.00     0.166 HD
HETATM   14  H19 UNL     1      26.829   5.738  48.065  1.00  0.00     0.159 HD
ENDROOT
BRANCH   8  15
HETATM   15  N1  UNL     1      23.328   1.624  51.736  1.00  0.00    -0.367 N 
HETATM   16  H10 UNL     1      23.311   1.287  50.730  1.00  0.00     0.161 HD
BRANCH  15  17
HETATM   17  C9  UNL     1      22.888   1.105  53.003  1.00  0.00     0.110 A 
HETATM   18  C10 UNL     1      21.435   1.137  53.179  1.00  0.00     0.001 A 
HETATM   19  C11 UNL     1      20.492   0.295  53.555  1.00  0.00     0.040 A 
HETATM   20  C12 UNL     1      21.019  -1.020  53.889  1.00  0.00     0.112 A 
HETATM   21  F1  UNL     1      20.241  -2.044  54.300  1.00  0.00    -0.206 F 
HETATM   22  C13 UNL     1      22.328  -1.122  53.753  1.00  0.00     0.018 A 
HETATM   23  C14 UNL     1      23.433  -0.232  53.340  1.00  0.00     0.059 A 
ENDBRANCH  15  17
ENDBRANCH   8  15
TORSDOF 2
ENDMDL
