MODEL 1
REMARK VINA RESULT:      -8.8      0.000      0.000
REMARK  6 active torsions:
REMARK  status: ('A' for Active; 'I' for Inactive)
REMARK    1  A    between atoms: C7_9  and  C8_10 
REMARK    2  A    between atoms: C9_11  and  C10_12 
REMARK    3  A    between atoms: C10_12  and  C11_14 
REMARK    4  A    between atoms: C11_14  and  C12_15 
REMARK    5  A    between atoms: C16_19  and  C17_20 
REMARK    6  A    between atoms: C18_21  and  N3_22 
ROOT
HETATM    1  N1  UNL     1      28.595   2.482  54.196  1.00  0.00    -0.191 NA
HETATM    2  C1  UNL     1      28.501   1.345  53.901  1.00  0.00     0.101 C 
HETATM    3  C2  UNL     1      28.388  -0.034  53.542  1.00  0.00     0.068 A 
HETATM    4  C3  UNL     1      29.482  -0.735  53.736  1.00  0.00     0.139 A 
HETATM    5  N2  UNL     1      29.393  -2.108  53.389  1.00  0.00    -0.275 NA
HETATM    6  C4  UNL     1      28.322  -2.643  52.920  1.00  0.00     0.093 A 
HETATM    7  C5  UNL     1      27.037  -2.015  52.651  1.00  0.00     0.087 A 
HETATM    8  C6  UNL     1      27.131  -0.555  52.989  1.00  0.00    -0.031 A 
HETATM    9  C7  UNL     1      26.078   0.168  52.757  1.00  0.00     0.009 C 
ENDROOT
BRANCH   9  10
HETATM   10  C8  UNL     1      25.336   1.385  52.733  1.00  0.00     0.004 C 
HETATM   11  C9  UNL     1      25.054   2.464  53.419  1.00  0.00     0.050 C 
BRANCH  11  12
HETATM   12  C10 UNL     1      24.166   3.387  52.790  1.00  0.00     0.149 C 
HETATM   13  O1  UNL     1      23.848   4.364  53.505  1.00  0.00    -0.293 OA
BRANCH  12  14
HETATM   14  C11 UNL     1      23.320   3.982  51.775  1.00  0.00     0.092 C 
BRANCH  14  15
HETATM   15  C12 UNL     1      24.055   4.820  50.775  1.00  0.00     0.023 C 
HETATM   16  C13 UNL     1      23.165   5.309  49.683  1.00  0.00    -0.025 C 
HETATM   17  C14 UNL     1      23.222   4.465  48.631  1.00  0.00    -0.029 C 
HETATM   18  C15 UNL     1      24.153   3.360  48.955  1.00  0.00     0.036 C 
HETATM   19  C16 UNL     1      25.059   4.013  49.985  1.00  0.00     0.021 C 
BRANCH  19  20
HETATM   20  C17 UNL     1      25.978   4.991  49.325  1.00  0.00    -0.004 C 
HETATM   21  C18 UNL     1      27.217   4.842  48.882  1.00  0.00     0.087 C 
BRANCH  21  22
HETATM   22  N3  UNL     1      28.047   5.811  48.260  1.00  0.00    -0.363 N 
HETATM   23  C19 UNL     1      29.416   5.454  48.140  1.00  0.00     0.090 A 
HETATM   24  C20 UNL     1      30.261   6.296  47.572  1.00  0.00     0.017 A 
HETATM   25  C21 UNL     1      29.839   7.608  47.049  1.00  0.00    -0.001 A 
HETATM   26  C22 UNL     1      28.558   7.915  47.175  1.00  0.00    -0.007 A 
HETATM   27  C23 UNL     1      27.510   7.087  47.781  1.00  0.00     0.155 A 
ENDBRANCH  21  22
ENDBRANCH  19  20
ENDBRANCH  14  15
ENDBRANCH  12  14
ENDBRANCH  11  12
ENDBRANCH   9  10
TORSDOF 6
ENDMDL
MODEL 2
REMARK VINA RESULT:      -8.6      1.529      2.341
REMARK  6 active torsions:
REMARK  status: ('A' for Active; 'I' for Inactive)
REMARK    1  A    between atoms: C7_9  and  C8_10 
REMARK    2  A    between atoms: C9_11  and  C10_12 
REMARK    3  A    between atoms: C10_12  and  C11_14 
REMARK    4  A    between atoms: C11_14  and  C12_15 
REMARK    5  A    between atoms: C16_19  and  C17_20 
REMARK    6  A    between atoms: C18_21  and  N3_22 
ROOT
HETATM    1  N1  UNL     1      27.096   2.423  54.181  1.00  0.00    -0.191 NA
HETATM    2  C1  UNL     1      27.575   1.371  53.956  1.00  0.00     0.101 C 
HETATM    3  C2  UNL     1      28.159   0.095  53.682  1.00  0.00     0.068 A 
HETATM    4  C3  UNL     1      29.447   0.024  53.933  1.00  0.00     0.139 A 
HETATM    5  N2  UNL     1      30.047  -1.234  53.671  1.00  0.00    -0.275 NA
HETATM    6  C4  UNL     1      29.390  -2.245  53.223  1.00  0.00     0.093 A 
HETATM    7  C5  UNL     1      27.973  -2.334  52.900  1.00  0.00     0.087 A 
HETATM    8  C6  UNL     1      27.335  -0.997  53.148  1.00  0.00    -0.031 A 
HETATM    9  C7  UNL     1      26.074  -0.889  52.858  1.00  0.00     0.009 C 
ENDROOT
BRANCH   9  10
HETATM   10  C8  UNL     1      24.837  -0.188  52.750  1.00  0.00     0.004 C 
HETATM   11  C9  UNL     1      23.669  -0.014  53.315  1.00  0.00     0.050 C 
BRANCH  11  12
HETATM   12  C10 UNL     1      22.793   0.904  52.661  1.00  0.00     0.149 C 
HETATM   13  O1  UNL     1      21.578   0.715  52.900  1.00  0.00    -0.293 OA
BRANCH  12  14
HETATM   14  C11 UNL     1      22.356   2.007  51.830  1.00  0.00     0.092 C 
BRANCH  14  15
HETATM   15  C12 UNL     1      23.425   3.012  51.528  1.00  0.00     0.023 C 
HETATM   16  C13 UNL     1      24.051   3.560  52.766  1.00  0.00    -0.025 C 
HETATM   17  C14 UNL     1      23.435   4.707  53.123  1.00  0.00    -0.029 C 
HETATM   18  C15 UNL     1      22.360   4.996  52.147  1.00  0.00     0.036 C 
HETATM   19  C16 UNL     1      22.864   4.271  50.911  1.00  0.00     0.021 C 
BRANCH  19  20
HETATM   20  C17 UNL     1      24.017   5.009  50.308  1.00  0.00    -0.004 C 
HETATM   21  C18 UNL     1      24.916   4.619  49.417  1.00  0.00     0.087 C 
BRANCH  21  22
HETATM   22  N3  UNL     1      25.995   5.367  48.878  1.00  0.00    -0.363 N 
HETATM   23  C19 UNL     1      27.257   4.717  48.899  1.00  0.00     0.090 A 
HETATM   24  C20 UNL     1      28.318   5.339  48.416  1.00  0.00     0.017 A 
HETATM   25  C21 UNL     1      28.248   6.697  47.847  1.00  0.00    -0.001 A 
HETATM   26  C22 UNL     1      27.059   7.279  47.840  1.00  0.00    -0.007 A 
HETATM   27  C23 UNL     1      25.801   6.716  48.340  1.00  0.00     0.155 A 
ENDBRANCH  21  22
ENDBRANCH  19  20
ENDBRANCH  14  15
ENDBRANCH  12  14
ENDBRANCH  11  12
ENDBRANCH   9  10
TORSDOF 6
ENDMDL
MODEL 3
REMARK VINA RESULT:      -8.6      3.086      4.458
REMARK  6 active torsions:
REMARK  status: ('A' for Active; 'I' for Inactive)
REMARK    1  A    between atoms: C7_9  and  C8_10 
REMARK    2  A    between atoms: C9_11  and  C10_12 
REMARK    3  A    between atoms: C10_12  and  C11_14 
REMARK    4  A    between atoms: C11_14  and  C12_15 
REMARK    5  A    between atoms: C16_19  and  C17_20 
REMARK    6  A    between atoms: C18_21  and  N3_22 
ROOT
HETATM    1  N1  UNL     1      24.638   3.087  53.488  1.00  0.00    -0.191 NA
HETATM    2  C1  UNL     1      25.620   2.437  53.502  1.00  0.00     0.101 C 
HETATM    3  C2  UNL     1      26.812   1.649  53.520  1.00  0.00     0.068 A 
HETATM    4  C3  UNL     1      27.908   2.321  53.251  1.00  0.00     0.139 A 
HETATM    5  N2  UNL     1      29.105   1.559  53.264  1.00  0.00    -0.275 NA
HETATM    6  C4  UNL     1      29.131   0.299  53.524  1.00  0.00     0.093 A 
HETATM    7  C5  UNL     1      28.019  -0.584  53.843  1.00  0.00     0.087 A 
HETATM    8  C6  UNL     1      26.744   0.209  53.803  1.00  0.00    -0.031 A 
HETATM    9  C7  UNL     1      25.643  -0.444  54.015  1.00  0.00     0.009 C 
ENDROOT
BRANCH   9  10
HETATM   10  C8  UNL     1      24.229  -0.568  54.148  1.00  0.00     0.004 C 
HETATM   11  C9  UNL     1      23.279  -1.126  54.856  1.00  0.00     0.050 C 
BRANCH  11  12
HETATM   12  C10 UNL     1      21.944  -0.832  54.447  1.00  0.00     0.149 C 
HETATM   13  O1  UNL     1      21.080  -1.611  54.912  1.00  0.00    -0.293 OA
BRANCH  12  14
HETATM   14  C11 UNL     1      20.841  -0.161  53.789  1.00  0.00     0.092 C 
BRANCH  14  15
HETATM   15  C12 UNL     1      21.240   1.048  53.001  1.00  0.00     0.023 C 
HETATM   16  C13 UNL     1      20.059   1.815  52.506  1.00  0.00    -0.025 C 
HETATM   17  C14 UNL     1      19.748   1.421  51.253  1.00  0.00    -0.029 C 
HETATM   18  C15 UNL     1      20.700   0.367  50.833  1.00  0.00     0.036 C 
HETATM   19  C16 UNL     1      21.909   0.683  51.697  1.00  0.00     0.021 C 
BRANCH  19  20
HETATM   20  C17 UNL     1      22.595   1.916  51.201  1.00  0.00    -0.004 C 
HETATM   21  C18 UNL     1      23.348   2.108  50.129  1.00  0.00     0.087 C 
BRANCH  21  22
HETATM   22  N3  UNL     1      23.978   3.307  49.705  1.00  0.00    -0.363 N 
HETATM   23  C19 UNL     1      25.385   3.353  49.888  1.00  0.00     0.090 A 
HETATM   24  C20 UNL     1      26.056   4.431  49.520  1.00  0.00     0.017 A 
HETATM   25  C21 UNL     1      25.396   5.605  48.919  1.00  0.00    -0.001 A 
HETATM   26  C22 UNL     1      24.084   5.535  48.761  1.00  0.00    -0.007 A 
HETATM   27  C23 UNL     1      23.213   4.411  49.121  1.00  0.00     0.155 A 
ENDBRANCH  21  22
ENDBRANCH  19  20
ENDBRANCH  14  15
ENDBRANCH  12  14
ENDBRANCH  11  12
ENDBRANCH   9  10
TORSDOF 6
ENDMDL
MODEL 4
REMARK VINA RESULT:      -8.2      2.666      7.541
REMARK  6 active torsions:
REMARK  status: ('A' for Active; 'I' for Inactive)
REMARK    1  A    between atoms: C7_9  and  C8_10 
REMARK    2  A    between atoms: C9_11  and  C10_12 
REMARK    3  A    between atoms: C10_12  and  C11_14 
REMARK    4  A    between atoms: C11_14  and  C12_15 
REMARK    5  A    between atoms: C16_19  and  C17_20 
REMARK    6  A    between atoms: C18_21  and  N3_22 
ROOT
HETATM    1  N1  UNL     1      22.805   6.220  51.165  1.00  0.00    -0.191 NA
HETATM    2  C1  UNL     1      23.806   5.887  50.641  1.00  0.00     0.101 C 
HETATM    3  C2  UNL     1      25.020   5.484  50.004  1.00  0.00     0.068 A 
HETATM    4  C3  UNL     1      25.775   6.480  49.600  1.00  0.00     0.139 A 
HETATM    5  N2  UNL     1      26.988   6.104  48.966  1.00  0.00    -0.275 NA
HETATM    6  C4  UNL     1      27.339   4.878  48.796  1.00  0.00     0.093 A 
HETATM    7  C5  UNL     1      26.627   3.669  49.184  1.00  0.00     0.087 A 
HETATM    8  C6  UNL     1      25.328   4.058  49.830  1.00  0.00    -0.031 A 
HETATM    9  C7  UNL     1      24.543   3.090  50.191  1.00  0.00     0.009 C 
ENDROOT
BRANCH   9  10
HETATM   10  C8  UNL     1      23.351   2.546  50.754  1.00  0.00     0.004 C 
HETATM   11  C9  UNL     1      22.074   2.768  50.943  1.00  0.00     0.050 C 
BRANCH  11  12
HETATM   12  C10 UNL     1      21.361   1.746  51.639  1.00  0.00     0.149 C 
HETATM   13  O1  UNL     1      20.256   2.112  52.098  1.00  0.00    -0.293 OA
BRANCH  12  14
HETATM   14  C11 UNL     1      21.057   0.450  52.209  1.00  0.00     0.092 C 
BRANCH  14  15
HETATM   15  C12 UNL     1      22.261  -0.391  52.503  1.00  0.00     0.023 C 
HETATM   16  C13 UNL     1      21.904  -1.673  53.179  1.00  0.00    -0.025 C 
HETATM   17  C14 UNL     1      22.000  -1.528  54.518  1.00  0.00    -0.029 C 
HETATM   18  C15 UNL     1      22.424  -0.141  54.819  1.00  0.00     0.036 C 
HETATM   19  C16 UNL     1      23.155   0.241  53.543  1.00  0.00     0.021 C 
BRANCH  19  20
HETATM   20  C17 UNL     1      24.473  -0.463  53.467  1.00  0.00    -0.004 C 
HETATM   21  C18 UNL     1      25.706   0.020  53.460  1.00  0.00     0.087 C 
BRANCH  21  22
HETATM   22  N3  UNL     1      26.927  -0.700  53.386  1.00  0.00    -0.363 N 
HETATM   23  C19 UNL     1      28.061  -0.031  53.918  1.00  0.00     0.090 A 
HETATM   24  C20 UNL     1      29.240  -0.627  53.892  1.00  0.00     0.017 A 
HETATM   25  C21 UNL     1      29.433  -1.976  53.328  1.00  0.00    -0.001 A 
HETATM   26  C22 UNL     1      28.359  -2.575  52.839  1.00  0.00    -0.007 A 
HETATM   27  C23 UNL     1      26.993  -2.040  52.797  1.00  0.00     0.155 A 
ENDBRANCH  21  22
ENDBRANCH  19  20
ENDBRANCH  14  15
ENDBRANCH  12  14
ENDBRANCH  11  12
ENDBRANCH   9  10
TORSDOF 6
ENDMDL
MODEL 5
REMARK VINA RESULT:      -8.1      2.011      7.292
REMARK  6 active torsions:
REMARK  status: ('A' for Active; 'I' for Inactive)
REMARK    1  A    between atoms: C7_9  and  C8_10 
REMARK    2  A    between atoms: C9_11  and  C10_12 
REMARK    3  A    between atoms: C10_12  and  C11_14 
REMARK    4  A    between atoms: C11_14  and  C12_15 
REMARK    5  A    between atoms: C16_19  and  C17_20 
REMARK    6  A    between atoms: C18_21  and  N3_22 
ROOT
HETATM    1  N1  UNL     1      26.652   2.865  50.032  1.00  0.00    -0.191 NA
HETATM    2  C1  UNL     1      26.902   3.871  49.474  1.00  0.00     0.101 C 
HETATM    3  C2  UNL     1      27.207   5.092  48.797  1.00  0.00     0.068 A 
HETATM    4  C3  UNL     1      28.468   5.216  48.447  1.00  0.00     0.139 A 
HETATM    5  N2  UNL     1      28.794   6.420  47.770  1.00  0.00    -0.275 NA
HETATM    6  C4  UNL     1      27.927   7.333  47.508  1.00  0.00     0.093 A 
HETATM    7  C5  UNL     1      26.505   7.350  47.818  1.00  0.00     0.087 A 
HETATM    8  C6  UNL     1      26.157   6.091  48.560  1.00  0.00    -0.031 A 
HETATM    9  C7  UNL     1      24.928   5.970  48.961  1.00  0.00     0.009 C 
ENDROOT
BRANCH   9  10
HETATM   10  C8  UNL     1      23.849   5.301  49.609  1.00  0.00     0.004 C 
HETATM   11  C9  UNL     1      22.586   4.975  49.495  1.00  0.00     0.050 C 
BRANCH  11  12
HETATM   12  C10 UNL     1      22.033   4.236  50.583  1.00  0.00     0.149 C 
HETATM   13  O1  UNL     1      21.732   4.933  51.579  1.00  0.00    -0.293 OA
BRANCH  12  14
HETATM   14  C11 UNL     1      21.551   3.107  51.352  1.00  0.00     0.092 C 
BRANCH  14  15
HETATM   15  C12 UNL     1      22.533   1.983  51.478  1.00  0.00     0.023 C 
HETATM   16  C13 UNL     1      21.966   0.682  51.017  1.00  0.00    -0.025 C 
HETATM   17  C14 UNL     1      21.453   0.007  52.068  1.00  0.00    -0.029 C 
HETATM   18  C15 UNL     1      21.645   0.815  53.294  1.00  0.00     0.036 C 
HETATM   19  C16 UNL     1      22.849   1.662  52.919  1.00  0.00     0.021 C 
BRANCH  19  20
HETATM   20  C17 UNL     1      24.092   0.830  52.916  1.00  0.00    -0.004 C 
HETATM   21  C18 UNL     1      25.315   1.110  53.337  1.00  0.00     0.087 C 
BRANCH  21  22
HETATM   22  N3  UNL     1      26.463   0.275  53.309  1.00  0.00    -0.363 N 
HETATM   23  C19 UNL     1      26.259  -1.022  52.767  1.00  0.00     0.090 A 
HETATM   24  C20 UNL     1      27.274  -1.866  52.699  1.00  0.00     0.017 A 
HETATM   25  C21 UNL     1      28.628  -1.515  53.167  1.00  0.00    -0.001 A 
HETATM   26  C22 UNL     1      28.788  -0.300  53.668  1.00  0.00    -0.007 A 
HETATM   27  C23 UNL     1      27.761   0.738  53.807  1.00  0.00     0.155 A 
ENDBRANCH  21  22
ENDBRANCH  19  20
ENDBRANCH  14  15
ENDBRANCH  12  14
ENDBRANCH  11  12
ENDBRANCH   9  10
TORSDOF 6
ENDMDL
MODEL 6
REMARK VINA RESULT:      -7.9      4.882      7.841
REMARK  6 active torsions:
REMARK  status: ('A' for Active; 'I' for Inactive)
REMARK    1  A    between atoms: C7_9  and  C8_10 
REMARK    2  A    between atoms: C9_11  and  C10_12 
REMARK    3  A    between atoms: C10_12  and  C11_14 
REMARK    4  A    between atoms: C11_14  and  C12_15 
REMARK    5  A    between atoms: C16_19  and  C17_20 
REMARK    6  A    between atoms: C18_21  and  N3_22 
ROOT
HETATM    1  N1  UNL     1      28.151   2.476  53.977  1.00  0.00    -0.191 NA
HETATM    2  C1  UNL     1      28.161   1.324  53.735  1.00  0.00     0.101 C 
HETATM    3  C2  UNL     1      28.174  -0.075  53.442  1.00  0.00     0.068 A 
HETATM    4  C3  UNL     1      29.317  -0.671  53.700  1.00  0.00     0.139 A 
HETATM    5  N2  UNL     1      29.353  -2.061  53.418  1.00  0.00    -0.275 NA
HETATM    6  C4  UNL     1      28.345  -2.707  52.947  1.00  0.00     0.093 A 
HETATM    7  C5  UNL     1      27.021  -2.204  52.613  1.00  0.00     0.087 A 
HETATM    8  C6  UNL     1      26.983  -0.726  52.882  1.00  0.00    -0.031 A 
HETATM    9  C7  UNL     1      25.881  -0.107  52.586  1.00  0.00     0.009 C 
ENDROOT
BRANCH   9  10
HETATM   10  C8  UNL     1      25.041   1.041  52.483  1.00  0.00     0.004 C 
HETATM   11  C9  UNL     1      24.573   2.070  53.143  1.00  0.00     0.050 C 
BRANCH  11  12
HETATM   12  C10 UNL     1      23.697   2.930  52.415  1.00  0.00     0.149 C 
HETATM   13  O1  UNL     1      23.965   4.148  52.523  1.00  0.00    -0.293 OA
BRANCH  12  14
HETATM   14  C11 UNL     1      22.606   3.347  51.558  1.00  0.00     0.092 C 
BRANCH  14  15
HETATM   15  C12 UNL     1      21.247   2.974  52.065  1.00  0.00     0.023 C 
HETATM   16  C13 UNL     1      21.184   1.555  52.521  1.00  0.00    -0.025 C 
HETATM   17  C14 UNL     1      20.739   0.770  51.517  1.00  0.00    -0.029 C 
HETATM   18  C15 UNL     1      20.480   1.615  50.329  1.00  0.00     0.036 C 
HETATM   19  C16 UNL     1      20.212   2.968  50.966  1.00  0.00     0.021 C 
BRANCH  19  20
HETATM   20  C17 UNL     1      18.872   2.974  51.632  1.00  0.00    -0.004 C 
HETATM   21  C18 UNL     1      17.655   2.995  51.113  1.00  0.00     0.087 C 
BRANCH  21  22
HETATM   22  N3  UNL     1      16.411   2.999  51.798  1.00  0.00    -0.363 N 
HETATM   23  C19 UNL     1      15.722   1.758  51.816  1.00  0.00     0.090 A 
HETATM   24  C20 UNL     1      14.556   1.670  52.433  1.00  0.00     0.017 A 
HETATM   25  C21 UNL     1      13.932   2.819  53.114  1.00  0.00    -0.001 A 
HETATM   26  C22 UNL     1      14.597   3.963  53.080  1.00  0.00    -0.007 A 
HETATM   27  C23 UNL     1      15.892   4.211  52.436  1.00  0.00     0.155 A 
ENDBRANCH  21  22
ENDBRANCH  19  20
ENDBRANCH  14  15
ENDBRANCH  12  14
ENDBRANCH  11  12
ENDBRANCH   9  10
TORSDOF 6
ENDMDL
MODEL 7
REMARK VINA RESULT:      -7.7      1.784      7.655
REMARK  6 active torsions:
REMARK  status: ('A' for Active; 'I' for Inactive)
REMARK    1  A    between atoms: C7_9  and  C8_10 
REMARK    2  A    between atoms: C9_11  and  C10_12 
REMARK    3  A    between atoms: C10_12  and  C11_14 
REMARK    4  A    between atoms: C11_14  and  C12_15 
REMARK    5  A    between atoms: C16_19  and  C17_20 
REMARK    6  A    between atoms: C18_21  and  N3_22 
ROOT
HETATM    1  N1  UNL     1      27.563   4.197  48.987  1.00  0.00    -0.191 NA
HETATM    2  C1  UNL     1      27.647   5.269  48.507  1.00  0.00     0.101 C 
HETATM    3  C2  UNL     1      27.749   6.570  47.924  1.00  0.00     0.068 A 
HETATM    4  C3  UNL     1      28.970   6.914  47.582  1.00  0.00     0.139 A 
HETATM    5  N2  UNL     1      29.096   8.202  46.999  1.00  0.00    -0.275 NA
HETATM    6  C4  UNL     1      28.095   8.986  46.809  1.00  0.00     0.093 A 
HETATM    7  C5  UNL     1      26.692   8.758  47.124  1.00  0.00     0.087 A 
HETATM    8  C6  UNL     1      26.554   7.408  47.768  1.00  0.00    -0.031 A 
HETATM    9  C7  UNL     1      25.365   7.068  48.161  1.00  0.00     0.009 C 
ENDROOT
BRANCH   9  10
HETATM   10  C8  UNL     1      24.412   6.192  48.759  1.00  0.00     0.004 C 
HETATM   11  C9  UNL     1      23.475   5.314  48.500  1.00  0.00     0.050 C 
BRANCH  11  12
HETATM   12  C10 UNL     1      22.832   4.738  49.636  1.00  0.00     0.149 C 
HETATM   13  O1  UNL     1      21.586   4.660  49.538  1.00  0.00    -0.293 OA
BRANCH  12  14
HETATM   14  C11 UNL     1      22.667   4.130  50.941  1.00  0.00     0.092 C 
BRANCH  14  15
HETATM   15  C12 UNL     1      23.572   2.964  51.196  1.00  0.00     0.023 C 
HETATM   16  C13 UNL     1      23.079   1.713  50.549  1.00  0.00    -0.025 C 
HETATM   17  C14 UNL     1      22.342   1.002  51.428  1.00  0.00    -0.029 C 
HETATM   18  C15 UNL     1      22.296   1.733  52.715  1.00  0.00     0.036 C 
HETATM   19  C16 UNL     1      23.574   2.552  52.649  1.00  0.00     0.021 C 
BRANCH  19  20
HETATM   20  C17 UNL     1      24.768   1.673  52.849  1.00  0.00    -0.004 C 
HETATM   21  C18 UNL     1      26.051   1.979  52.962  1.00  0.00     0.087 C 
BRANCH  21  22
HETATM   22  N3  UNL     1      27.147   1.098  53.152  1.00  0.00    -0.363 N 
HETATM   23  C19 UNL     1      26.878  -0.272  52.894  1.00  0.00     0.090 A 
HETATM   24  C20 UNL     1      27.842  -1.165  53.043  1.00  0.00     0.017 A 
HETATM   25  C21 UNL     1      29.204  -0.794  53.471  1.00  0.00    -0.001 A 
HETATM   26  C22 UNL     1      29.425   0.490  53.704  1.00  0.00    -0.007 A 
HETATM   27  C23 UNL     1      28.459   1.587  53.583  1.00  0.00     0.155 A 
ENDBRANCH  21  22
ENDBRANCH  19  20
ENDBRANCH  14  15
ENDBRANCH  12  14
ENDBRANCH  11  12
ENDBRANCH   9  10
TORSDOF 6
ENDMDL
MODEL 8
REMARK VINA RESULT:      -7.7      2.853      4.305
REMARK  6 active torsions:
REMARK  status: ('A' for Active; 'I' for Inactive)
REMARK    1  A    between atoms: C7_9  and  C8_10 
REMARK    2  A    between atoms: C9_11  and  C10_12 
REMARK    3  A    between atoms: C10_12  and  C11_14 
REMARK    4  A    between atoms: C11_14  and  C12_15 
REMARK    5  A    between atoms: C16_19  and  C17_20 
REMARK    6  A    between atoms: C18_21  and  N3_22 
ROOT
HETATM    1  N1  UNL     1      26.593  -2.434  52.331  1.00  0.00    -0.191 NA
HETATM    2  C1  UNL     1      27.144  -1.475  52.736  1.00  0.00     0.101 C 
HETATM    3  C2  UNL     1      27.813  -0.312  53.229  1.00  0.00     0.068 A 
HETATM    4  C3  UNL     1      29.113  -0.452  53.363  1.00  0.00     0.139 A 
HETATM    5  N2  UNL     1      29.799   0.691  53.849  1.00  0.00    -0.275 NA
HETATM    6  C4  UNL     1      29.205   1.795  54.138  1.00  0.00     0.093 A 
HETATM    7  C5  UNL     1      27.789   2.114  54.043  1.00  0.00     0.087 A 
HETATM    8  C6  UNL     1      27.050   0.900  53.557  1.00  0.00    -0.031 A 
HETATM    9  C7  UNL     1      25.759   0.999  53.465  1.00  0.00     0.009 C 
ENDROOT
BRANCH   9  10
HETATM   10  C8  UNL     1      24.451   0.509  53.178  1.00  0.00     0.004 C 
HETATM   11  C9  UNL     1      23.627  -0.487  53.385  1.00  0.00     0.050 C 
BRANCH  11  12
HETATM   12  C10 UNL     1      22.346  -0.373  52.767  1.00  0.00     0.149 C 
HETATM   13  O1  UNL     1      21.429  -0.976  53.370  1.00  0.00    -0.293 OA
BRANCH  12  14
HETATM   14  C11 UNL     1      21.326   0.021  51.816  1.00  0.00     0.092 C 
BRANCH  14  15
HETATM   15  C12 UNL     1      21.394   1.459  51.402  1.00  0.00     0.023 C 
HETATM   16  C13 UNL     1      20.206   1.874  50.600  1.00  0.00    -0.025 C 
HETATM   17  C14 UNL     1      20.476   1.751  49.283  1.00  0.00    -0.029 C 
HETATM   18  C15 UNL     1      21.859   1.246  49.124  1.00  0.00     0.036 C 
HETATM   19  C16 UNL     1      22.508   1.715  50.415  1.00  0.00     0.021 C 
BRANCH  19  20
HETATM   20  C17 UNL     1      22.727   3.194  50.381  1.00  0.00    -0.004 C 
HETATM   21  C18 UNL     1      23.848   3.898  50.413  1.00  0.00     0.087 C 
BRANCH  21  22
HETATM   22  N3  UNL     1      23.996   5.309  50.378  1.00  0.00    -0.363 N 
HETATM   23  C19 UNL     1      22.827   6.052  50.687  1.00  0.00     0.090 A 
HETATM   24  C20 UNL     1      22.873   7.373  50.681  1.00  0.00     0.017 A 
HETATM   25  C21 UNL     1      24.104   8.119  50.363  1.00  0.00    -0.001 A 
HETATM   26  C22 UNL     1      25.179   7.401  50.078  1.00  0.00    -0.007 A 
HETATM   27  C23 UNL     1      25.277   5.938  50.045  1.00  0.00     0.155 A 
ENDBRANCH  21  22
ENDBRANCH  19  20
ENDBRANCH  14  15
ENDBRANCH  12  14
ENDBRANCH  11  12
ENDBRANCH   9  10
TORSDOF 6
ENDMDL
MODEL 9
REMARK VINA RESULT:      -7.6      3.361      4.836
REMARK  6 active torsions:
REMARK  status: ('A' for Active; 'I' for Inactive)
REMARK    1  A    between atoms: C7_9  and  C8_10 
REMARK    2  A    between atoms: C9_11  and  C10_12 
REMARK    3  A    between atoms: C10_12  and  C11_14 
REMARK    4  A    between atoms: C11_14  and  C12_15 
REMARK    5  A    between atoms: C16_19  and  C17_20 
REMARK    6  A    between atoms: C18_21  and  N3_22 
ROOT
HETATM    1  N1  UNL     1      24.422   3.144  53.389  1.00  0.00    -0.191 NA
HETATM    2  C1  UNL     1      25.331   2.395  53.379  1.00  0.00     0.101 C 
HETATM    3  C2  UNL     1      26.434   1.486  53.365  1.00  0.00     0.068 A 
HETATM    4  C3  UNL     1      27.613   2.068  53.347  1.00  0.00     0.139 A 
HETATM    5  N2  UNL     1      28.724   1.185  53.336  1.00  0.00    -0.275 NA
HETATM    6  C4  UNL     1      28.602  -0.095  53.347  1.00  0.00     0.093 A 
HETATM    7  C5  UNL     1      27.383  -0.890  53.372  1.00  0.00     0.087 A 
HETATM    8  C6  UNL     1      26.201   0.036  53.356  1.00  0.00    -0.031 A 
HETATM    9  C7  UNL     1      25.027  -0.516  53.322  1.00  0.00     0.009 C 
ENDROOT
BRANCH   9  10
HETATM   10  C8  UNL     1      23.601  -0.500  53.282  1.00  0.00     0.004 C 
HETATM   11  C9  UNL     1      22.523  -0.592  54.019  1.00  0.00     0.050 C 
BRANCH  11  12
HETATM   12  C10 UNL     1      21.282  -0.490  53.321  1.00  0.00     0.149 C 
HETATM   13  O1  UNL     1      20.300  -0.948  53.949  1.00  0.00    -0.293 OA
BRANCH  12  14
HETATM   14  C11 UNL     1      20.337  -0.174  52.270  1.00  0.00     0.092 C 
BRANCH  14  15
HETATM   15  C12 UNL     1      20.425   1.233  51.765  1.00  0.00     0.023 C 
HETATM   16  C13 UNL     1      19.460   1.500  50.660  1.00  0.00    -0.025 C 
HETATM   17  C14 UNL     1      20.063   1.309  49.467  1.00  0.00    -0.029 C 
HETATM   18  C15 UNL     1      21.468   0.903  49.702  1.00  0.00     0.036 C 
HETATM   19  C16 UNL     1      21.738   1.507  51.069  1.00  0.00     0.021 C 
BRANCH  19  20
HETATM   20  C17 UNL     1      21.873   2.993  50.966  1.00  0.00    -0.004 C 
HETATM   21  C18 UNL     1      22.669   3.732  50.209  1.00  0.00     0.087 C 
BRANCH  21  22
HETATM   22  N3  UNL     1      22.754   5.148  50.152  1.00  0.00    -0.363 N 
HETATM   23  C19 UNL     1      21.702   5.848  50.800  1.00  0.00     0.090 A 
HETATM   24  C20 UNL     1      21.701   7.170  50.799  1.00  0.00     0.017 A 
HETATM   25  C21 UNL     1      22.761   7.961  50.146  1.00  0.00    -0.001 A 
HETATM   26  C22 UNL     1      23.728   7.282  49.550  1.00  0.00    -0.007 A 
HETATM   27  C23 UNL     1      23.861   5.823  49.469  1.00  0.00     0.155 A 
ENDBRANCH  21  22
ENDBRANCH  19  20
ENDBRANCH  14  15
ENDBRANCH  12  14
ENDBRANCH  11  12
ENDBRANCH   9  10
TORSDOF 6
ENDMDL
