MODEL 1
REMARK VINA RESULT:      -9.6      0.000      0.000
REMARK  5 active torsions:
REMARK  status: ('A' for Active; 'I' for Inactive)
REMARK    1  A    between atoms: N1_1  and  C1_2 
REMARK    2  A    between atoms: C4_6  and  C5_7 
REMARK    3  A    between atoms: C13_16  and  N4_17 
REMARK       I    between atoms: N4_17  and  C14_18 
REMARK    4  A    between atoms: C14_18  and  C15_20 
REMARK    5  A    between atoms: C18_23  and  C19_24 
ROOT
HETATM    1  C1  UNL     1      21.481  -1.063  54.222  1.00  0.00     0.698 C 
HETATM    2  N2  UNL     1      22.087  -1.613  55.248  1.00  0.00    -0.078 NA
HETATM    3  C2  UNL     1      23.404  -1.357  55.782  1.00  0.00     0.133 C 
HETATM    4  C3  UNL     1      24.546  -1.035  55.202  1.00  0.00     0.007 C 
HETATM    5  C4  UNL     1      25.129  -0.775  53.868  1.00  0.00     0.079 C 
HETATM    6  C10 UNL     1      24.400   0.331  53.236  1.00  0.00    -0.018 A 
HETATM    7  C11 UNL     1      25.277   1.302  52.795  1.00  0.00     0.013 A 
HETATM    8  C12 UNL     1      24.910   2.456  52.163  1.00  0.00     0.030 A 
HETATM    9  C13 UNL     1      23.575   2.714  51.928  1.00  0.00     0.037 A 
HETATM   10  C21 UNL     1      22.671   1.763  52.356  1.00  0.00     0.060 A 
HETATM   11  C22 UNL     1      23.065   0.588  53.001  1.00  0.00     0.058 A 
HETATM   12  N5  UNL     1      21.793  -0.053  53.238  1.00  0.00    -0.190 N 
HETATM   13  H20 UNL     1      21.013   0.241  52.639  1.00  0.00     0.184 HD
ENDROOT
BRANCH   9  14
HETATM   14  N4  UNL     1      23.172   3.897  51.277  1.00  0.00    -0.323 N 
HETATM   15  C14 UNL     1      23.063   5.201  51.822  1.00  0.00     0.252 C 
HETATM   16  O1  UNL     1      23.358   5.337  53.030  1.00  0.00    -0.268 OA
HETATM   17  H12 UNL     1      22.925   3.772  50.261  1.00  0.00     0.169 HD
BRANCH  15  18
HETATM   18  C15 UNL     1      22.627   6.338  51.013  1.00  0.00     0.014 A 
HETATM   19  C16 UNL     1      23.431   7.288  50.553  1.00  0.00     0.013 A 
HETATM   20  C17 UNL     1      22.596   8.229  49.797  1.00  0.00     0.005 A 
HETATM   21  C18 UNL     1      21.340   7.825  49.824  1.00  0.00    -0.062 A 
HETATM   22  C20 UNL     1      21.212   6.579  50.599  1.00  0.00     0.079 A 
BRANCH  21  23
HETATM   23  C19 UNL     1      20.093   8.375  49.243  1.00  0.00     0.149 C 
HETATM   24 CL1  UNL     1      19.298   9.499  50.350  1.00  0.00    -0.126 Cl
ENDBRANCH  21  23
ENDBRANCH  15  18
ENDBRANCH   9  14
BRANCH   5  25
HETATM   25  C5  UNL     1      26.579  -0.606  53.893  1.00  0.00    -0.028 A 
HETATM   26  C6  UNL     1      27.503  -1.194  53.020  1.00  0.00     0.011 A 
HETATM   27  C7  UNL     1      28.854  -0.975  53.121  1.00  0.00     0.020 A 
HETATM   28  C8  UNL     1      29.368  -0.152  54.102  1.00  0.00     0.116 A 
HETATM   29  N3  UNL     1      28.514   0.445  54.977  1.00  0.00    -0.273 NA
HETATM   30  C9  UNL     1      27.195   0.208  54.850  1.00  0.00     0.124 A 
ENDBRANCH   5  25
BRANCH   1  31
HETATM   31  N1  UNL     1      20.195  -1.585  54.017  1.00  0.00    -0.233 N 
HETATM   32  H1  UNL     1      19.295  -1.751  54.502  1.00  0.00     0.174 HD
HETATM   33  H2  UNL     1      20.199  -1.902  53.006  1.00  0.00     0.174 HD
ENDBRANCH   1  31
TORSDOF 5
ENDMDL
MODEL 2
REMARK VINA RESULT:      -9.3      3.605      4.169
REMARK  5 active torsions:
REMARK  status: ('A' for Active; 'I' for Inactive)
REMARK    1  A    between atoms: N1_1  and  C1_2 
REMARK    2  A    between atoms: C4_6  and  C5_7 
REMARK    3  A    between atoms: C13_16  and  N4_17 
REMARK       I    between atoms: N4_17  and  C14_18 
REMARK    4  A    between atoms: C14_18  and  C15_20 
REMARK    5  A    between atoms: C18_23  and  C19_24 
ROOT
HETATM    1  C1  UNL     1      22.028   0.517  51.970  1.00  0.00     0.698 C 
HETATM    2  N2  UNL     1      22.090  -0.161  53.091  1.00  0.00    -0.078 NA
HETATM    3  C2  UNL     1      23.185  -0.294  54.024  1.00  0.00     0.133 C 
HETATM    4  C3  UNL     1      24.493  -0.341  53.853  1.00  0.00     0.007 C 
HETATM    5  C4  UNL     1      25.518  -0.299  52.787  1.00  0.00     0.079 C 
HETATM    6  C10 UNL     1      25.380   0.957  52.041  1.00  0.00    -0.018 A 
HETATM    7  C11 UNL     1      26.592   1.612  51.964  1.00  0.00     0.013 A 
HETATM    8  C12 UNL     1      26.796   2.807  51.333  1.00  0.00     0.030 A 
HETATM    9  C13 UNL     1      25.739   3.443  50.714  1.00  0.00     0.037 A 
HETATM   10  C21 UNL     1      24.512   2.815  50.772  1.00  0.00     0.060 A 
HETATM   11  C22 UNL     1      24.324   1.592  51.421  1.00  0.00     0.058 A 
HETATM   12  N5  UNL     1      22.914   1.364  51.206  1.00  0.00    -0.190 N 
HETATM   13  H20 UNL     1      22.485   1.861  50.417  1.00  0.00     0.184 HD
ENDROOT
BRANCH   9  14
HETATM   14  N4  UNL     1      25.924   4.676  50.056  1.00  0.00    -0.323 N 
HETATM   15  C14 UNL     1      26.853   4.992  49.034  1.00  0.00     0.252 C 
HETATM   16  O1  UNL     1      27.612   4.073  48.654  1.00  0.00    -0.268 OA
HETATM   17  H12 UNL     1      25.280   5.443  50.383  1.00  0.00     0.169 HD
BRANCH  15  18
HETATM   18  C15 UNL     1      26.924   6.328  48.446  1.00  0.00     0.014 A 
HETATM   19  C16 UNL     1      25.897   7.163  48.345  1.00  0.00     0.013 A 
HETATM   20  C17 UNL     1      26.398   8.383  47.699  1.00  0.00     0.005 A 
HETATM   21  C18 UNL     1      27.684   8.249  47.439  1.00  0.00    -0.062 A 
HETATM   22  C20 UNL     1      28.169   6.930  47.881  1.00  0.00     0.079 A 
BRANCH  21  23
HETATM   23  C19 UNL     1      28.682   9.145  46.808  1.00  0.00     0.149 C 
HETATM   24 CL1  UNL     1      29.105   8.607  45.180  1.00  0.00    -0.126 Cl
ENDBRANCH  21  23
ENDBRANCH  15  18
ENDBRANCH   9  14
BRANCH   5  25
HETATM   25  C5  UNL     1      26.869  -0.568  53.273  1.00  0.00    -0.028 A 
HETATM   26  C6  UNL     1      27.808  -1.430  52.694  1.00  0.00     0.011 A 
HETATM   27  C7  UNL     1      29.059  -1.618  53.224  1.00  0.00     0.020 A 
HETATM   28  C8  UNL     1      29.453  -0.955  54.369  1.00  0.00     0.116 A 
HETATM   29  N3  UNL     1      28.579  -0.105  54.972  1.00  0.00    -0.273 NA
HETATM   30  C9  UNL     1      27.359   0.056  54.426  1.00  0.00     0.124 A 
ENDBRANCH   5  25
BRANCH   1  31
HETATM   31  N1  UNL     1      20.781   0.396  51.339  1.00  0.00    -0.233 N 
HETATM   32  H1  UNL     1      19.957   0.951  51.045  1.00  0.00     0.174 HD
HETATM   33  H2  UNL     1      20.706  -0.634  51.104  1.00  0.00     0.174 HD
ENDBRANCH   1  31
TORSDOF 5
ENDMDL
MODEL 3
REMARK VINA RESULT:      -9.0      4.321      6.412
REMARK  5 active torsions:
REMARK  status: ('A' for Active; 'I' for Inactive)
REMARK    1  A    between atoms: N1_1  and  C1_2 
REMARK    2  A    between atoms: C4_6  and  C5_7 
REMARK    3  A    between atoms: C13_16  and  N4_17 
REMARK       I    between atoms: N4_17  and  C14_18 
REMARK    4  A    between atoms: C14_18  and  C15_20 
REMARK    5  A    between atoms: C18_23  and  C19_24 
ROOT
HETATM    1  C1  UNL     1      26.737   0.447  54.226  1.00  0.00     0.698 C 
HETATM    2  N2  UNL     1      25.963  -0.603  54.368  1.00  0.00    -0.078 NA
HETATM    3  C2  UNL     1      24.792  -0.989  53.615  1.00  0.00     0.133 C 
HETATM    4  C3  UNL     1      23.831  -0.282  53.050  1.00  0.00     0.007 C 
HETATM    5  C4  UNL     1      23.394   1.116  52.849  1.00  0.00     0.079 C 
HETATM    6  C10 UNL     1      24.458   1.855  52.161  1.00  0.00    -0.018 A 
HETATM    7  C11 UNL     1      23.959   2.507  51.052  1.00  0.00     0.013 A 
HETATM    8  C12 UNL     1      24.697   3.282  50.203  1.00  0.00     0.030 A 
HETATM    9  C13 UNL     1      26.048   3.453  50.431  1.00  0.00     0.037 A 
HETATM   10  C21 UNL     1      26.580   2.814  51.532  1.00  0.00     0.060 A 
HETATM   11  C22 UNL     1      25.808   2.026  52.390  1.00  0.00     0.058 A 
HETATM   12  N5  UNL     1      26.794   1.596  53.354  1.00  0.00    -0.190 N 
HETATM   13  H20 UNL     1      27.640   2.173  53.433  1.00  0.00     0.184 HD
ENDROOT
BRANCH   9  14
HETATM   14  N4  UNL     1      26.831   4.247  49.569  1.00  0.00    -0.323 N 
HETATM   15  C14 UNL     1      26.707   5.633  49.304  1.00  0.00     0.252 C 
HETATM   16  O1  UNL     1      25.794   6.246  49.901  1.00  0.00    -0.268 OA
HETATM   17  H12 UNL     1      27.597   3.722  49.071  1.00  0.00     0.169 HD
BRANCH  15  18
HETATM   18  C15 UNL     1      27.603   6.321  48.376  1.00  0.00     0.014 A 
HETATM   19  C16 UNL     1      27.246   7.333  47.595  1.00  0.00     0.013 A 
HETATM   20  C17 UNL     1      28.437   7.725  46.829  1.00  0.00     0.005 A 
HETATM   21  C18 UNL     1      29.453   6.954  47.168  1.00  0.00    -0.062 A 
HETATM   22  C20 UNL     1      29.044   5.974  48.188  1.00  0.00     0.079 A 
BRANCH  21  23
HETATM   23  C19 UNL     1      30.866   6.900  46.726  1.00  0.00     0.149 C 
HETATM   24 CL1  UNL     1      31.718   5.523  47.432  1.00  0.00    -0.126 Cl
ENDBRANCH  21  23
ENDBRANCH  15  18
ENDBRANCH   9  14
BRANCH   5  25
HETATM   25  C5  UNL     1      22.079   1.228  52.224  1.00  0.00    -0.028 A 
HETATM   26  C6  UNL     1      21.577   0.429  51.188  1.00  0.00     0.011 A 
HETATM   27  C7  UNL     1      20.323   0.608  50.663  1.00  0.00     0.020 A 
HETATM   28  C8  UNL     1      19.487   1.598  51.140  1.00  0.00     0.116 A 
HETATM   29  N3  UNL     1      19.926   2.402  52.146  1.00  0.00    -0.273 NA
HETATM   30  C9  UNL     1      21.163   2.199  52.638  1.00  0.00     0.124 A 
ENDBRANCH   5  25
BRANCH   1  31
HETATM   31  N1  UNL     1      27.784   0.470  55.159  1.00  0.00    -0.233 N 
HETATM   32  H1  UNL     1      28.263  -0.120  55.862  1.00  0.00     0.174 HD
HETATM   33  H2  UNL     1      28.188   1.446  55.075  1.00  0.00     0.174 HD
ENDBRANCH   1  31
TORSDOF 5
ENDMDL
MODEL 4
REMARK VINA RESULT:      -8.9      3.431      6.674
REMARK  5 active torsions:
REMARK  status: ('A' for Active; 'I' for Inactive)
REMARK    1  A    between atoms: N1_1  and  C1_2 
REMARK    2  A    between atoms: C4_6  and  C5_7 
REMARK    3  A    between atoms: C13_16  and  N4_17 
REMARK       I    between atoms: N4_17  and  C14_18 
REMARK    4  A    between atoms: C14_18  and  C15_20 
REMARK    5  A    between atoms: C18_23  and  C19_24 
ROOT
HETATM    1  C1  UNL     1      24.107   4.511  49.820  1.00  0.00     0.698 C 
HETATM    2  N2  UNL     1      25.357   4.515  49.420  1.00  0.00    -0.078 NA
HETATM    3  C2  UNL     1      26.398   3.541  49.652  1.00  0.00     0.133 C 
HETATM    4  C3  UNL     1      26.667   2.761  50.683  1.00  0.00     0.007 C 
HETATM    5  C4  UNL     1      26.173   2.430  52.037  1.00  0.00     0.079 C 
HETATM    6  C10 UNL     1      24.785   1.964  51.939  1.00  0.00    -0.018 A 
HETATM    7  C11 UNL     1      24.631   0.755  52.585  1.00  0.00     0.013 A 
HETATM    8  C12 UNL     1      23.458   0.061  52.675  1.00  0.00     0.030 A 
HETATM    9  C13 UNL     1      22.315   0.568  52.090  1.00  0.00     0.037 A 
HETATM   10  C21 UNL     1      22.434   1.776  51.435  1.00  0.00     0.060 A 
HETATM   11  C22 UNL     1      23.643   2.472  51.354  1.00  0.00     0.058 A 
HETATM   12  N5  UNL     1      23.257   3.638  50.593  1.00  0.00    -0.190 N 
HETATM   13  H20 UNL     1      22.259   3.878  50.600  1.00  0.00     0.184 HD
ENDROOT
BRANCH   9  14
HETATM   14  N4  UNL     1      21.093  -0.129  52.168  1.00  0.00    -0.323 N 
HETATM   15  C14 UNL     1      20.144  -0.115  53.220  1.00  0.00     0.252 C 
HETATM   16  O1  UNL     1      20.407   0.602  54.212  1.00  0.00    -0.268 OA
HETATM   17  H12 UNL     1      20.880  -0.730  51.329  1.00  0.00     0.169 HD
BRANCH  15  18
HETATM   18  C15 UNL     1      18.912  -0.899  53.155  1.00  0.00     0.014 A 
HETATM   19  C16 UNL     1      18.735  -2.074  53.745  1.00  0.00     0.013 A 
HETATM   20  C17 UNL     1      17.369  -2.512  53.429  1.00  0.00     0.005 A 
HETATM   21  C18 UNL     1      16.778  -1.604  52.676  1.00  0.00    -0.062 A 
HETATM   22  C20 UNL     1      17.687  -0.475  52.414  1.00  0.00     0.079 A 
BRANCH  21  23
HETATM   23  C19 UNL     1      15.427  -1.521  52.073  1.00  0.00     0.149 C 
HETATM   24 CL1  UNL     1      15.505  -1.203  50.338  1.00  0.00    -0.126 Cl
ENDBRANCH  21  23
ENDBRANCH  15  18
ENDBRANCH   9  14
BRANCH   5  25
HETATM   25  C5  UNL     1      27.060   1.534  52.773  1.00  0.00    -0.028 A 
HETATM   26  C6  UNL     1      27.275   0.174  52.515  1.00  0.00     0.011 A 
HETATM   27  C7  UNL     1      28.134  -0.591  53.263  1.00  0.00     0.020 A 
HETATM   28  C8  UNL     1      28.835  -0.045  54.319  1.00  0.00     0.116 A 
HETATM   29  N3  UNL     1      28.663   1.272  54.614  1.00  0.00    -0.273 NA
HETATM   30  C9  UNL     1      27.812   1.994  53.859  1.00  0.00     0.124 A 
ENDBRANCH   5  25
BRANCH   1  31
HETATM   31  N1  UNL     1      23.404   5.646  49.389  1.00  0.00    -0.233 N 
HETATM   32  H1  UNL     1      23.500   6.671  49.275  1.00  0.00     0.174 HD
HETATM   33  H2  UNL     1      22.460   5.271  49.088  1.00  0.00     0.174 HD
ENDBRANCH   1  31
TORSDOF 5
ENDMDL
MODEL 5
REMARK VINA RESULT:      -8.8      3.105      3.681
REMARK  5 active torsions:
REMARK  status: ('A' for Active; 'I' for Inactive)
REMARK    1  A    between atoms: N1_1  and  C1_2 
REMARK    2  A    between atoms: C4_6  and  C5_7 
REMARK    3  A    between atoms: C13_16  and  N4_17 
REMARK       I    between atoms: N4_17  and  C14_18 
REMARK    4  A    between atoms: C14_18  and  C15_20 
REMARK    5  A    between atoms: C18_23  and  C19_24 
ROOT
HETATM    1  C1  UNL     1      21.591   0.953  51.404  1.00  0.00     0.698 C 
HETATM    2  N2  UNL     1      21.559   0.507  52.637  1.00  0.00    -0.078 NA
HETATM    3  C2  UNL     1      22.585   0.539  53.653  1.00  0.00     0.133 C 
HETATM    4  C3  UNL     1      23.899   0.435  53.586  1.00  0.00     0.007 C 
HETATM    5  C4  UNL     1      24.993   0.249  52.607  1.00  0.00     0.079 C 
HETATM    6  C10 UNL     1      24.944   1.336  51.624  1.00  0.00    -0.018 A 
HETATM    7  C11 UNL     1      26.179   1.941  51.506  1.00  0.00     0.013 A 
HETATM    8  C12 UNL     1      26.461   2.984  50.671  1.00  0.00     0.030 A 
HETATM    9  C13 UNL     1      25.468   3.507  49.867  1.00  0.00     0.037 A 
HETATM   10  C21 UNL     1      24.221   2.925  49.960  1.00  0.00     0.060 A 
HETATM   11  C22 UNL     1      23.951   1.857  50.820  1.00  0.00     0.058 A 
HETATM   12  N5  UNL     1      22.552   1.617  50.555  1.00  0.00    -0.190 N 
HETATM   13  H20 UNL     1      22.191   1.958  49.656  1.00  0.00     0.184 HD
ENDROOT
BRANCH   9  14
HETATM   14  N4  UNL     1      25.735   4.584  48.998  1.00  0.00    -0.323 N 
HETATM   15  C14 UNL     1      25.688   5.970  49.284  1.00  0.00     0.252 C 
HETATM   16  O1  UNL     1      25.374   6.299  50.449  1.00  0.00    -0.268 OA
HETATM   17  H12 UNL     1      25.998   4.297  48.019  1.00  0.00     0.169 HD
BRANCH  15  18
HETATM   18  C15 UNL     1      25.994   6.976  48.267  1.00  0.00     0.014 A 
HETATM   19  C16 UNL     1      27.186   7.532  48.092  1.00  0.00     0.013 A 
HETATM   20  C17 UNL     1      27.058   8.479  46.977  1.00  0.00     0.005 A 
HETATM   21  C18 UNL     1      25.819   8.463  46.524  1.00  0.00    -0.062 A 
HETATM   22  C20 UNL     1      24.999   7.509  47.289  1.00  0.00     0.079 A 
BRANCH  21  23
HETATM   23  C19 UNL     1      25.136   9.201  45.435  1.00  0.00     0.149 C 
HETATM   24 CL1  UNL     1      25.549   8.547  43.847  1.00  0.00    -0.126 Cl
ENDBRANCH  21  23
ENDBRANCH  15  18
ENDBRANCH   9  14
BRANCH   5  25
HETATM   25  C5  UNL     1      26.299   0.055  53.230  1.00  0.00    -0.028 A 
HETATM   26  C6  UNL     1      27.344  -0.744  52.747  1.00  0.00     0.011 A 
HETATM   27  C7  UNL     1      28.543  -0.863  53.404  1.00  0.00     0.020 A 
HETATM   28  C8  UNL     1      28.775  -0.191  54.587  1.00  0.00     0.116 A 
HETATM   29  N3  UNL     1      27.794   0.599  55.099  1.00  0.00    -0.273 NA
HETATM   30  C9  UNL     1      26.629   0.694  54.430  1.00  0.00     0.124 A 
ENDBRANCH   5  25
BRANCH   1  31
HETATM   31  N1  UNL     1      20.385   0.734  50.723  1.00  0.00    -0.233 N 
HETATM   32  H1  UNL     1      19.949   0.815  49.787  1.00  0.00     0.174 HD
HETATM   33  H2  UNL     1      19.730   0.356  51.465  1.00  0.00     0.174 HD
ENDBRANCH   1  31
TORSDOF 5
ENDMDL
MODEL 6
REMARK VINA RESULT:      -8.7      4.318      7.434
REMARK  5 active torsions:
REMARK  status: ('A' for Active; 'I' for Inactive)
REMARK    1  A    between atoms: N1_1  and  C1_2 
REMARK    2  A    between atoms: C4_6  and  C5_7 
REMARK    3  A    between atoms: C13_16  and  N4_17 
REMARK       I    between atoms: N4_17  and  C14_18 
REMARK    4  A    between atoms: C14_18  and  C15_20 
REMARK    5  A    between atoms: C18_23  and  C19_24 
ROOT
HETATM    1  C1  UNL     1      22.669   5.069  51.561  1.00  0.00     0.698 C 
HETATM    2  N2  UNL     1      23.879   5.204  51.073  1.00  0.00    -0.078 NA
HETATM    3  C2  UNL     1      24.888   4.199  50.828  1.00  0.00     0.133 C 
HETATM    4  C3  UNL     1      25.205   3.090  51.470  1.00  0.00     0.007 C 
HETATM    5  C4  UNL     1      24.813   2.287  52.649  1.00  0.00     0.079 C 
HETATM    6  C10 UNL     1      23.401   1.909  52.521  1.00  0.00    -0.018 A 
HETATM    7  C11 UNL     1      23.244   0.549  52.690  1.00  0.00     0.013 A 
HETATM    8  C12 UNL     1      22.051  -0.113  52.631  1.00  0.00     0.030 A 
HETATM    9  C13 UNL     1      20.888   0.590  52.386  1.00  0.00     0.037 A 
HETATM   10  C21 UNL     1      21.009   1.953  52.213  1.00  0.00     0.060 A 
HETATM   11  C22 UNL     1      22.239   2.613  52.277  1.00  0.00     0.058 A 
HETATM   12  N5  UNL     1      21.846   3.982  52.038  1.00  0.00    -0.190 N 
HETATM   13  H20 UNL     1      20.865   4.217  52.229  1.00  0.00     0.184 HD
ENDROOT
BRANCH   9  14
HETATM   14  N4  UNL     1      19.645  -0.071  52.321  1.00  0.00    -0.323 N 
HETATM   15  C14 UNL     1      19.145  -1.080  53.180  1.00  0.00     0.252 C 
HETATM   16  O1  UNL     1      19.886  -1.443  54.121  1.00  0.00    -0.268 OA
HETATM   17  H12 UNL     1      19.028   0.242  51.527  1.00  0.00     0.169 HD
BRANCH  15  18
HETATM   18  C15 UNL     1      17.824  -1.674  52.982  1.00  0.00     0.014 A 
HETATM   19  C16 UNL     1      16.800  -1.057  52.406  1.00  0.00     0.013 A 
HETATM   20  C17 UNL     1      15.674  -2.000  52.410  1.00  0.00     0.005 A 
HETATM   21  C18 UNL     1      16.048  -3.132  52.975  1.00  0.00    -0.062 A 
HETATM   22  C20 UNL     1      17.454  -3.058  53.405  1.00  0.00     0.079 A 
BRANCH  21  23
HETATM   23  C19 UNL     1      15.338  -4.405  53.243  1.00  0.00     0.149 C 
HETATM   24 CL1  UNL     1      16.053  -5.275  54.604  1.00  0.00    -0.126 Cl
ENDBRANCH  21  23
ENDBRANCH  15  18
ENDBRANCH   9  14
BRANCH   5  25
HETATM   25  C5  UNL     1      25.715   1.171  52.915  1.00  0.00    -0.028 A 
HETATM   26  C6  UNL     1      26.287   0.314  51.965  1.00  0.00     0.011 A 
HETATM   27  C7  UNL     1      27.129  -0.711  52.311  1.00  0.00     0.020 A 
HETATM   28  C8  UNL     1      27.455  -0.948  53.631  1.00  0.00     0.116 A 
HETATM   29  N3  UNL     1      26.928  -0.146  54.595  1.00  0.00    -0.273 NA
HETATM   30  C9  UNL     1      26.104   0.852  54.220  1.00  0.00     0.124 A 
ENDBRANCH   5  25
BRANCH   1  31
HETATM   31  N1  UNL     1      21.987   6.292  51.648  1.00  0.00    -0.233 N 
HETATM   32  H1  UNL     1      21.857   7.190  51.150  1.00  0.00     0.174 HD
HETATM   33  H2  UNL     1      21.430   6.218  52.546  1.00  0.00     0.174 HD
ENDBRANCH   1  31
TORSDOF 5
ENDMDL
MODEL 7
REMARK VINA RESULT:      -8.5      3.846      6.571
REMARK  5 active torsions:
REMARK  status: ('A' for Active; 'I' for Inactive)
REMARK    1  A    between atoms: N1_1  and  C1_2 
REMARK    2  A    between atoms: C4_6  and  C5_7 
REMARK    3  A    between atoms: C13_16  and  N4_17 
REMARK       I    between atoms: N4_17  and  C14_18 
REMARK    4  A    between atoms: C14_18  and  C15_20 
REMARK    5  A    between atoms: C18_23  and  C19_24 
ROOT
HETATM    1  C1  UNL     1      24.272   4.801  50.003  1.00  0.00     0.698 C 
HETATM    2  N2  UNL     1      25.486   4.650  49.528  1.00  0.00    -0.078 NA
HETATM    3  C2  UNL     1      26.406   3.548  49.692  1.00  0.00     0.133 C 
HETATM    4  C3  UNL     1      26.633   2.728  50.702  1.00  0.00     0.007 C 
HETATM    5  C4  UNL     1      26.183   2.447  52.082  1.00  0.00     0.079 C 
HETATM    6  C10 UNL     1      24.744   2.163  52.067  1.00  0.00    -0.018 A 
HETATM    7  C11 UNL     1      24.475   0.976  52.716  1.00  0.00     0.013 A 
HETATM    8  C12 UNL     1      23.230   0.436  52.875  1.00  0.00     0.030 A 
HETATM    9  C13 UNL     1      22.129   1.092  52.362  1.00  0.00     0.037 A 
HETATM   10  C21 UNL     1      22.362   2.283  51.706  1.00  0.00     0.060 A 
HETATM   11  C22 UNL     1      23.643   2.820  51.554  1.00  0.00     0.058 A 
HETATM   12  N5  UNL     1      23.365   4.034  50.823  1.00  0.00    -0.190 N 
HETATM   13  H20 UNL     1      22.408   4.400  50.891  1.00  0.00     0.184 HD
ENDROOT
BRANCH   9  14
HETATM   14  N4  UNL     1      20.834   0.556  52.512  1.00  0.00    -0.323 N 
HETATM   15  C14 UNL     1      19.873   0.295  51.504  1.00  0.00     0.252 C 
HETATM   16  O1  UNL     1      20.198   0.568  50.327  1.00  0.00    -0.268 OA
HETATM   17  H12 UNL     1      20.571   0.329  53.506  1.00  0.00     0.169 HD
BRANCH  15  18
HETATM   18  C15 UNL     1      18.562  -0.269  51.819  1.00  0.00     0.014 A 
HETATM   19  C16 UNL     1      18.271  -0.919  52.939  1.00  0.00     0.013 A 
HETATM   20  C17 UNL     1      16.859  -1.313  52.852  1.00  0.00     0.005 A 
HETATM   21  C18 UNL     1      16.354  -0.895  51.706  1.00  0.00    -0.062 A 
HETATM   22  C20 UNL     1      17.374  -0.185  50.917  1.00  0.00     0.079 A 
BRANCH  21  23
HETATM   23  C19 UNL     1      15.007  -1.009  51.100  1.00  0.00     0.149 C 
HETATM   24 CL1  UNL     1      13.900  -1.917  52.134  1.00  0.00    -0.126 Cl
ENDBRANCH  21  23
ENDBRANCH  15  18
ENDBRANCH   9  14
BRANCH   5  25
HETATM   25  C5  UNL     1      26.991   1.436  52.759  1.00  0.00    -0.028 A 
HETATM   26  C6  UNL     1      27.147   0.098  52.376  1.00  0.00     0.011 A 
HETATM   27  C7  UNL     1      27.933  -0.781  53.077  1.00  0.00     0.020 A 
HETATM   28  C8  UNL     1      28.614  -0.379  54.208  1.00  0.00     0.116 A 
HETATM   29  N3  UNL     1      28.497   0.910  54.624  1.00  0.00    -0.273 NA
HETATM   30  C9  UNL     1      27.718   1.747  53.913  1.00  0.00     0.124 A 
ENDBRANCH   5  25
BRANCH   1  31
HETATM   31  N1  UNL     1      23.696   6.021  49.620  1.00  0.00    -0.233 N 
HETATM   32  H1  UNL     1      23.034   6.748  49.945  1.00  0.00     0.174 HD
HETATM   33  H2  UNL     1      24.114   6.221  48.668  1.00  0.00     0.174 HD
ENDBRANCH   1  31
TORSDOF 5
ENDMDL
MODEL 8
REMARK VINA RESULT:      -8.3      3.030      5.382
REMARK  5 active torsions:
REMARK  status: ('A' for Active; 'I' for Inactive)
REMARK    1  A    between atoms: N1_1  and  C1_2 
REMARK    2  A    between atoms: C4_6  and  C5_7 
REMARK    3  A    between atoms: C13_16  and  N4_17 
REMARK       I    between atoms: N4_17  and  C14_18 
REMARK    4  A    between atoms: C14_18  and  C15_20 
REMARK    5  A    between atoms: C18_23  and  C19_24 
ROOT
HETATM    1  C1  UNL     1      28.297   0.602  53.130  1.00  0.00     0.698 C 
HETATM    2  N2  UNL     1      27.874  -0.603  53.430  1.00  0.00    -0.078 NA
HETATM    3  C2  UNL     1      26.599  -1.224  53.156  1.00  0.00     0.133 C 
HETATM    4  C3  UNL     1      25.372  -0.739  53.108  1.00  0.00     0.007 C 
HETATM    5  C4  UNL     1      24.624   0.526  53.274  1.00  0.00     0.079 C 
HETATM    6  C10 UNL     1      25.143   1.516  52.323  1.00  0.00    -0.018 A 
HETATM    7  C11 UNL     1      24.113   2.073  51.592  1.00  0.00     0.013 A 
HETATM    8  C12 UNL     1      24.268   3.027  50.627  1.00  0.00     0.030 A 
HETATM    9  C13 UNL     1      25.530   3.498  50.325  1.00  0.00     0.037 A 
HETATM   10  C21 UNL     1      26.583   2.962  51.038  1.00  0.00     0.060 A 
HETATM   11  C22 UNL     1      26.404   1.987  52.023  1.00  0.00     0.058 A 
HETATM   12  N5  UNL     1      27.763   1.764  52.459  1.00  0.00    -0.190 N 
HETATM   13  H20 UNL     1      28.434   2.518  52.272  1.00  0.00     0.184 HD
ENDROOT
BRANCH   9  14
HETATM   14  N4  UNL     1      25.716   4.482  49.333  1.00  0.00    -0.323 N 
HETATM   15  C14 UNL     1      25.604   5.888  49.465  1.00  0.00     0.252 C 
HETATM   16  O1  UNL     1      25.304   6.330  50.596  1.00  0.00    -0.268 OA
HETATM   17  H12 UNL     1      25.968   4.100  48.385  1.00  0.00     0.169 HD
BRANCH  15  18
HETATM   18  C15 UNL     1      25.828   6.787  48.334  1.00  0.00     0.014 A 
HETATM   19  C16 UNL     1      27.009   7.286  47.991  1.00  0.00     0.013 A 
HETATM   20  C17 UNL     1      26.792   8.132  46.811  1.00  0.00     0.005 A 
HETATM   21  C18 UNL     1      25.513   8.115  46.485  1.00  0.00    -0.062 A 
HETATM   22  C20 UNL     1      24.752   7.260  47.412  1.00  0.00     0.079 A 
BRANCH  21  23
HETATM   23  C19 UNL     1      24.741   8.771  45.404  1.00  0.00     0.149 C 
HETATM   24 CL1  UNL     1      25.106   8.072  43.824  1.00  0.00    -0.126 Cl
ENDBRANCH  21  23
ENDBRANCH  15  18
ENDBRANCH   9  14
BRANCH   5  25
HETATM   25  C5  UNL     1      23.175   0.352  53.235  1.00  0.00    -0.028 A 
HETATM   26  C6  UNL     1      22.212   1.368  53.203  1.00  0.00     0.011 A 
HETATM   27  C7  UNL     1      20.866   1.106  53.165  1.00  0.00     0.020 A 
HETATM   28  C8  UNL     1      20.395  -0.192  53.156  1.00  0.00     0.116 A 
HETATM   29  N3  UNL     1      21.288  -1.217  53.186  1.00  0.00    -0.273 NA
HETATM   30  C9  UNL     1      22.602  -0.924  53.223  1.00  0.00     0.124 A 
ENDBRANCH   5  25
BRANCH   1  31
HETATM   31  N1  UNL     1      29.608   0.835  53.572  1.00  0.00    -0.233 N 
HETATM   32  H1  UNL     1      30.597   0.723  53.287  1.00  0.00     0.174 HD
HETATM   33  H2  UNL     1      29.488   1.277  54.527  1.00  0.00     0.174 HD
ENDBRANCH   1  31
TORSDOF 5
ENDMDL
MODEL 9
REMARK VINA RESULT:      -8.3      5.726      8.994
REMARK  5 active torsions:
REMARK  status: ('A' for Active; 'I' for Inactive)
REMARK    1  A    between atoms: N1_1  and  C1_2 
REMARK    2  A    between atoms: C4_6  and  C5_7 
REMARK    3  A    between atoms: C13_16  and  N4_17 
REMARK       I    between atoms: N4_17  and  C14_18 
REMARK    4  A    between atoms: C14_18  and  C15_20 
REMARK    5  A    between atoms: C18_23  and  C19_24 
ROOT
HETATM    1  C1  UNL     1      25.765   8.890  47.252  1.00  0.00     0.698 C 
HETATM    2  N2  UNL     1      26.714   9.251  46.420  1.00  0.00    -0.078 NA
HETATM    3  C2  UNL     1      27.904   8.538  46.019  1.00  0.00     0.133 C 
HETATM    4  C3  UNL     1      28.706   7.718  46.672  1.00  0.00     0.007 C 
HETATM    5  C4  UNL     1      28.887   7.100  48.004  1.00  0.00     0.079 C 
HETATM    6  C10 UNL     1      27.686   6.328  48.340  1.00  0.00    -0.018 A 
HETATM    7  C11 UNL     1      28.022   5.042  48.713  1.00  0.00     0.013 A 
HETATM    8  C12 UNL     1      27.129   4.078  49.086  1.00  0.00     0.030 A 
HETATM    9  C13 UNL     1      25.779   4.365  49.104  1.00  0.00     0.037 A 
HETATM   10  C21 UNL     1      25.408   5.642  48.737  1.00  0.00     0.060 A 
HETATM   11  C22 UNL     1      26.336   6.615  48.359  1.00  0.00     0.058 A 
HETATM   12  N5  UNL     1      25.477   7.742  48.078  1.00  0.00    -0.190 N 
HETATM   13  H20 UNL     1      24.548   7.729  48.515  1.00  0.00     0.184 HD
ENDROOT
BRANCH   9  14
HETATM   14  N4  UNL     1      24.838   3.387  49.485  1.00  0.00    -0.323 N 
HETATM   15  C14 UNL     1      24.132   3.283  50.709  1.00  0.00     0.252 C 
HETATM   16  O1  UNL     1      24.358   4.161  51.571  1.00  0.00    -0.268 OA
HETATM   17  H12 UNL     1      24.655   2.653  48.753  1.00  0.00     0.169 HD
BRANCH  15  18
HETATM   18  C15 UNL     1      23.180   2.202  50.958  1.00  0.00     0.014 A 
HETATM   19  C16 UNL     1      22.312   1.743  50.066  1.00  0.00     0.013 A 
HETATM   20  C17 UNL     1      21.553   0.668  50.719  1.00  0.00     0.005 A 
HETATM   21  C18 UNL     1      21.981   0.516  51.958  1.00  0.00    -0.062 A 
HETATM   22  C20 UNL     1      23.062   1.471  52.255  1.00  0.00     0.079 A 
BRANCH  21  23
HETATM   23  C19 UNL     1      21.585  -0.400  53.053  1.00  0.00     0.149 C 
HETATM   24 CL1  UNL     1      22.979  -0.911  54.011  1.00  0.00    -0.126 Cl
ENDBRANCH  21  23
ENDBRANCH  15  18
ENDBRANCH   9  14
BRANCH   5  25
HETATM   25  C5  UNL     1      30.138   6.358  48.132  1.00  0.00    -0.028 A 
HETATM   26  C6  UNL     1      30.615   5.370  47.261  1.00  0.00     0.011 A 
HETATM   27  C7  UNL     1      31.809   4.725  47.463  1.00  0.00     0.020 A 
HETATM   28  C8  UNL     1      32.605   5.027  48.550  1.00  0.00     0.116 A 
HETATM   29  N3  UNL     1      32.188   5.980  49.427  1.00  0.00    -0.273 NA
HETATM   30  C9  UNL     1      31.011   6.593  49.199  1.00  0.00     0.124 A 
ENDBRANCH   5  25
BRANCH   1  31
HETATM   31  N1  UNL     1      24.767   9.867  47.381  1.00  0.00    -0.233 N 
HETATM   32  H1  UNL     1      24.242  10.574  46.837  1.00  0.00     0.174 HD
HETATM   33  H2  UNL     1      24.489   9.824  48.402  1.00  0.00     0.174 HD
ENDBRANCH   1  31
TORSDOF 5
ENDMDL
