MODEL 1
REMARK VINA RESULT:      -9.6      0.000      0.000
REMARK  0 active torsions:
REMARK  status: ('A' for Active; 'I' for Inactive)
ROOT
HETATM    1  F1  UNL     1      19.929  -1.063  53.589  1.00  0.00    -0.206 F 
HETATM    2  C1  UNL     1      21.154  -0.525  53.442  1.00  0.00     0.117 A 
HETATM    3  C2  UNL     1      22.301  -1.157  53.859  1.00  0.00     0.043 A 
HETATM    4  C3  UNL     1      23.527  -0.553  53.681  1.00  0.00     0.013 A 
HETATM    5  C4  UNL     1      23.646   0.708  53.075  1.00  0.00    -0.014 A 
HETATM    6  C5  UNL     1      22.391   1.267  52.686  1.00  0.00    -0.016 A 
HETATM    7  C6  UNL     1      21.133   0.682  52.851  1.00  0.00     0.054 A 
HETATM    8  C7  UNL     1      22.124   2.614  52.037  1.00  0.00    -0.015 C 
HETATM    9  C8  UNL     1      22.666   3.830  52.316  1.00  0.00     0.065 C 
HETATM   10  S1  UNL     1      24.022   3.409  51.100  1.00  0.00    -0.049 SA
HETATM   11  N1  UNL     1      23.522   1.886  50.583  1.00  0.00    -0.030 NA
HETATM   12  O1  UNL     1      22.257   2.053  49.919  1.00  0.00    -0.271 OA
HETATM   13  C9  UNL     1      21.145   2.155  50.974  1.00  0.00     0.236 C 
HETATM   14  C10 UNL     1      25.716   2.840  51.669  1.00  0.00     0.361 C 
HETATM   15  N2  UNL     1      25.793   2.031  52.819  1.00  0.00     0.116 NA
HETATM   16  C11 UNL     1      27.165   1.491  52.719  1.00  0.00     0.259 A 
HETATM   17  C12 UNL     1      28.212   2.342  53.307  1.00  0.00     0.091 A 
HETATM   18  C13 UNL     1      29.059   1.507  54.208  1.00  0.00     0.014 A 
HETATM   19 CL1  UNL     1      30.386   2.418  54.937  1.00  0.00    -0.089 Cl
HETATM   20  C14 UNL     1      28.986   0.239  54.543  1.00  0.00     0.020 A 
HETATM   21  C15 UNL     1      27.927  -0.568  53.980  1.00  0.00     0.006 A 
HETATM   22  C16 UNL     1      27.135   0.081  53.158  1.00  0.00    -0.044 A 
HETATM   23  C17 UNL     1      25.888  -0.156  52.339  1.00  0.00     0.077 C 
HETATM   24  C18 UNL     1      25.051   0.918  53.085  1.00  0.00     0.262 C 
ENDROOT
TORSDOF 0
ENDMDL
MODEL 2
REMARK VINA RESULT:      -9.6      3.300      5.692
REMARK  0 active torsions:
REMARK  status: ('A' for Active; 'I' for Inactive)
ROOT
HETATM    1  F1  UNL     1      22.873  -1.928  55.704  1.00  0.00    -0.206 F 
HETATM    2  C1  UNL     1      23.048  -1.011  54.734  1.00  0.00     0.117 A 
HETATM    3  C2  UNL     1      22.004  -0.332  54.152  1.00  0.00     0.043 A 
HETATM    4  C3  UNL     1      22.248   0.596  53.163  1.00  0.00     0.013 A 
HETATM    5  C4  UNL     1      23.551   0.878  52.722  1.00  0.00    -0.014 A 
HETATM    6  C5  UNL     1      24.551   0.112  53.396  1.00  0.00    -0.016 A 
HETATM    7  C6  UNL     1      24.338  -0.834  54.401  1.00  0.00     0.054 A 
HETATM    8  C7  UNL     1      26.053   0.122  53.167  1.00  0.00    -0.015 C 
HETATM    9  C8  UNL     1      26.749   0.147  51.999  1.00  0.00     0.065 C 
HETATM   10  S1  UNL     1      26.656   2.012  52.083  1.00  0.00    -0.049 SA
HETATM   11  N1  UNL     1      25.821   2.223  53.530  1.00  0.00    -0.030 NA
HETATM   12  O1  UNL     1      26.646   1.692  54.581  1.00  0.00    -0.271 OA
HETATM   13  C9  UNL     1      26.495   0.164  54.617  1.00  0.00     0.236 C 
HETATM   14  C10 UNL     1      25.434   2.987  51.046  1.00  0.00     0.361 C 
HETATM   15  N2  UNL     1      24.166   2.423  50.809  1.00  0.00     0.116 NA
HETATM   16  C11 UNL     1      23.400   3.591  50.327  1.00  0.00     0.259 A 
HETATM   17  C12 UNL     1      23.501   3.847  48.881  1.00  0.00     0.091 A 
HETATM   18  C13 UNL     1      22.127   4.021  48.327  1.00  0.00     0.014 A 
HETATM   19 CL1  UNL     1      22.128   4.382  46.598  1.00  0.00    -0.089 Cl
HETATM   20  C14 UNL     1      20.944   3.951  48.894  1.00  0.00     0.020 A 
HETATM   21  C15 UNL     1      20.869   3.663  50.309  1.00  0.00     0.006 A 
HETATM   22  C16 UNL     1      22.036   3.508  50.890  1.00  0.00    -0.044 A 
HETATM   23  C17 UNL     1      22.607   3.157  52.243  1.00  0.00     0.077 C 
HETATM   24  C18 UNL     1      23.329   1.878  51.739  1.00  0.00     0.262 C 
ENDROOT
TORSDOF 0
ENDMDL
MODEL 3
REMARK VINA RESULT:      -9.0      3.594      5.193
REMARK  0 active torsions:
REMARK  status: ('A' for Active; 'I' for Inactive)
ROOT
HETATM    1  F1  UNL     1      26.382  -0.402  54.208  1.00  0.00    -0.206 F 
HETATM    2  C1  UNL     1      26.192   0.610  53.341  1.00  0.00     0.117 A 
HETATM    3  C2  UNL     1      27.207   1.141  52.581  1.00  0.00     0.043 A 
HETATM    4  C3  UNL     1      26.950   2.178  51.710  1.00  0.00     0.013 A 
HETATM    5  C4  UNL     1      25.662   2.719  51.569  1.00  0.00    -0.014 A 
HETATM    6  C5  UNL     1      24.691   2.090  52.408  1.00  0.00    -0.016 A 
HETATM    7  C6  UNL     1      24.920   1.039  53.300  1.00  0.00     0.054 A 
HETATM    8  C7  UNL     1      23.217   2.424  52.551  1.00  0.00    -0.015 C 
HETATM    9  C8  UNL     1      22.609   3.638  52.629  1.00  0.00     0.065 C 
HETATM   10  S1  UNL     1      22.518   3.615  50.761  1.00  0.00    -0.049 SA
HETATM   11  N1  UNL     1      23.221   2.121  50.428  1.00  0.00    -0.030 NA
HETATM   12  O1  UNL     1      22.375   1.112  51.006  1.00  0.00    -0.271 OA
HETATM   13  C9  UNL     1      22.668   1.010  52.510  1.00  0.00     0.236 C 
HETATM   14  C10 UNL     1      23.714   4.598  49.702  1.00  0.00     0.361 C 
HETATM   15  N2  UNL     1      25.045   4.724  50.148  1.00  0.00     0.116 NA
HETATM   16  C11 UNL     1      25.730   5.193  48.925  1.00  0.00     0.259 A 
HETATM   17  C12 UNL     1      25.711   6.651  48.723  1.00  0.00     0.091 A 
HETATM   18  C13 UNL     1      27.099   7.114  48.432  1.00  0.00     0.014 A 
HETATM   19 CL1  UNL     1      27.191   8.851  48.123  1.00  0.00    -0.089 Cl
HETATM   20  C14 UNL     1      28.239   6.462  48.370  1.00  0.00     0.020 A 
HETATM   21  C15 UNL     1      28.237   5.037  48.608  1.00  0.00     0.006 A 
HETATM   22  C16 UNL     1      27.050   4.534  48.858  1.00  0.00    -0.044 A 
HETATM   23  C17 UNL     1      26.417   3.212  49.224  1.00  0.00     0.077 C 
HETATM   24  C18 UNL     1      25.859   3.720  50.581  1.00  0.00     0.262 C 
ENDROOT
TORSDOF 0
ENDMDL
MODEL 4
REMARK VINA RESULT:      -9.0      4.531      6.469
REMARK  0 active torsions:
REMARK  status: ('A' for Active; 'I' for Inactive)
ROOT
HETATM    1  F1  UNL     1      27.912   4.800  48.303  1.00  0.00    -0.206 F 
HETATM    2  C1  UNL     1      26.798   4.471  48.982  1.00  0.00     0.117 A 
HETATM    3  C2  UNL     1      26.676   3.300  49.692  1.00  0.00     0.043 A 
HETATM    4  C3  UNL     1      25.508   3.019  50.368  1.00  0.00     0.013 A 
HETATM    5  C4  UNL     1      24.419   3.904  50.355  1.00  0.00    -0.014 A 
HETATM    6  C5  UNL     1      24.659   5.083  49.585  1.00  0.00    -0.016 A 
HETATM    7  C6  UNL     1      25.830   5.398  48.890  1.00  0.00     0.054 A 
HETATM    8  C7  UNL     1      23.711   6.239  49.318  1.00  0.00    -0.015 C 
HETATM    9  C8  UNL     1      22.385   6.218  49.013  1.00  0.00     0.065 C 
HETATM   10  S1  UNL     1      22.051   6.246  50.852  1.00  0.00    -0.049 SA
HETATM   11  N1  UNL     1      23.620   6.304  51.459  1.00  0.00    -0.030 NA
HETATM   12  O1  UNL     1      24.206   7.540  51.015  1.00  0.00    -0.271 OA
HETATM   13  C9  UNL     1      24.682   7.379  49.564  1.00  0.00     0.236 C 
HETATM   14  C10 UNL     1      21.569   4.695  51.792  1.00  0.00     0.361 C 
HETATM   15  N2  UNL     1      22.149   3.473  51.397  1.00  0.00     0.116 NA
HETATM   16  C11 UNL     1      21.852   2.608  52.558  1.00  0.00     0.259 A 
HETATM   17  C12 UNL     1      20.539   1.943  52.517  1.00  0.00     0.091 A 
HETATM   18  C13 UNL     1      20.729   0.490  52.794  1.00  0.00     0.014 A 
HETATM   19 CL1  UNL     1      19.207  -0.407  52.818  1.00  0.00    -0.089 Cl
HETATM   20  C14 UNL     1      21.812  -0.220  53.017  1.00  0.00     0.020 A 
HETATM   21  C15 UNL     1      23.093   0.450  53.017  1.00  0.00     0.006 A 
HETATM   22  C16 UNL     1      23.024   1.743  52.795  1.00  0.00    -0.044 A 
HETATM   23  C17 UNL     1      23.945   2.927  52.621  1.00  0.00     0.077 C 
HETATM   24  C18 UNL     1      23.472   3.232  51.174  1.00  0.00     0.262 C 
ENDROOT
TORSDOF 0
ENDMDL
MODEL 5
REMARK VINA RESULT:      -8.6      4.039      6.657
REMARK  0 active torsions:
REMARK  status: ('A' for Active; 'I' for Inactive)
ROOT
HETATM    1  F1  UNL     1      26.966  -0.028  53.001  1.00  0.00    -0.206 F 
HETATM    2  C1  UNL     1      25.646   0.143  52.804  1.00  0.00     0.117 A 
HETATM    3  C2  UNL     1      24.694  -0.651  53.397  1.00  0.00     0.043 A 
HETATM    4  C3  UNL     1      23.356  -0.426  53.155  1.00  0.00     0.013 A 
HETATM    5  C4  UNL     1      22.924   0.608  52.309  1.00  0.00    -0.014 A 
HETATM    6  C5  UNL     1      23.999   1.364  51.749  1.00  0.00    -0.016 A 
HETATM    7  C6  UNL     1      25.363   1.162  51.974  1.00  0.00     0.054 A 
HETATM    8  C7  UNL     1      23.921   2.526  50.774  1.00  0.00    -0.015 C 
HETATM    9  C8  UNL     1      23.139   2.679  49.672  1.00  0.00     0.065 C 
HETATM   10  S1  UNL     1      21.844   3.418  50.801  1.00  0.00    -0.049 SA
HETATM   11  N1  UNL     1      22.641   3.352  52.283  1.00  0.00    -0.030 NA
HETATM   12  O1  UNL     1      23.797   4.202  52.186  1.00  0.00    -0.271 OA
HETATM   13  C9  UNL     1      24.917   3.448  51.453  1.00  0.00     0.236 C 
HETATM   14  C10 UNL     1      20.354   2.432  51.373  1.00  0.00     0.361 C 
HETATM   15  N2  UNL     1      20.526   1.057  51.624  1.00  0.00     0.116 NA
HETATM   16  C11 UNL     1      19.305   0.735  52.393  1.00  0.00     0.259 A 
HETATM   17  C12 UNL     1      18.130   0.390  51.576  1.00  0.00     0.091 A 
HETATM   18  C13 UNL     1      17.542  -0.880  52.094  1.00  0.00     0.014 A 
HETATM   19 CL1  UNL     1      16.089  -1.370  51.216  1.00  0.00    -0.089 Cl
HETATM   20  C14 UNL     1      17.915  -1.679  53.068  1.00  0.00     0.020 A 
HETATM   21  C15 UNL     1      19.094  -1.337  53.832  1.00  0.00     0.006 A 
HETATM   22  C16 UNL     1      19.674  -0.220  53.458  1.00  0.00    -0.044 A 
HETATM   23  C17 UNL     1      20.893   0.607  53.788  1.00  0.00     0.077 C 
HETATM   24  C18 UNL     1      21.511   0.479  52.369  1.00  0.00     0.262 C 
ENDROOT
TORSDOF 0
ENDMDL
MODEL 6
REMARK VINA RESULT:      -8.4      2.725      3.981
REMARK  0 active torsions:
REMARK  status: ('A' for Active; 'I' for Inactive)
ROOT
HETATM    1  F1  UNL     1      22.281   6.118  49.166  1.00  0.00    -0.206 F 
HETATM    2  C1  UNL     1      22.824   5.093  49.849  1.00  0.00     0.117 A 
HETATM    3  C2  UNL     1      24.091   5.139  50.380  1.00  0.00     0.043 A 
HETATM    4  C3  UNL     1      24.593   4.056  51.069  1.00  0.00     0.013 A 
HETATM    5  C4  UNL     1      23.839   2.886  51.250  1.00  0.00    -0.014 A 
HETATM    6  C5  UNL     1      22.543   2.952  50.654  1.00  0.00    -0.016 A 
HETATM    7  C6  UNL     1      22.005   4.033  49.951  1.00  0.00     0.054 A 
HETATM    8  C7  UNL     1      21.471   1.876  50.617  1.00  0.00    -0.015 C 
HETATM    9  C8  UNL     1      21.593   0.541  50.385  1.00  0.00     0.065 C 
HETATM   10  S1  UNL     1      21.867   0.336  52.224  1.00  0.00    -0.049 SA
HETATM   11  N1  UNL     1      21.725   1.931  52.745  1.00  0.00    -0.030 NA
HETATM   12  O1  UNL     1      20.382   2.357  52.461  1.00  0.00    -0.271 OA
HETATM   13  C9  UNL     1      20.279   2.743  50.977  1.00  0.00     0.236 C 
HETATM   14  C10 UNL     1      23.580   0.080  52.944  1.00  0.00     0.361 C 
HETATM   15  N2  UNL     1      24.661   0.749  52.338  1.00  0.00     0.116 NA
HETATM   16  C11 UNL     1      25.711   0.623  53.370  1.00  0.00     0.259 A 
HETATM   17  C12 UNL     1      26.503  -0.617  53.302  1.00  0.00     0.091 A 
HETATM   18  C13 UNL     1      27.952  -0.263  53.347  1.00  0.00     0.014 A 
HETATM   19 CL1  UNL     1      29.004  -1.682  53.319  1.00  0.00    -0.089 Cl
HETATM   20  C14 UNL     1      28.564   0.899  53.400  1.00  0.00     0.020 A 
HETATM   21  C15 UNL     1      27.765   2.103  53.430  1.00  0.00     0.006 A 
HETATM   22  C16 UNL     1      26.469   1.890  53.410  1.00  0.00    -0.044 A 
HETATM   23  C17 UNL     1      25.178   2.673  53.366  1.00  0.00     0.077 C 
HETATM   24  C18 UNL     1      24.721   2.071  52.009  1.00  0.00     0.262 C 
ENDROOT
TORSDOF 0
ENDMDL
MODEL 7
REMARK VINA RESULT:      -8.3      3.062      4.530
REMARK  0 active torsions:
REMARK  status: ('A' for Active; 'I' for Inactive)
ROOT
HETATM    1  F1  UNL     1      20.489   4.680  47.279  1.00  0.00    -0.206 F 
HETATM    2  C1  UNL     1      21.098   3.945  48.228  1.00  0.00     0.117 A 
HETATM    3  C2  UNL     1      22.464   3.876  48.356  1.00  0.00     0.043 A 
HETATM    4  C3  UNL     1      23.029   3.105  49.349  1.00  0.00     0.013 A 
HETATM    5  C4  UNL     1      22.239   2.375  50.253  1.00  0.00    -0.014 A 
HETATM    6  C5  UNL     1      20.837   2.521  50.022  1.00  0.00    -0.016 A 
HETATM    7  C6  UNL     1      20.234   3.294  49.026  1.00  0.00     0.054 A 
HETATM    8  C7  UNL     1      19.689   1.865  50.769  1.00  0.00    -0.015 C 
HETATM    9  C8  UNL     1      19.561   0.582  51.203  1.00  0.00     0.065 C 
HETATM   10  S1  UNL     1      20.403   1.124  52.782  1.00  0.00    -0.049 SA
HETATM   11  N1  UNL     1      20.641   2.761  52.469  1.00  0.00    -0.030 NA
HETATM   12  O1  UNL     1      19.343   3.365  52.334  1.00  0.00    -0.271 OA
HETATM   13  C9  UNL     1      18.802   3.086  50.924  1.00  0.00     0.236 C 
HETATM   14  C10 UNL     1      22.212   0.756  53.114  1.00  0.00     0.361 C 
HETATM   15  N2  UNL     1      23.105   0.783  52.024  1.00  0.00     0.116 NA
HETATM   16  C11 UNL     1      24.414   0.838  52.707  1.00  0.00     0.259 A 
HETATM   17  C12 UNL     1      24.979  -0.471  53.075  1.00  0.00     0.091 A 
HETATM   18  C13 UNL     1      26.392  -0.535  52.600  1.00  0.00     0.014 A 
HETATM   19 CL1  UNL     1      27.190  -2.051  53.030  1.00  0.00    -0.089 Cl
HETATM   20  C14 UNL     1      27.126   0.326  51.932  1.00  0.00     0.020 A 
HETATM   21  C15 UNL     1      26.537   1.591  51.551  1.00  0.00     0.006 A 
HETATM   22  C16 UNL     1      25.293   1.745  51.941  1.00  0.00    -0.044 A 
HETATM   23  C17 UNL     1      24.168   2.745  51.820  1.00  0.00     0.077 C 
HETATM   24  C18 UNL     1      23.215   1.764  51.084  1.00  0.00     0.262 C 
ENDROOT
TORSDOF 0
ENDMDL
MODEL 8
REMARK VINA RESULT:      -8.2      2.214      3.090
REMARK  0 active torsions:
REMARK  status: ('A' for Active; 'I' for Inactive)
ROOT
HETATM    1  F1  UNL     1      18.884   4.303  51.610  1.00  0.00    -0.206 F 
HETATM    2  C1  UNL     1      20.164   3.895  51.697  1.00  0.00     0.117 A 
HETATM    3  C2  UNL     1      20.548   2.799  52.433  1.00  0.00     0.043 A 
HETATM    4  C3  UNL     1      21.875   2.431  52.485  1.00  0.00     0.013 A 
HETATM    5  C4  UNL     1      22.866   3.149  51.796  1.00  0.00    -0.014 A 
HETATM    6  C5  UNL     1      22.350   4.266  51.069  1.00  0.00    -0.016 A 
HETATM    7  C6  UNL     1      21.013   4.665  50.997  1.00  0.00     0.054 A 
HETATM    8  C7  UNL     1      23.117   5.282  50.241  1.00  0.00    -0.015 C 
HETATM    9  C8  UNL     1      24.295   5.905  50.512  1.00  0.00     0.065 C 
HETATM   10  S1  UNL     1      25.149   4.456  49.695  1.00  0.00    -0.049 SA
HETATM   11  N1  UNL     1      23.824   3.525  49.236  1.00  0.00    -0.030 NA
HETATM   12  O1  UNL     1      23.071   4.293  48.282  1.00  0.00    -0.271 OA
HETATM   13  C9  UNL     1      22.202   5.314  49.032  1.00  0.00     0.236 C 
HETATM   14  C10 UNL     1      25.964   3.097  50.699  1.00  0.00     0.361 C 
HETATM   15  N2  UNL     1      25.360   2.716  51.913  1.00  0.00     0.116 NA
HETATM   16  C11 UNL     1      26.028   1.427  52.191  1.00  0.00     0.259 A 
HETATM   17  C12 UNL     1      27.304   1.532  52.916  1.00  0.00     0.091 A 
HETATM   18  C13 UNL     1      27.280   0.587  54.071  1.00  0.00     0.014 A 
HETATM   19 CL1  UNL     1      28.788   0.593  54.991  1.00  0.00    -0.089 Cl
HETATM   20  C14 UNL     1      26.348  -0.228  54.509  1.00  0.00     0.020 A 
HETATM   21  C15 UNL     1      25.089  -0.288  53.801  1.00  0.00     0.006 A 
HETATM   22  C16 UNL     1      25.022   0.503  52.754  1.00  0.00    -0.044 A 
HETATM   23  C17 UNL     1      24.030   0.925  51.696  1.00  0.00     0.077 C 
HETATM   24  C18 UNL     1      24.043   2.421  52.112  1.00  0.00     0.262 C 
ENDROOT
TORSDOF 0
ENDMDL
MODEL 9
REMARK VINA RESULT:      -7.7      3.095      4.536
REMARK  0 active torsions:
REMARK  status: ('A' for Active; 'I' for Inactive)
ROOT
HETATM    1  F1  UNL     1      17.633   4.820  50.414  1.00  0.00    -0.206 F 
HETATM    2  C1  UNL     1      18.691   4.099  50.828  1.00  0.00     0.117 A 
HETATM    3  C2  UNL     1      18.565   2.950  51.571  1.00  0.00     0.043 A 
HETATM    4  C3  UNL     1      19.688   2.254  51.966  1.00  0.00     0.013 A 
HETATM    5  C4  UNL     1      20.979   2.687  51.626  1.00  0.00    -0.014 A 
HETATM    6  C5  UNL     1      20.986   3.890  50.856  1.00  0.00    -0.016 A 
HETATM    7  C6  UNL     1      19.868   4.618  50.440  1.00  0.00     0.054 A 
HETATM    8  C7  UNL     1      22.185   4.666  50.339  1.00  0.00    -0.015 C 
HETATM    9  C8  UNL     1      23.354   4.970  50.965  1.00  0.00     0.065 C 
HETATM   10  S1  UNL     1      24.016   3.341  50.328  1.00  0.00    -0.049 SA
HETATM   11  N1  UNL     1      22.688   2.776  49.461  1.00  0.00    -0.030 NA
HETATM   12  O1  UNL     1      22.453   3.701  48.386  1.00  0.00    -0.271 OA
HETATM   13  C9  UNL     1      21.689   4.919  48.928  1.00  0.00     0.236 C 
HETATM   14  C10 UNL     1      24.147   1.830  51.431  1.00  0.00     0.361 C 
HETATM   15  N2  UNL     1      23.148   1.630  52.403  1.00  0.00     0.116 NA
HETATM   16  C11 UNL     1      23.366   0.216  52.775  1.00  0.00     0.259 A 
HETATM   17  C12 UNL     1      24.368  -0.002  53.831  1.00  0.00     0.091 A 
HETATM   18  C13 UNL     1      23.782  -0.896  54.872  1.00  0.00     0.014 A 
HETATM   19 CL1  UNL     1      24.918  -1.267  56.173  1.00  0.00    -0.089 Cl
HETATM   20  C14 UNL     1      22.591  -1.440  54.982  1.00  0.00     0.020 A 
HETATM   21  C15 UNL     1      21.612  -1.183  53.949  1.00  0.00     0.006 A 
HETATM   22  C16 UNL     1      22.045  -0.413  52.977  1.00  0.00    -0.044 A 
HETATM   23  C17 UNL     1      21.532   0.237  51.714  1.00  0.00     0.077 C 
HETATM   24  C18 UNL     1      21.799   1.685  52.210  1.00  0.00     0.262 C 
ENDROOT
TORSDOF 0
ENDMDL
