MODEL 1
REMARK VINA RESULT:      -9.1      0.000      0.000
REMARK  0 active torsions:
REMARK  status: ('A' for Active; 'I' for Inactive)
ROOT
HETATM    1  C1  UNL     1      26.311   6.734  48.855  1.00  0.00    -0.006 C 
HETATM    2  C2  UNL     1      25.482   5.911  49.277  1.00  0.00     0.064 C 
HETATM    3  C3  UNL     1      24.650   4.975  49.952  1.00  0.00     0.028 C 
HETATM    4  C4  UNL     1      23.707   4.648  49.056  1.00  0.00     0.033 C 
HETATM    5 BR1  UNL     1      23.345   5.856  47.659  1.00  0.00    -0.049 Br
HETATM    6  C5  UNL     1      22.856   3.422  48.963  1.00  0.00     0.018 C 
HETATM    7  C6  UNL     1      22.409   2.600  49.947  1.00  0.00    -0.010 C 
HETATM    8  C7  UNL     1      22.571   2.618  51.449  1.00  0.00     0.014 C 
HETATM    9  C8  UNL     1      22.365   4.208  51.617  1.00  0.00    -0.015 C 
HETATM   10  C9  UNL     1      22.634   4.915  52.699  1.00  0.00    -0.027 C 
HETATM   11  C10 UNL     1      23.796   4.305  53.456  1.00  0.00     0.053 C 
HETATM   12  C11 UNL     1      24.605   3.665  52.370  1.00  0.00     0.104 C 
HETATM   13  N1  UNL     1      24.853   4.538  51.287  1.00  0.00    -0.385 N 
HETATM   14  C12 UNL     1      23.904   2.311  51.882  1.00  0.00     0.054 C 
HETATM   15  C13 UNL     1      24.783   2.149  50.628  1.00  0.00     0.107 C 
HETATM   16  N2  UNL     1      26.014   1.695  50.620  1.00  0.00    -0.274 NA
HETATM   17  C14 UNL     1      26.679   1.255  51.792  1.00  0.00     0.138 C 
HETATM   18  C15 UNL     1      25.960   1.272  52.953  1.00  0.00     0.066 C 
HETATM   19  C16 UNL     1      26.425   0.895  54.295  1.00  0.00     0.101 C 
HETATM   20  N3  UNL     1      26.806   0.598  55.335  1.00  0.00    -0.191 NA
HETATM   21  C17 UNL     1      24.428   1.376  52.808  1.00  0.00    -0.035 C 
HETATM   22  C18 UNL     1      23.608   0.553  53.420  1.00  0.00     0.058 C 
HETATM   23  C19 UNL     1      23.398  -0.560  54.398  1.00  0.00     0.006 C 
HETATM   24  C20 UNL     1      22.244  -1.203  54.749  1.00  0.00     0.108 C 
HETATM   25  N4  UNL     1      21.592  -0.301  53.797  1.00  0.00    -0.354 N 
HETATM   26  C21 UNL     1      21.306  -0.142  52.402  1.00  0.00     0.218 C 
HETATM   27  O1  UNL     1      21.958  -1.187  52.355  1.00  0.00    -0.274 OA
HETATM   28  C22 UNL     1      20.520   1.044  51.954  1.00  0.00     0.104 C 
HETATM   29  C23 UNL     1      21.320   2.248  52.040  1.00  0.00     0.028 C 
HETATM   30  H11 UNL     1      25.567   5.231  51.674  1.00  0.00     0.160 HD
HETATM   31  H17 UNL     1      21.171   0.559  54.306  1.00  0.00     0.162 HD
ENDROOT
TORSDOF 0
ENDMDL
MODEL 2
REMARK VINA RESULT:      -9.0      3.024      6.364
REMARK  0 active torsions:
REMARK  status: ('A' for Active; 'I' for Inactive)
ROOT
HETATM    1  C1  UNL     1      17.052   0.255  50.991  1.00  0.00    -0.006 C 
HETATM    2  C2  UNL     1      18.233   0.584  51.192  1.00  0.00     0.064 C 
HETATM    3  C3  UNL     1      19.536   1.144  51.306  1.00  0.00     0.028 C 
HETATM    4  C4  UNL     1      20.229   0.253  52.030  1.00  0.00     0.033 C 
HETATM    5 BR1  UNL     1      19.276  -0.922  53.151  1.00  0.00    -0.049 Br
HETATM    6  C5  UNL     1      21.703   0.012  52.099  1.00  0.00     0.018 C 
HETATM    7  C6  UNL     1      22.732   0.877  51.912  1.00  0.00    -0.010 C 
HETATM    8  C7  UNL     1      22.785   2.354  51.601  1.00  0.00     0.014 C 
HETATM    9  C8  UNL     1      21.594   2.776  52.601  1.00  0.00    -0.015 C 
HETATM   10  C9  UNL     1      20.972   3.940  52.621  1.00  0.00    -0.027 C 
HETATM   11  C10 UNL     1      20.925   4.539  51.230  1.00  0.00     0.053 C 
HETATM   12  C11 UNL     1      20.901   3.330  50.346  1.00  0.00     0.104 C 
HETATM   13  N1  UNL     1      19.927   2.384  50.738  1.00  0.00    -0.385 N 
HETATM   14  C12 UNL     1      22.358   2.671  50.268  1.00  0.00     0.054 C 
HETATM   15  C13 UNL     1      21.882   1.368  49.602  1.00  0.00     0.107 C 
HETATM   16  N2  UNL     1      21.586   1.232  48.330  1.00  0.00    -0.274 NA
HETATM   17  C14 UNL     1      21.711   2.290  47.395  1.00  0.00     0.138 C 
HETATM   18  C15 UNL     1      22.211   3.472  47.862  1.00  0.00     0.066 C 
HETATM   19  C16 UNL     1      22.411   4.716  47.107  1.00  0.00     0.101 C 
HETATM   20  N3  UNL     1      22.558   5.679  46.501  1.00  0.00    -0.191 NA
HETATM   21  C17 UNL     1      22.946   3.416  49.217  1.00  0.00    -0.035 C 
HETATM   22  C18 UNL     1      24.142   3.932  49.388  1.00  0.00     0.058 C 
HETATM   23  C19 UNL     1      25.283   4.734  48.849  1.00  0.00     0.006 C 
HETATM   24  C20 UNL     1      26.485   5.036  49.427  1.00  0.00     0.108 C 
HETATM   25  N4  UNL     1      25.992   4.266  50.572  1.00  0.00    -0.354 N 
HETATM   26  C21 UNL     1      25.870   2.928  51.068  1.00  0.00     0.218 C 
HETATM   27  O1  UNL     1      26.378   2.689  49.970  1.00  0.00    -0.274 OA
HETATM   28  C22 UNL     1      25.267   2.706  52.414  1.00  0.00     0.104 C 
HETATM   29  C23 UNL     1      23.838   2.939  52.377  1.00  0.00     0.028 C 
HETATM   30  H11 UNL     1      19.002   2.840  50.463  1.00  0.00     0.160 HD
HETATM   31  H17 UNL     1      25.560   4.921  51.321  1.00  0.00     0.162 HD
ENDROOT
TORSDOF 0
ENDMDL
MODEL 3
REMARK VINA RESULT:      -8.8      2.444      4.706
REMARK  0 active torsions:
REMARK  status: ('A' for Active; 'I' for Inactive)
ROOT
HETATM    1  C1  UNL     1      17.910   5.430  48.188  1.00  0.00    -0.006 C 
HETATM    2  C2  UNL     1      19.075   5.117  48.485  1.00  0.00     0.064 C 
HETATM    3  C3  UNL     1      20.326   4.554  48.863  1.00  0.00     0.028 C 
HETATM    4  C4  UNL     1      21.202   5.563  48.752  1.00  0.00     0.033 C 
HETATM    5 BR1  UNL     1      20.776   6.995  47.607  1.00  0.00    -0.049 Br
HETATM    6  C5  UNL     1      22.524   5.763  49.423  1.00  0.00     0.018 C 
HETATM    7  C6  UNL     1      23.419   4.844  49.866  1.00  0.00    -0.010 C 
HETATM    8  C7  UNL     1      23.437   3.334  49.836  1.00  0.00     0.014 C 
HETATM    9  C8  UNL     1      22.865   3.193  48.336  1.00  0.00    -0.015 C 
HETATM   10  C9  UNL     1      22.411   2.086  47.779  1.00  0.00    -0.027 C 
HETATM   11  C10 UNL     1      21.782   1.187  48.825  1.00  0.00     0.053 C 
HETATM   12  C11 UNL     1      21.268   2.162  49.839  1.00  0.00     0.104 C 
HETATM   13  N1  UNL     1      20.510   3.204  49.261  1.00  0.00    -0.385 N 
HETATM   14  C12 UNL     1      22.477   2.735  50.719  1.00  0.00     0.054 C 
HETATM   15  C13 UNL     1      21.652   3.867  51.359  1.00  0.00     0.107 C 
HETATM   16  N2  UNL     1      20.802   3.718  52.348  1.00  0.00    -0.274 NA
HETATM   17  C14 UNL     1      20.569   2.471  52.979  1.00  0.00     0.138 C 
HETATM   18  C15 UNL     1      21.315   1.411  52.548  1.00  0.00     0.066 C 
HETATM   19  C16 UNL     1      21.244   0.021  53.019  1.00  0.00     0.101 C 
HETATM   20  N3  UNL     1      21.172  -1.059  53.398  1.00  0.00    -0.191 NA
HETATM   21  C17 UNL     1      22.578   1.750  51.731  1.00  0.00    -0.035 C 
HETATM   22  C18 UNL     1      23.756   1.247  52.020  1.00  0.00     0.058 C 
HETATM   23  C19 UNL     1      24.586   0.305  52.833  1.00  0.00     0.006 C 
HETATM   24  C20 UNL     1      25.938   0.103  52.820  1.00  0.00     0.108 C 
HETATM   25  N4  UNL     1      25.961   1.131  51.777  1.00  0.00    -0.354 N 
HETATM   26  C21 UNL     1      25.977   2.551  51.586  1.00  0.00     0.218 C 
HETATM   27  O1  UNL     1      25.911   2.514  52.817  1.00  0.00    -0.274 OA
HETATM   28  C22 UNL     1      26.036   3.095  50.198  1.00  0.00     0.104 C 
HETATM   29  C23 UNL     1      24.768   2.908  49.524  1.00  0.00     0.028 C 
HETATM   30  H11 UNL     1      19.598   2.729  48.974  1.00  0.00     0.160 HD
HETATM   31  H17 UNL     1      25.968   0.680  50.790  1.00  0.00     0.162 HD
ENDROOT
TORSDOF 0
ENDMDL
MODEL 4
REMARK VINA RESULT:      -8.7      3.539      6.078
REMARK  0 active torsions:
REMARK  status: ('A' for Active; 'I' for Inactive)
ROOT
HETATM    1  C1  UNL     1      26.456   1.723  51.776  1.00  0.00    -0.006 C 
HETATM    2  C2  UNL     1      25.219   1.616  51.768  1.00  0.00     0.064 C 
HETATM    3  C3  UNL     1      23.809   1.621  51.576  1.00  0.00     0.028 C 
HETATM    4  C4  UNL     1      23.325   0.871  52.576  1.00  0.00     0.033 C 
HETATM    5 BR1  UNL     1      24.467  -0.390  53.381  1.00  0.00    -0.049 Br
HETATM    6  C5  UNL     1      21.967   0.869  53.202  1.00  0.00     0.018 C 
HETATM    7  C6  UNL     1      20.762   1.181  52.661  1.00  0.00    -0.010 C 
HETATM    8  C7  UNL     1      20.342   1.609  51.274  1.00  0.00     0.014 C 
HETATM    9  C8  UNL     1      21.298   0.577  50.488  1.00  0.00    -0.015 C 
HETATM   10  C9  UNL     1      21.585   0.612  49.200  1.00  0.00    -0.027 C 
HETATM   11  C10 UNL     1      21.578   2.040  48.694  1.00  0.00     0.053 C 
HETATM   12  C11 UNL     1      21.990   2.825  49.901  1.00  0.00     0.104 C 
HETATM   13  N1  UNL     1      23.147   2.306  50.524  1.00  0.00    -0.385 N 
HETATM   14  C12 UNL     1      20.770   2.935  50.933  1.00  0.00     0.054 C 
HETATM   15  C13 UNL     1      21.625   3.470  52.096  1.00  0.00     0.107 C 
HETATM   16  N2  UNL     1      22.042   4.708  52.222  1.00  0.00    -0.274 NA
HETATM   17  C14 UNL     1      21.713   5.728  51.294  1.00  0.00     0.138 C 
HETATM   18  C15 UNL     1      20.882   5.384  50.266  1.00  0.00     0.066 C 
HETATM   19  C16 UNL     1      20.417   6.244  49.169  1.00  0.00     0.101 C 
HETATM   20  N3  UNL     1      20.067   6.930  48.320  1.00  0.00    -0.191 NA
HETATM   21  C17 UNL     1      20.087   4.073  50.438  1.00  0.00    -0.035 C 
HETATM   22  C18 UNL     1      18.788   4.012  50.256  1.00  0.00     0.058 C 
HETATM   23  C19 UNL     1      17.519   4.677  49.825  1.00  0.00     0.006 C 
HETATM   24  C20 UNL     1      16.240   4.193  49.826  1.00  0.00     0.108 C 
HETATM   25  N4  UNL     1      16.831   2.966  50.365  1.00  0.00    -0.354 N 
HETATM   26  C21 UNL     1      17.266   2.361  51.589  1.00  0.00     0.218 C 
HETATM   27  O1  UNL     1      16.925   3.465  52.021  1.00  0.00    -0.274 OA
HETATM   28  C22 UNL     1      17.801   0.970  51.560  1.00  0.00     0.104 C 
HETATM   29  C23 UNL     1      19.116   0.942  50.951  1.00  0.00     0.028 C 
HETATM   30  H11 UNL     1      23.936   2.561  49.852  1.00  0.00     0.160 HD
HETATM   31  H17 UNL     1      17.015   2.247  49.575  1.00  0.00     0.162 HD
ENDROOT
TORSDOF 0
ENDMDL
MODEL 5
REMARK VINA RESULT:      -8.5      9.025     11.863
REMARK  0 active torsions:
REMARK  status: ('A' for Active; 'I' for Inactive)
ROOT
HETATM    1  C1  UNL     1      31.905   2.840  46.701  1.00  0.00    -0.006 C 
HETATM    2  C2  UNL     1      32.023   4.076  46.640  1.00  0.00     0.064 C 
HETATM    3  C3  UNL     1      32.058   5.492  46.770  1.00  0.00     0.028 C 
HETATM    4  C4  UNL     1      32.661   5.923  45.652  1.00  0.00     0.033 C 
HETATM    5 BR1  UNL     1      33.784   4.729  44.726  1.00  0.00    -0.049 Br
HETATM    6  C5  UNL     1      32.586   7.253  44.974  1.00  0.00     0.018 C 
HETATM    7  C6  UNL     1      32.366   8.484  45.502  1.00  0.00    -0.010 C 
HETATM    8  C7  UNL     1      32.145   8.968  46.916  1.00  0.00     0.014 C 
HETATM    9  C8  UNL     1      33.270   8.030  47.588  1.00  0.00    -0.015 C 
HETATM   10  C9  UNL     1      33.418   7.797  48.878  1.00  0.00    -0.027 C 
HETATM   11  C10 UNL     1      32.077   7.848  49.582  1.00  0.00     0.053 C 
HETATM   12  C11 UNL     1      31.123   7.398  48.518  1.00  0.00     0.104 C 
HETATM   13  N1  UNL     1      31.538   6.208  47.879  1.00  0.00    -0.385 N 
HETATM   14  C12 UNL     1      30.878   8.575  47.461  1.00  0.00     0.054 C 
HETATM   15  C13 UNL     1      30.174   7.681  46.425  1.00  0.00     0.107 C 
HETATM   16  N2  UNL     1      28.927   7.277  46.495  1.00  0.00    -0.274 NA
HETATM   17  C14 UNL     1      28.053   7.661  47.543  1.00  0.00     0.138 C 
HETATM   18  C15 UNL     1      28.549   8.528  48.475  1.00  0.00     0.066 C 
HETATM   19  C16 UNL     1      27.859   9.051  49.662  1.00  0.00     0.101 C 
HETATM   20  N3  UNL     1      27.305   9.448  50.584  1.00  0.00    -0.191 NA
HETATM   21  C17 UNL     1      29.828   9.295  48.083  1.00  0.00    -0.035 C 
HETATM   22  C18 UNL     1      29.927  10.599  48.198  1.00  0.00     0.058 C 
HETATM   23  C19 UNL     1      29.343  11.895  48.664  1.00  0.00     0.006 C 
HETATM   24  C20 UNL     1      29.832  13.166  48.538  1.00  0.00     0.108 C 
HETATM   25  N4  UNL     1      30.964  12.534  47.856  1.00  0.00    -0.354 N 
HETATM   26  C21 UNL     1      31.384  12.040  46.578  1.00  0.00     0.218 C 
HETATM   27  O1  UNL     1      30.232  12.379  46.294  1.00  0.00    -0.274 OA
HETATM   28  C22 UNL     1      32.760  11.484  46.432  1.00  0.00     0.104 C 
HETATM   29  C23 UNL     1      32.862  10.196  47.086  1.00  0.00     0.028 C 
HETATM   30  H11 UNL     1      31.374   5.452  48.614  1.00  0.00     0.160 HD
HETATM   31  H17 UNL     1      31.788  12.372  48.542  1.00  0.00     0.162 HD
ENDROOT
TORSDOF 0
ENDMDL
MODEL 6
REMARK VINA RESULT:      -8.3      2.750      5.108
REMARK  0 active torsions:
REMARK  status: ('A' for Active; 'I' for Inactive)
ROOT
HETATM    1  C1  UNL     1      21.392   6.872  47.920  1.00  0.00    -0.006 C 
HETATM    2  C2  UNL     1      21.614   5.949  48.721  1.00  0.00     0.064 C 
HETATM    3  C3  UNL     1      21.705   4.783  49.531  1.00  0.00     0.028 C 
HETATM    4  C4  UNL     1      22.688   5.049  50.404  1.00  0.00     0.033 C 
HETATM    5 BR1  UNL     1      23.971   6.344  49.937  1.00  0.00    -0.049 Br
HETATM    6  C5  UNL     1      22.949   4.472  51.759  1.00  0.00     0.018 C 
HETATM    7  C6  UNL     1      22.650   3.242  52.250  1.00  0.00    -0.010 C 
HETATM    8  C7  UNL     1      21.990   2.028  51.640  1.00  0.00     0.014 C 
HETATM    9  C8  UNL     1      22.741   2.130  50.217  1.00  0.00    -0.015 C 
HETATM   10  C9  UNL     1      22.415   1.476  49.119  1.00  0.00    -0.027 C 
HETATM   11  C10 UNL     1      20.921   1.228  49.073  1.00  0.00     0.053 C 
HETATM   12  C11 UNL     1      20.364   2.399  49.823  1.00  0.00     0.104 C 
HETATM   13  N1  UNL     1      20.887   3.634  49.377  1.00  0.00    -0.385 N 
HETATM   14  C12 UNL     1      20.587   2.205  51.397  1.00  0.00     0.054 C 
HETATM   15  C13 UNL     1      20.222   3.655  51.764  1.00  0.00     0.107 C 
HETATM   16  N2  UNL     1      19.002   4.132  51.841  1.00  0.00    -0.274 NA
HETATM   17  C14 UNL     1      17.850   3.335  51.625  1.00  0.00     0.138 C 
HETATM   18  C15 UNL     1      18.054   2.007  51.377  1.00  0.00     0.066 C 
HETATM   19  C16 UNL     1      17.036   0.986  51.096  1.00  0.00     0.101 C 
HETATM   20  N3  UNL     1      16.228   0.203  50.877  1.00  0.00    -0.191 NA
HETATM   21  C17 UNL     1      19.443   1.448  51.750  1.00  0.00    -0.035 C 
HETATM   22  C18 UNL     1      19.590   0.366  52.478  1.00  0.00     0.058 C 
HETATM   23  C19 UNL     1      18.977  -0.812  53.167  1.00  0.00     0.006 C 
HETATM   24  C20 UNL     1      19.571  -1.786  53.922  1.00  0.00     0.108 C 
HETATM   25  N4  UNL     1      20.820  -1.072  53.642  1.00  0.00    -0.354 N 
HETATM   26  C21 UNL     1      21.618   0.030  54.089  1.00  0.00     0.218 C 
HETATM   27  O1  UNL     1      20.664   0.147  54.862  1.00  0.00    -0.274 OA
HETATM   28  C22 UNL     1      22.916   0.308  53.408  1.00  0.00     0.104 C 
HETATM   29  C23 UNL     1      22.691   0.863  52.089  1.00  0.00     0.028 C 
HETATM   30  H11 UNL     1      20.424   3.779  48.426  1.00  0.00     0.160 HD
HETATM   31  H17 UNL     1      21.341  -1.520  52.803  1.00  0.00     0.162 HD
ENDROOT
TORSDOF 0
ENDMDL
MODEL 7
REMARK VINA RESULT:      -8.2      3.457      6.362
REMARK  0 active torsions:
REMARK  status: ('A' for Active; 'I' for Inactive)
ROOT
HETATM    1  C1  UNL     1      24.423  -0.433  53.591  1.00  0.00    -0.006 C 
HETATM    2  C2  UNL     1      23.554   0.248  53.023  1.00  0.00     0.064 C 
HETATM    3  C3  UNL     1      22.719   1.076  52.223  1.00  0.00     0.028 C 
HETATM    4  C4  UNL     1      21.524   1.047  52.831  1.00  0.00     0.033 C 
HETATM    5 BR1  UNL     1      21.126  -0.417  53.947  1.00  0.00    -0.049 Br
HETATM    6  C5  UNL     1      20.398   2.030  52.783  1.00  0.00     0.018 C 
HETATM    7  C6  UNL     1      20.032   2.880  51.790  1.00  0.00    -0.010 C 
HETATM    8  C7  UNL     1      20.580   3.135  50.406  1.00  0.00     0.014 C 
HETATM    9  C8  UNL     1      20.832   1.585  50.041  1.00  0.00    -0.015 C 
HETATM   10  C9  UNL     1      21.542   1.133  49.025  1.00  0.00    -0.027 C 
HETATM   11  C10 UNL     1      22.669   2.091  48.697  1.00  0.00     0.053 C 
HETATM   12  C11 UNL     1      22.979   2.710  50.026  1.00  0.00     0.104 C 
HETATM   13  N1  UNL     1      23.147   1.752  51.050  1.00  0.00    -0.385 N 
HETATM   14  C12 UNL     1      21.858   3.787  50.410  1.00  0.00     0.054 C 
HETATM   15  C13 UNL     1      22.309   3.935  51.874  1.00  0.00     0.107 C 
HETATM   16  N2  UNL     1      23.340   4.637  52.282  1.00  0.00    -0.274 NA
HETATM   17  C14 UNL     1      24.155   5.389  51.399  1.00  0.00     0.138 C 
HETATM   18  C15 UNL     1      23.792   5.401  50.082  1.00  0.00     0.066 C 
HETATM   19  C16 UNL     1      24.481   6.077  48.974  1.00  0.00     0.101 C 
HETATM   20  N3  UNL     1      25.033   6.609  48.122  1.00  0.00    -0.191 NA
HETATM   21  C17 UNL     1      22.353   4.948  49.765  1.00  0.00    -0.035 C 
HETATM   22  C18 UNL     1      21.541   5.660  49.018  1.00  0.00     0.058 C 
HETATM   23  C19 UNL     1      21.321   6.841  48.127  1.00  0.00     0.006 C 
HETATM   24  C20 UNL     1      20.175   7.267  47.514  1.00  0.00     0.108 C 
HETATM   25  N4  UNL     1      19.546   6.107  48.149  1.00  0.00    -0.354 N 
HETATM   26  C21 UNL     1      18.955   5.672  49.379  1.00  0.00     0.218 C 
HETATM   27  O1  UNL     1      19.288   6.813  49.709  1.00  0.00    -0.274 OA
HETATM   28  C22 UNL     1      18.404   4.289  49.470  1.00  0.00     0.104 C 
HETATM   29  C23 UNL     1      19.475   3.315  49.512  1.00  0.00     0.028 C 
HETATM   30  H11 UNL     1      24.087   1.300  50.827  1.00  0.00     0.160 HD
HETATM   31  H17 UNL     1      19.502   5.268  47.464  1.00  0.00     0.162 HD
ENDROOT
TORSDOF 0
ENDMDL
MODEL 8
REMARK VINA RESULT:      -7.9      3.858      6.909
REMARK  0 active torsions:
REMARK  status: ('A' for Active; 'I' for Inactive)
ROOT
HETATM    1  C1  UNL     1      17.421   2.765  49.016  1.00  0.00    -0.006 C 
HETATM    2  C2  UNL     1      18.633   2.885  49.261  1.00  0.00     0.064 C 
HETATM    3  C3  UNL     1      19.989   3.241  49.505  1.00  0.00     0.028 C 
HETATM    4  C4  UNL     1      20.598   2.084  49.801  1.00  0.00     0.033 C 
HETATM    5 BR1  UNL     1      19.548   0.660  50.446  1.00  0.00    -0.049 Br
HETATM    6  C5  UNL     1      22.040   1.704  49.693  1.00  0.00     0.018 C 
HETATM    7  C6  UNL     1      23.150   2.479  49.790  1.00  0.00    -0.010 C 
HETATM    8  C7  UNL     1      23.351   3.953  50.056  1.00  0.00     0.014 C 
HETATM    9  C8  UNL     1      22.226   4.066  51.206  1.00  0.00    -0.015 C 
HETATM   10  C9  UNL     1      21.729   5.185  51.697  1.00  0.00    -0.027 C 
HETATM   11  C10 UNL     1      21.720   6.271  50.639  1.00  0.00     0.053 C 
HETATM   12  C11 UNL     1      21.556   5.497  49.367  1.00  0.00     0.104 C 
HETATM   13  N1  UNL     1      20.496   4.564  49.426  1.00  0.00    -0.385 N 
HETATM   14  C12 UNL     1      22.936   4.790  48.967  1.00  0.00     0.054 C 
HETATM   15  C13 UNL     1      22.316   3.887  47.886  1.00  0.00     0.107 C 
HETATM   16  N2  UNL     1      21.987   4.272  46.675  1.00  0.00    -0.274 NA
HETATM   17  C14 UNL     1      22.204   5.591  46.202  1.00  0.00     0.138 C 
HETATM   18  C15 UNL     1      22.832   6.456  47.053  1.00  0.00     0.066 C 
HETATM   19  C16 UNL     1      23.146   7.871  46.812  1.00  0.00     0.101 C 
HETATM   20  N3  UNL     1      23.382   8.974  46.607  1.00  0.00    -0.191 NA
HETATM   21  C17 UNL     1      23.580   5.823  48.244  1.00  0.00    -0.035 C 
HETATM   22  C18 UNL     1      24.825   6.126  48.531  1.00  0.00     0.058 C 
HETATM   23  C19 UNL     1      26.034   6.968  48.272  1.00  0.00     0.006 C 
HETATM   24  C20 UNL     1      27.270   6.918  48.855  1.00  0.00     0.108 C 
HETATM   25  N4  UNL     1      26.719   5.818  49.649  1.00  0.00    -0.354 N 
HETATM   26  C21 UNL     1      26.469   4.408  49.611  1.00  0.00     0.218 C 
HETATM   27  O1  UNL     1      26.931   4.561  48.477  1.00  0.00    -0.274 OA
HETATM   28  C22 UNL     1      25.869   3.745  50.804  1.00  0.00     0.104 C 
HETATM   29  C23 UNL     1      24.471   4.101  50.936  1.00  0.00     0.028 C 
HETATM   30  H11 UNL     1      19.619   5.170  49.395  1.00  0.00     0.160 HD
HETATM   31  H17 UNL     1      26.370   6.174  50.613  1.00  0.00     0.162 HD
ENDROOT
TORSDOF 0
ENDMDL
MODEL 9
REMARK VINA RESULT:      -7.9      3.230      5.674
REMARK  0 active torsions:
REMARK  status: ('A' for Active; 'I' for Inactive)
ROOT
HETATM    1  C1  UNL     1      17.110   3.096  45.759  1.00  0.00    -0.006 C 
HETATM    2  C2  UNL     1      18.175   3.351  46.345  1.00  0.00     0.064 C 
HETATM    3  C3  UNL     1      19.367   3.445  47.116  1.00  0.00     0.028 C 
HETATM    4  C4  UNL     1      19.910   4.619  46.764  1.00  0.00     0.033 C 
HETATM    5 BR1  UNL     1      19.447   5.353  45.093  1.00  0.00    -0.049 Br
HETATM    6  C5  UNL     1      20.862   5.498  47.511  1.00  0.00     0.018 C 
HETATM    7  C6  UNL     1      21.812   5.169  48.423  1.00  0.00    -0.010 C 
HETATM    8  C7  UNL     1      22.269   3.847  48.994  1.00  0.00     0.014 C 
HETATM    9  C8  UNL     1      22.228   3.042  47.599  1.00  0.00    -0.015 C 
HETATM   10  C9  UNL     1      22.292   1.732  47.456  1.00  0.00    -0.027 C 
HETATM   11  C10 UNL     1      21.671   1.037  48.651  1.00  0.00     0.053 C 
HETATM   12  C11 UNL     1      20.625   2.013  49.098  1.00  0.00     0.104 C 
HETATM   13  N1  UNL     1      19.804   2.459  48.039  1.00  0.00    -0.385 N 
HETATM   14  C12 UNL     1      21.307   3.240  49.868  1.00  0.00     0.054 C 
HETATM   15  C13 UNL     1      20.043   4.120  49.863  1.00  0.00     0.107 C 
HETATM   16  N2  UNL     1      19.021   3.981  50.675  1.00  0.00    -0.274 NA
HETATM   17  C14 UNL     1      18.980   3.001  51.698  1.00  0.00     0.138 C 
HETATM   18  C15 UNL     1      20.090   2.220  51.851  1.00  0.00     0.066 C 
HETATM   19  C16 UNL     1      20.285   1.126  52.812  1.00  0.00     0.101 C 
HETATM   20  N3  UNL     1      20.418   0.275  53.568  1.00  0.00    -0.191 NA
HETATM   21  C17 UNL     1      21.385   2.734  51.188  1.00  0.00    -0.035 C 
HETATM   22  C18 UNL     1      22.519   2.826  51.844  1.00  0.00     0.058 C 
HETATM   23  C19 UNL     1      23.308   2.566  53.088  1.00  0.00     0.006 C 
HETATM   24  C20 UNL     1      24.603   2.893  53.381  1.00  0.00     0.108 C 
HETATM   25  N4  UNL     1      24.635   3.473  52.037  1.00  0.00    -0.354 N 
HETATM   26  C21 UNL     1      24.299   4.659  51.307  1.00  0.00     0.218 C 
HETATM   27  O1  UNL     1      23.889   4.987  52.423  1.00  0.00    -0.274 OA
HETATM   28  C22 UNL     1      24.603   4.724  49.848  1.00  0.00     0.104 C 
HETATM   29  C23 UNL     1      23.698   3.875  49.101  1.00  0.00     0.028 C 
HETATM   30  H11 UNL     1      19.193   1.614  47.814  1.00  0.00     0.160 HD
HETATM   31  H17 UNL     1      25.059   2.774  51.324  1.00  0.00     0.162 HD
ENDROOT
TORSDOF 0
ENDMDL
