MODEL 1
REMARK VINA RESULT:      -7.3      0.000      0.000
REMARK  3 active torsions:
REMARK  status: ('A' for Active; 'I' for Inactive)
REMARK    1  A    between atoms: N1_2  and  C1_3 
REMARK    2  A    between atoms: C1_3  and  C2_4 
REMARK    3  A    between atoms: C8_10  and  O2_11 
ROOT
HETATM    1  C2  UNL     1      26.273   1.104  54.126  1.00  0.00     0.028 C 
HETATM    2  C3  UNL     1      25.982   0.031  53.414  1.00  0.00     0.037 C 
HETATM    3  C4  UNL     1      25.336   0.626  52.214  1.00  0.00    -0.037 C 
HETATM    4  C5  UNL     1      24.061   0.202  52.107  1.00  0.00     0.004 C 
HETATM    5  C6  UNL     1      22.729   0.734  51.700  1.00  0.00     0.100 C 
HETATM    6  C7  UNL     1      22.917   1.848  50.698  1.00  0.00     0.025 C 
HETATM    7  C8  UNL     1      23.705   2.939  50.409  1.00  0.00     0.050 C 
HETATM    8  C9  UNL     1      24.658   3.651  51.447  1.00  0.00     0.081 A 
HETATM    9  C10 UNL     1      25.931   2.938  51.260  1.00  0.00    -0.013 C 
HETATM   10  C11 UNL     1      26.084   1.587  51.340  1.00  0.00     0.008 C 
HETATM   11  C12 UNL     1      23.885   3.237  52.731  1.00  0.00    -0.008 A 
HETATM   12  C13 UNL     1      25.048   2.941  53.032  1.00  0.00     0.135 A 
HETATM   13  N2  UNL     1      26.054   2.464  53.827  1.00  0.00    -0.385 N 
HETATM   14  C14 UNL     1      22.473   3.387  52.486  1.00  0.00     0.034 C 
HETATM   15  C15 UNL     1      21.685   4.270  51.974  1.00  0.00    -0.000 C 
HETATM   16  C16 UNL     1      20.358   3.666  52.070  1.00  0.00    -0.019 C 
HETATM   17  C17 UNL     1      20.442   2.412  52.574  1.00  0.00     0.042 C 
HETATM   18  S1  UNL     1      21.756   1.302  53.133  1.00  0.00    -0.129 SA
HETATM   19  H12 UNL     1      26.786   3.003  54.322  1.00  0.00     0.160 HD
ENDROOT
BRANCH   1  20
HETATM   20  C1  UNL     1      26.866   0.322  55.197  1.00  0.00     0.239 C 
BRANCH  20  21
HETATM   21  N1  UNL     1      28.303   0.439  55.186  1.00  0.00    -0.135 NA
HETATM   22  O1  UNL     1      28.870   1.451  54.871  1.00  0.00    -0.067 OA
ENDBRANCH  20  21
ENDBRANCH   1  20
BRANCH   7  23
HETATM   23  O2  UNL     1      23.547   3.322  49.087  1.00  0.00    -0.364 OA
HETATM   24  H7  UNL     1      24.361   3.502  48.495  1.00  0.00     0.217 HD
ENDBRANCH   7  23
TORSDOF 3
ENDMDL
MODEL 2
REMARK VINA RESULT:      -7.0      3.387      4.579
REMARK  3 active torsions:
REMARK  status: ('A' for Active; 'I' for Inactive)
REMARK    1  A    between atoms: N1_2  and  C1_3 
REMARK    2  A    between atoms: C1_3  and  C2_4 
REMARK    3  A    between atoms: C8_10  and  O2_11 
ROOT
HETATM    1  C2  UNL     1      21.454   0.310  53.480  1.00  0.00     0.028 C 
HETATM    2  C3  UNL     1      20.426   1.128  53.613  1.00  0.00     0.037 C 
HETATM    3  C4  UNL     1      20.380   1.783  52.279  1.00  0.00    -0.037 C 
HETATM    4  C5  UNL     1      20.575   3.111  52.399  1.00  0.00     0.004 C 
HETATM    5  C6  UNL     1      21.258   4.218  51.671  1.00  0.00     0.100 C 
HETATM    6  C7  UNL     1      21.324   3.886  50.199  1.00  0.00     0.025 C 
HETATM    7  C8  UNL     1      21.549   2.852  49.319  1.00  0.00     0.050 C 
HETATM    8  C9  UNL     1      22.247   1.489  49.704  1.00  0.00     0.081 A 
HETATM    9  C10 UNL     1      21.109   0.641  50.094  1.00  0.00    -0.013 C 
HETATM   10  C11 UNL     1      20.181   0.970  51.035  1.00  0.00     0.008 C 
HETATM   11  C12 UNL     1      23.071   2.030  50.906  1.00  0.00    -0.008 A 
HETATM   12  C13 UNL     1      22.556   1.015  51.392  1.00  0.00     0.135 A 
HETATM   13  N2  UNL     1      22.284   0.090  52.362  1.00  0.00    -0.385 N 
HETATM   14  C14 UNL     1      23.629   3.308  50.543  1.00  0.00     0.034 C 
HETATM   15  C15 UNL     1      24.252   3.823  49.539  1.00  0.00    -0.000 C 
HETATM   16  C16 UNL     1      24.471   5.214  49.927  1.00  0.00    -0.019 C 
HETATM   17  C17 UNL     1      23.893   5.470  51.125  1.00  0.00     0.042 C 
HETATM   18  S1  UNL     1      22.921   4.551  52.341  1.00  0.00    -0.129 SA
HETATM   19  H12 UNL     1      22.633  -0.883  52.433  1.00  0.00     0.160 HD
ENDROOT
BRANCH   1  20
HETATM   20  C1  UNL     1      21.319  -0.198  54.834  1.00  0.00     0.239 C 
BRANCH  20  21
HETATM   21  N1  UNL     1      21.794  -1.557  54.924  1.00  0.00    -0.135 NA
HETATM   22  O1  UNL     1      22.692  -1.884  55.653  1.00  0.00    -0.067 OA
ENDBRANCH  20  21
ENDBRANCH   1  20
BRANCH   7  23
HETATM   23  O2  UNL     1      21.077   3.171  48.056  1.00  0.00    -0.364 OA
HETATM   24  H7  UNL     1      21.220   2.534  47.269  1.00  0.00     0.217 HD
ENDBRANCH   7  23
TORSDOF 3
ENDMDL
MODEL 3
REMARK VINA RESULT:      -6.9      2.263      3.483
REMARK  3 active torsions:
REMARK  status: ('A' for Active; 'I' for Inactive)
REMARK    1  A    between atoms: N1_2  and  C1_3 
REMARK    2  A    between atoms: C1_3  and  C2_4 
REMARK    3  A    between atoms: C8_10  and  O2_11 
ROOT
HETATM    1  C2  UNL     1      25.859   1.903  52.833  1.00  0.00     0.028 C 
HETATM    2  C3  UNL     1      25.247   2.655  53.729  1.00  0.00     0.037 C 
HETATM    3  C4  UNL     1      23.935   2.907  53.073  1.00  0.00    -0.037 C 
HETATM    4  C5  UNL     1      23.763   4.225  52.857  1.00  0.00     0.004 C 
HETATM    5  C6  UNL     1      23.184   5.128  51.822  1.00  0.00     0.100 C 
HETATM    6  C7  UNL     1      22.085   4.404  51.080  1.00  0.00     0.025 C 
HETATM    7  C8  UNL     1      21.749   3.182  50.542  1.00  0.00     0.050 C 
HETATM    8  C9  UNL     1      22.783   2.032  50.227  1.00  0.00     0.081 A 
HETATM    9  C10 UNL     1      22.789   1.252  51.474  1.00  0.00    -0.013 C 
HETATM   10  C11 UNL     1      23.031   1.767  52.712  1.00  0.00     0.008 C 
HETATM   11  C12 UNL     1      24.030   2.940  50.044  1.00  0.00    -0.008 A 
HETATM   12  C13 UNL     1      24.464   2.070  50.809  1.00  0.00     0.135 A 
HETATM   13  N2  UNL     1      25.393   1.436  51.588  1.00  0.00    -0.385 N 
HETATM   14  C14 UNL     1      23.646   4.101  49.281  1.00  0.00     0.034 C 
HETATM   15  C15 UNL     1      22.972   4.356  48.212  1.00  0.00    -0.000 C 
HETATM   16  C16 UNL     1      23.016   5.811  48.098  1.00  0.00    -0.019 C 
HETATM   17  C17 UNL     1      23.660   6.353  49.160  1.00  0.00     0.042 C 
HETATM   18  S1  UNL     1      24.453   5.746  50.667  1.00  0.00    -0.129 SA
HETATM   19  H12 UNL     1      25.889   0.548  51.394  1.00  0.00     0.160 HD
ENDROOT
BRANCH   1  20
HETATM   20  C1  UNL     1      27.058   1.785  53.644  1.00  0.00     0.239 C 
BRANCH  20  21
HETATM   21  N1  UNL     1      26.811   0.981  54.816  1.00  0.00    -0.135 NA
HETATM   22  O1  UNL     1      27.291  -0.111  54.967  1.00  0.00    -0.067 OA
ENDBRANCH  20  21
ENDBRANCH   1  20
BRANCH   7  23
HETATM   23  O2  UNL     1      20.384   3.104  50.319  1.00  0.00    -0.364 OA
HETATM   24  H7  UNL     1      19.755   3.830  50.670  1.00  0.00     0.217 HD
ENDBRANCH   7  23
TORSDOF 3
ENDMDL
MODEL 4
REMARK VINA RESULT:      -6.9      9.586     11.448
REMARK  3 active torsions:
REMARK  status: ('A' for Active; 'I' for Inactive)
REMARK    1  A    between atoms: N1_2  and  C1_3 
REMARK    2  A    between atoms: C1_3  and  C2_4 
REMARK    3  A    between atoms: C8_10  and  O2_11 
ROOT
HETATM    1  C2  UNL     1      34.059   7.997  45.706  1.00  0.00     0.028 C 
HETATM    2  C3  UNL     1      34.078   8.977  46.591  1.00  0.00     0.037 C 
HETATM    3  C4  UNL     1      33.479   8.324  47.785  1.00  0.00    -0.037 C 
HETATM    4  C5  UNL     1      32.338   8.948  48.139  1.00  0.00     0.004 C 
HETATM    5  C6  UNL     1      30.987   8.606  48.668  1.00  0.00     0.100 C 
HETATM    6  C7  UNL     1      31.070   7.330  49.474  1.00  0.00     0.025 C 
HETATM    7  C8  UNL     1      31.654   6.084  49.493  1.00  0.00     0.050 C 
HETATM    8  C9  UNL     1      32.309   5.387  48.237  1.00  0.00     0.081 A 
HETATM    9  C10 UNL     1      33.712   5.821  48.322  1.00  0.00    -0.013 C 
HETATM   10  C11 UNL     1      34.122   7.118  48.400  1.00  0.00     0.008 C 
HETATM   11  C12 UNL     1      31.483   6.133  47.152  1.00  0.00    -0.008 A 
HETATM   12  C13 UNL     1      32.635   6.259  46.720  1.00  0.00     0.135 A 
HETATM   13  N2  UNL     1      33.611   6.668  45.852  1.00  0.00    -0.385 N 
HETATM   14  C14 UNL     1      30.111   6.201  47.585  1.00  0.00     0.034 C 
HETATM   15  C15 UNL     1      29.231   5.404  48.089  1.00  0.00    -0.000 C 
HETATM   16  C16 UNL     1      28.050   6.244  48.275  1.00  0.00    -0.019 C 
HETATM   17  C17 UNL     1      28.320   7.527  47.936  1.00  0.00     0.042 C 
HETATM   18  S1  UNL     1      29.751   8.457  47.337  1.00  0.00    -0.129 SA
HETATM   19  H12 UNL     1      34.154   6.092  45.184  1.00  0.00     0.160 HD
ENDROOT
BRANCH   1  20
HETATM   20  C1  UNL     1      34.660   8.820  44.672  1.00  0.00     0.239 C 
BRANCH  20  21
HETATM   21  N1  UNL     1      35.770   9.578  45.195  1.00  0.00    -0.135 NA
HETATM   22  O1  UNL     1      36.693   9.933  44.512  1.00  0.00    -0.067 OA
ENDBRANCH  20  21
ENDBRANCH   1  20
BRANCH   7  23
HETATM   23  O2  UNL     1      31.586   5.530  50.761  1.00  0.00    -0.364 OA
HETATM   24  H7  UNL     1      31.832   4.550  50.916  1.00  0.00     0.217 HD
ENDBRANCH   7  23
TORSDOF 3
ENDMDL
MODEL 5
REMARK VINA RESULT:      -6.7      3.242      5.355
REMARK  3 active torsions:
REMARK  status: ('A' for Active; 'I' for Inactive)
REMARK    1  A    between atoms: N1_2  and  C1_3 
REMARK    2  A    between atoms: C1_3  and  C2_4 
REMARK    3  A    between atoms: C8_10  and  O2_11 
ROOT
HETATM    1  C2  UNL     1      20.503   1.886  51.744  1.00  0.00     0.028 C 
HETATM    2  C3  UNL     1      20.946   1.106  50.776  1.00  0.00     0.037 C 
HETATM    3  C4  UNL     1      22.380   1.494  50.701  1.00  0.00    -0.037 C 
HETATM    4  C5  UNL     1      22.667   2.006  49.489  1.00  0.00     0.004 C 
HETATM    5  C6  UNL     1      23.505   3.086  48.894  1.00  0.00     0.100 C 
HETATM    6  C7  UNL     1      24.698   3.344  49.784  1.00  0.00     0.025 C 
HETATM    7  C8  UNL     1      25.077   3.452  51.103  1.00  0.00     0.050 C 
HETATM    8  C9  UNL     1      24.075   3.676  52.302  1.00  0.00     0.081 A 
HETATM    9  C10 UNL     1      23.755   2.301  52.718  1.00  0.00    -0.013 C 
HETATM   10  C11 UNL     1      23.278   1.330  51.890  1.00  0.00     0.008 C 
HETATM   11  C12 UNL     1      22.948   4.366  51.484  1.00  0.00    -0.008 A 
HETATM   12  C13 UNL     1      22.311   3.517  52.119  1.00  0.00     0.135 A 
HETATM   13  N2  UNL     1      21.203   2.827  52.526  1.00  0.00    -0.385 N 
HETATM   14  C14 UNL     1      23.551   5.302  50.569  1.00  0.00     0.034 C 
HETATM   15  C15 UNL     1      24.455   6.221  50.607  1.00  0.00    -0.000 C 
HETATM   16  C16 UNL     1      24.516   6.721  49.236  1.00  0.00    -0.019 C 
HETATM   17  C17 UNL     1      23.686   6.012  48.433  1.00  0.00     0.042 C 
HETATM   18  S1  UNL     1      22.553   4.616  48.617  1.00  0.00    -0.129 SA
HETATM   19  H12 UNL     1      20.713   2.886  53.437  1.00  0.00     0.160 HD
ENDROOT
BRANCH   1  20
HETATM   20  C1  UNL     1      19.152   1.363  51.647  1.00  0.00     0.239 C 
BRANCH  20  21
HETATM   21  N1  UNL     1      18.188   2.433  51.572  1.00  0.00    -0.135 NA
HETATM   22  O1  UNL     1      18.398   3.529  52.018  1.00  0.00    -0.067 OA
ENDBRANCH  20  21
ENDBRANCH   1  20
BRANCH   7  23
HETATM   23  O2  UNL     1      26.451   3.335  51.230  1.00  0.00    -0.364 OA
HETATM   24  H7  UNL     1      26.870   3.036  52.113  1.00  0.00     0.217 HD
ENDBRANCH   7  23
TORSDOF 3
ENDMDL
MODEL 6
REMARK VINA RESULT:      -6.6      9.316     11.294
REMARK  3 active torsions:
REMARK  status: ('A' for Active; 'I' for Inactive)
REMARK    1  A    between atoms: N1_2  and  C1_3 
REMARK    2  A    between atoms: C1_3  and  C2_4 
REMARK    3  A    between atoms: C8_10  and  O2_11 
ROOT
HETATM    1  C2  UNL     1      34.034   7.712  45.639  1.00  0.00     0.028 C 
HETATM    2  C3  UNL     1      34.154   8.676  46.532  1.00  0.00     0.037 C 
HETATM    3  C4  UNL     1      33.551   8.053  47.741  1.00  0.00    -0.037 C 
HETATM    4  C5  UNL     1      32.471   8.752  48.141  1.00  0.00     0.004 C 
HETATM    5  C6  UNL     1      31.118   8.500  48.715  1.00  0.00     0.100 C 
HETATM    6  C7  UNL     1      31.138   7.212  49.504  1.00  0.00     0.025 C 
HETATM    7  C8  UNL     1      31.630   5.927  49.489  1.00  0.00     0.050 C 
HETATM    8  C9  UNL     1      32.190   5.201  48.203  1.00  0.00     0.081 A 
HETATM    9  C10 UNL     1      33.623   5.533  48.243  1.00  0.00    -0.013 C 
HETATM   10  C11 UNL     1      34.127   6.796  48.320  1.00  0.00     0.008 C 
HETATM   11  C12 UNL     1      31.382   6.018  47.156  1.00  0.00    -0.008 A 
HETATM   12  C13 UNL     1      32.525   6.068  46.685  1.00  0.00     0.135 A 
HETATM   13  N2  UNL     1      33.497   6.417  45.788  1.00  0.00    -0.385 N 
HETATM   14  C14 UNL     1      30.034   6.179  47.638  1.00  0.00     0.034 C 
HETATM   15  C15 UNL     1      29.118   5.440  48.165  1.00  0.00    -0.000 C 
HETATM   16  C16 UNL     1      28.008   6.359  48.402  1.00  0.00    -0.019 C 
HETATM   17  C17 UNL     1      28.357   7.624  48.066  1.00  0.00     0.042 C 
HETATM   18  S1  UNL     1      29.829   8.458  47.426  1.00  0.00    -0.129 SA
HETATM   19  H12 UNL     1      33.973   5.812  45.095  1.00  0.00     0.160 HD
ENDROOT
BRANCH   1  20
HETATM   20  C1  UNL     1      34.656   8.503  44.593  1.00  0.00     0.239 C 
BRANCH  20  21
HETATM   21  N1  UNL     1      34.730   7.760  43.359  1.00  0.00    -0.135 NA
HETATM   22  O1  UNL     1      33.761   7.289  42.825  1.00  0.00    -0.067 OA
ENDBRANCH  20  21
ENDBRANCH   1  20
BRANCH   7  23
HETATM   23  O2  UNL     1      31.567   5.363  50.753  1.00  0.00    -0.364 OA
HETATM   24  H7  UNL     1      31.986   5.836  51.557  1.00  0.00     0.217 HD
ENDBRANCH   7  23
TORSDOF 3
ENDMDL
MODEL 7
REMARK VINA RESULT:      -6.6      3.491      6.162
REMARK  3 active torsions:
REMARK  status: ('A' for Active; 'I' for Inactive)
REMARK    1  A    between atoms: N1_2  and  C1_3 
REMARK    2  A    between atoms: C1_3  and  C2_4 
REMARK    3  A    between atoms: C8_10  and  O2_11 
ROOT
HETATM    1  C2  UNL     1      21.764   3.461  47.550  1.00  0.00     0.028 C 
HETATM    2  C3  UNL     1      21.308   4.556  48.131  1.00  0.00     0.037 C 
HETATM    3  C4  UNL     1      22.035   4.541  49.428  1.00  0.00    -0.037 C 
HETATM    4  C5  UNL     1      21.166   4.459  50.454  1.00  0.00     0.004 C 
HETATM    5  C6  UNL     1      21.061   3.804  51.789  1.00  0.00     0.100 C 
HETATM    6  C7  UNL     1      22.445   3.591  52.356  1.00  0.00     0.025 C 
HETATM    7  C8  UNL     1      23.724   3.216  52.009  1.00  0.00     0.050 C 
HETATM    8  C9  UNL     1      24.099   2.450  50.681  1.00  0.00     0.081 A 
HETATM    9  C10 UNL     1      24.386   3.549  49.744  1.00  0.00    -0.013 C 
HETATM   10  C11 UNL     1      23.534   4.574  49.464  1.00  0.00     0.008 C 
HETATM   11  C12 UNL     1      22.720   1.772  50.454  1.00  0.00    -0.008 A 
HETATM   12  C13 UNL     1      22.952   2.247  49.336  1.00  0.00     0.135 A 
HETATM   13  N2  UNL     1      22.711   2.528  48.019  1.00  0.00    -0.385 N 
HETATM   14  C14 UNL     1      22.233   1.285  51.720  1.00  0.00     0.034 C 
HETATM   15  C15 UNL     1      22.694   0.622  52.725  1.00  0.00    -0.000 C 
HETATM   16  C16 UNL     1      21.568   0.543  53.651  1.00  0.00    -0.019 C 
HETATM   17  C17 UNL     1      20.507   1.235  53.171  1.00  0.00     0.042 C 
HETATM   18  S1  UNL     1      20.140   2.232  51.708  1.00  0.00    -0.129 SA
HETATM   19  H12 UNL     1      23.163   2.113  47.184  1.00  0.00     0.160 HD
ENDROOT
BRANCH   1  20
HETATM   20  C1  UNL     1      20.959   3.669  46.360  1.00  0.00     0.239 C 
BRANCH  20  21
HETATM   21  N1  UNL     1      21.780   3.663  45.174  1.00  0.00    -0.135 NA
HETATM   22  O1  UNL     1      21.318   3.642  44.064  1.00  0.00    -0.067 OA
ENDBRANCH  20  21
ENDBRANCH   1  20
BRANCH   7  23
HETATM   23  O2  UNL     1      24.629   3.604  52.984  1.00  0.00    -0.364 OA
HETATM   24  H7  UNL     1      25.595   3.270  52.961  1.00  0.00     0.217 HD
ENDBRANCH   7  23
TORSDOF 3
ENDMDL
MODEL 8
REMARK VINA RESULT:      -6.4      8.907     11.268
REMARK  3 active torsions:
REMARK  status: ('A' for Active; 'I' for Inactive)
REMARK    1  A    between atoms: N1_2  and  C1_3 
REMARK    2  A    between atoms: C1_3  and  C2_4 
REMARK    3  A    between atoms: C8_10  and  O2_11 
ROOT
HETATM    1  C2  UNL     1      28.512   8.776  48.348  1.00  0.00     0.028 C 
HETATM    2  C3  UNL     1      28.415   8.475  47.066  1.00  0.00     0.037 C 
HETATM    3  C4  UNL     1      29.522   7.495  46.897  1.00  0.00    -0.037 C 
HETATM    4  C5  UNL     1      30.430   7.958  46.016  1.00  0.00     0.004 C 
HETATM    5  C6  UNL     1      31.908   7.961  45.822  1.00  0.00     0.100 C 
HETATM    6  C7  UNL     1      32.505   6.740  46.482  1.00  0.00     0.025 C 
HETATM    7  C8  UNL     1      32.416   5.950  47.606  1.00  0.00     0.050 C 
HETATM    8  C9  UNL     1      31.704   6.384  48.946  1.00  0.00     0.081 A 
HETATM    9  C10 UNL     1      30.327   5.906  48.751  1.00  0.00    -0.013 C 
HETATM   10  C11 UNL     1      29.539   6.220  47.684  1.00  0.00     0.008 C 
HETATM   11  C12 UNL     1      31.872   7.919  48.764  1.00  0.00    -0.008 A 
HETATM   12  C13 UNL     1      30.673   7.831  49.058  1.00  0.00     0.135 A 
HETATM   13  N2  UNL     1      29.410   8.286  49.317  1.00  0.00    -0.385 N 
HETATM   14  C14 UNL     1      33.200   8.181  48.272  1.00  0.00     0.034 C 
HETATM   15  C15 UNL     1      34.405   7.812  48.543  1.00  0.00    -0.000 C 
HETATM   16  C16 UNL     1      35.227   8.517  47.563  1.00  0.00    -0.019 C 
HETATM   17  C17 UNL     1      34.447   9.219  46.705  1.00  0.00     0.042 C 
HETATM   18  S1  UNL     1      32.677   9.488  46.456  1.00  0.00    -0.129 SA
HETATM   19  H12 UNL     1      28.928   8.348  50.232  1.00  0.00     0.160 HD
ENDROOT
BRANCH   1  20
HETATM   20  C1  UNL     1      27.392   9.700  48.290  1.00  0.00     0.239 C 
BRANCH  20  21
HETATM   21  N1  UNL     1      27.205  10.364  49.557  1.00  0.00    -0.135 NA
HETATM   22  O1  UNL     1      27.140   9.768  50.599  1.00  0.00    -0.067 OA
ENDBRANCH  20  21
ENDBRANCH   1  20
BRANCH   7  23
HETATM   23  O2  UNL     1      33.034   4.729  47.396  1.00  0.00    -0.364 OA
HETATM   24  H7  UNL     1      32.968   4.258  46.490  1.00  0.00     0.217 HD
ENDBRANCH   7  23
TORSDOF 3
ENDMDL
MODEL 9
REMARK VINA RESULT:      -6.2     21.074     23.004
REMARK  3 active torsions:
REMARK  status: ('A' for Active; 'I' for Inactive)
REMARK    1  A    between atoms: N1_2  and  C1_3 
REMARK    2  A    between atoms: C1_3  and  C2_4 
REMARK    3  A    between atoms: C8_10  and  O2_11 
ROOT
HETATM    1  C2  UNL     1      38.612  -4.256  67.366  1.00  0.00     0.028 C 
HETATM    2  C3  UNL     1      38.412  -4.309  68.670  1.00  0.00     0.037 C 
HETATM    3  C4  UNL     1      38.661  -2.900  69.076  1.00  0.00    -0.037 C 
HETATM    4  C5  UNL     1      39.701  -2.833  69.930  1.00  0.00     0.004 C 
HETATM    5  C6  UNL     1      40.859  -1.940  70.224  1.00  0.00     0.100 C 
HETATM    6  C7  UNL     1      40.519  -0.525  69.819  1.00  0.00     0.025 C 
HETATM    7  C8  UNL     1      39.896   0.213  68.837  1.00  0.00     0.050 C 
HETATM    8  C9  UNL     1      39.550  -0.333  67.397  1.00  0.00     0.081 A 
HETATM    9  C10 UNL     1      38.191  -0.869  67.572  1.00  0.00    -0.013 C 
HETATM   10  C11 UNL     1      37.831  -1.785  68.514  1.00  0.00     0.008 C 
HETATM   11  C12 UNL     1      40.655  -1.424  67.334  1.00  0.00    -0.008 A 
HETATM   12  C13 UNL     1      39.656  -2.059  66.975  1.00  0.00     0.135 A 
HETATM   13  N2  UNL     1      38.950  -3.153  66.557  1.00  0.00    -0.385 N 
HETATM   14  C14 UNL     1      41.875  -0.874  67.868  1.00  0.00     0.034 C 
HETATM   15  C15 UNL     1      42.563   0.210  67.746  1.00  0.00    -0.000 C 
HETATM   16  C16 UNL     1      43.693   0.022  68.652  1.00  0.00    -0.019 C 
HETATM   17  C17 UNL     1      43.574  -1.148  69.325  1.00  0.00     0.042 C 
HETATM   18  S1  UNL     1      42.384  -2.507  69.402  1.00  0.00    -0.129 SA
HETATM   19  H12 UNL     1      38.569  -3.345  65.613  1.00  0.00     0.160 HD
ENDROOT
BRANCH   1  20
HETATM   20  C1  UNL     1      38.329  -5.670  67.192  1.00  0.00     0.239 C 
BRANCH  20  21
HETATM   21  N1  UNL     1      38.773  -6.130  65.899  1.00  0.00    -0.135 NA
HETATM   22  O1  UNL     1      38.496  -5.561  64.877  1.00  0.00    -0.067 OA
ENDBRANCH  20  21
ENDBRANCH   1  20
BRANCH   7  23
HETATM   23  O2  UNL     1      39.616   1.492  69.289  1.00  0.00    -0.364 OA
HETATM   24  H7  UNL     1      39.141   1.638  70.182  1.00  0.00     0.217 HD
ENDBRANCH   7  23
TORSDOF 3
ENDMDL
