MODEL 1
REMARK VINA RESULT:      -8.6      0.000      0.000
REMARK  4 active torsions:
REMARK  status: ('A' for Active; 'I' for Inactive)
REMARK    1  A    between atoms: N1_1  and  C1_2 
REMARK    2  A    between atoms: C2_4  and  N3_5 
REMARK    3  A    between atoms: N3_5  and  C3_6 
REMARK    4  A    between atoms: C11_15  and  C12_16 
ROOT
HETATM    1  C1  UNL     1      24.168   3.667  52.240  1.00  0.00     0.723 C 
HETATM    2  N2  UNL     1      24.730   3.081  51.250  1.00  0.00    -0.044 NA
HETATM    3  C2  UNL     1      26.126   2.904  51.288  1.00  0.00     0.158 C 
HETATM    4  C9  UNL     1      26.415   2.747  50.009  1.00  0.00     0.023 C 
HETATM    5  C10 UNL     1      25.765   3.535  49.188  1.00  0.00     0.019 C 
HETATM    6  C11 UNL     1      25.082   4.780  49.434  1.00  0.00     0.139 C 
HETATM    7  N4  UNL     1      24.010   4.908  50.334  1.00  0.00    -0.372 N 
HETATM    8  C18 UNL     1      22.682   4.366  50.530  1.00  0.00     0.223 C 
HETATM    9  N5  UNL     1      22.835   3.655  51.647  1.00  0.00    -0.059 NA
HETATM   10  H14 UNL     1      24.261   5.615  51.074  1.00  0.00     0.161 HD
ENDROOT
BRANCH   3  11
HETATM   11  N3  UNL     1      27.184   2.858  52.248  1.00  0.00    -0.340 N 
HETATM   12  H3  UNL     1      27.587   3.741  52.593  1.00  0.00     0.167 HD
BRANCH  11  13
HETATM   13  C3  UNL     1      27.659   1.616  52.707  1.00  0.00     0.036 A 
HETATM   14  C4  UNL     1      28.826   1.561  53.471  1.00  0.00     0.029 A 
HETATM   15  C5  UNL     1      29.305   0.352  53.928  1.00  0.00     0.005 A 
HETATM   16  C6  UNL     1      28.609  -0.773  53.612  1.00  0.00     0.042 A 
HETATM   17  C7  UNL     1      27.452  -0.771  52.861  1.00  0.00     0.118 A 
HETATM   18  F1  UNL     1      26.735  -1.890  52.532  1.00  0.00    -0.206 F 
HETATM   19  C8  UNL     1      26.977   0.440  52.406  1.00  0.00     0.071 A 
ENDBRANCH  11  13
ENDBRANCH   3  11
BRANCH   1  20
HETATM   20  N1  UNL     1      23.788   4.342  53.457  1.00  0.00    -0.231 N 
HETATM   21  H1  UNL     1      23.250   3.761  54.137  1.00  0.00     0.174 HD
HETATM   22  H2  UNL     1      24.111   5.353  53.503  1.00  0.00     0.174 HD
ENDBRANCH   1  20
BRANCH   6  23
HETATM   23  C12 UNL     1      25.977   5.982  49.387  1.00  0.00    -0.032 A 
HETATM   24  C13 UNL     1      25.629   7.062  50.152  1.00  0.00     0.011 A 
HETATM   25  C14 UNL     1      26.481   8.155  50.082  1.00  0.00     0.024 A 
HETATM   26  C15 UNL     1      27.612   8.156  49.290  1.00  0.00     0.034 A 
HETATM   27 CL1  UNL     1      28.642   9.581  49.255  1.00  0.00    -0.084 Cl
HETATM   28  C16 UNL     1      27.936   7.051  48.529  1.00  0.00     0.024 A 
HETATM   29  C17 UNL     1      27.103   5.952  48.582  1.00  0.00     0.011 A 
ENDBRANCH   6  23
TORSDOF 4
ENDMDL
MODEL 2
REMARK VINA RESULT:      -8.6      1.578      1.870
REMARK  4 active torsions:
REMARK  status: ('A' for Active; 'I' for Inactive)
REMARK    1  A    between atoms: N1_1  and  C1_2 
REMARK    2  A    between atoms: C2_4  and  N3_5 
REMARK    3  A    between atoms: N3_5  and  C3_6 
REMARK    4  A    between atoms: C11_15  and  C12_16 
ROOT
HETATM    1  C1  UNL     1      23.544   4.802  52.308  1.00  0.00     0.723 C 
HETATM    2  N2  UNL     1      23.673   4.211  51.179  1.00  0.00    -0.044 NA
HETATM    3  C2  UNL     1      24.881   3.540  50.913  1.00  0.00     0.158 C 
HETATM    4  C9  UNL     1      24.879   3.487  49.595  1.00  0.00     0.023 C 
HETATM    5  C10 UNL     1      24.457   4.571  48.992  1.00  0.00     0.019 C 
HETATM    6  C11 UNL     1      24.351   5.925  49.474  1.00  0.00     0.139 C 
HETATM    7  N4  UNL     1      23.569   6.291  50.582  1.00  0.00    -0.372 N 
HETATM    8  C18 UNL     1      22.184   6.241  51.003  1.00  0.00     0.223 C 
HETATM    9  N5  UNL     1      22.232   5.361  52.003  1.00  0.00    -0.059 NA
HETATM   10  H14 UNL     1      24.186   6.739  51.310  1.00  0.00     0.161 HD
ENDROOT
BRANCH   3  11
HETATM   11  N3  UNL     1      25.981   2.970  51.628  1.00  0.00    -0.340 N 
HETATM   12  H3  UNL     1      26.836   3.527  51.759  1.00  0.00     0.167 HD
BRANCH  11  13
HETATM   13  C3  UNL     1      25.881   1.664  52.140  1.00  0.00     0.036 A 
HETATM   14  C4  UNL     1      26.890   0.737  51.875  1.00  0.00     0.029 A 
HETATM   15  C5  UNL     1      26.807  -0.547  52.369  1.00  0.00     0.005 A 
HETATM   16  C6  UNL     1      25.720  -0.876  53.116  1.00  0.00     0.042 A 
HETATM   17  C7  UNL     1      24.696   0.003  53.407  1.00  0.00     0.118 A 
HETATM   18  F1  UNL     1      23.594  -0.306  54.157  1.00  0.00    -0.206 F 
HETATM   19  C8  UNL     1      24.784   1.286  52.910  1.00  0.00     0.071 A 
ENDBRANCH  11  13
ENDBRANCH   3  11
BRANCH   1  20
HETATM   20  N1  UNL     1      23.652   5.373  53.628  1.00  0.00    -0.231 N 
HETATM   21  H1  UNL     1      22.897   6.047  53.883  1.00  0.00     0.174 HD
HETATM   22  H2  UNL     1      24.495   5.028  54.174  1.00  0.00     0.174 HD
ENDBRANCH   1  20
BRANCH   6  23
HETATM   23  C12 UNL     1      25.617   6.717  49.341  1.00  0.00    -0.032 A 
HETATM   24  C13 UNL     1      25.765   7.817  50.142  1.00  0.00     0.011 A 
HETATM   25  C14 UNL     1      26.949   8.524  49.990  1.00  0.00     0.024 A 
HETATM   26  C15 UNL     1      27.921   8.143  49.088  1.00  0.00     0.034 A 
HETATM   27 CL1  UNL     1      29.397   9.092  48.954  1.00  0.00    -0.084 Cl
HETATM   28  C16 UNL     1      27.744   7.029  48.293  1.00  0.00     0.024 A 
HETATM   29  C17 UNL     1      26.573   6.310  48.426  1.00  0.00     0.011 A 
ENDBRANCH   6  23
TORSDOF 4
ENDMDL
MODEL 3
REMARK VINA RESULT:      -8.6      1.461      1.863
REMARK  4 active torsions:
REMARK  status: ('A' for Active; 'I' for Inactive)
REMARK    1  A    between atoms: N1_1  and  C1_2 
REMARK    2  A    between atoms: C2_4  and  N3_5 
REMARK    3  A    between atoms: N3_5  and  C3_6 
REMARK    4  A    between atoms: C11_15  and  C12_16 
ROOT
HETATM    1  C1  UNL     1      23.770   4.453  52.754  1.00  0.00     0.723 C 
HETATM    2  N2  UNL     1      23.869   3.464  51.946  1.00  0.00    -0.044 NA
HETATM    3  C2  UNL     1      25.085   2.757  51.906  1.00  0.00     0.158 C 
HETATM    4  C9  UNL     1      25.028   2.184  50.719  1.00  0.00     0.023 C 
HETATM    5  C10 UNL     1      24.547   2.934  49.758  1.00  0.00     0.019 C 
HETATM    6  C11 UNL     1      24.419   4.367  49.668  1.00  0.00     0.139 C 
HETATM    7  N4  UNL     1      23.674   5.134  50.580  1.00  0.00    -0.372 N 
HETATM    8  C18 UNL     1      22.310   5.238  51.058  1.00  0.00     0.223 C 
HETATM    9  N5  UNL     1      22.429   4.829  52.320  1.00  0.00    -0.059 NA
HETATM   10  H14 UNL     1      24.307   5.842  51.037  1.00  0.00     0.161 HD
ENDROOT
BRANCH   3  11
HETATM   11  N3  UNL     1      26.232   2.531  52.730  1.00  0.00    -0.340 N 
HETATM   12  H3  UNL     1      26.657   3.328  53.226  1.00  0.00     0.167 HD
BRANCH  11  13
HETATM   13  C3  UNL     1      26.762   1.235  52.853  1.00  0.00     0.036 A 
HETATM   14  C4  UNL     1      25.919   0.129  52.737  1.00  0.00     0.029 A 
HETATM   15  C5  UNL     1      26.421  -1.149  52.855  1.00  0.00     0.005 A 
HETATM   16  C6  UNL     1      27.754  -1.293  53.085  1.00  0.00     0.042 A 
HETATM   17  C7  UNL     1      28.629  -0.233  53.208  1.00  0.00     0.118 A 
HETATM   18  F1  UNL     1      29.972  -0.355  53.439  1.00  0.00    -0.206 F 
HETATM   19  C8  UNL     1      28.121   1.043  53.090  1.00  0.00     0.071 A 
ENDBRANCH  11  13
ENDBRANCH   3  11
BRANCH   1  20
HETATM   20  N1  UNL     1      23.916   5.503  53.731  1.00  0.00    -0.231 N 
HETATM   21  H1  UNL     1      23.882   5.191  54.726  1.00  0.00     0.174 HD
HETATM   22  H2  UNL     1      24.041   6.468  53.304  1.00  0.00     0.174 HD
ENDBRANCH   1  20
BRANCH   6  23
HETATM   23  C12 UNL     1      25.652   5.056  49.167  1.00  0.00    -0.032 A 
HETATM   24  C13 UNL     1      25.547   6.377  48.827  1.00  0.00     0.011 A 
HETATM   25  C14 UNL     1      26.709   6.980  48.368  1.00  0.00     0.024 A 
HETATM   26  C15 UNL     1      27.901   6.292  48.259  1.00  0.00     0.034 A 
HETATM   27 CL1  UNL     1      29.332   7.126  47.667  1.00  0.00    -0.084 Cl
HETATM   28  C16 UNL     1      27.976   4.959  48.609  1.00  0.00     0.024 A 
HETATM   29  C17 UNL     1      26.832   4.338  49.068  1.00  0.00     0.011 A 
ENDBRANCH   6  23
TORSDOF 4
ENDMDL
MODEL 4
REMARK VINA RESULT:      -8.4      3.233      5.404
REMARK  4 active torsions:
REMARK  status: ('A' for Active; 'I' for Inactive)
REMARK    1  A    between atoms: N1_1  and  C1_2 
REMARK    2  A    between atoms: C2_4  and  N3_5 
REMARK    3  A    between atoms: N3_5  and  C3_6 
REMARK    4  A    between atoms: C11_15  and  C12_16 
ROOT
HETATM    1  C1  UNL     1      24.086   5.635  51.216  1.00  0.00     0.723 C 
HETATM    2  N2  UNL     1      23.787   4.703  50.391  1.00  0.00    -0.044 NA
HETATM    3  C2  UNL     1      23.055   3.600  50.870  1.00  0.00     0.158 C 
HETATM    4  C9  UNL     1      23.337   2.675  49.972  1.00  0.00     0.023 C 
HETATM    5  C10 UNL     1      24.583   2.649  49.568  1.00  0.00     0.019 C 
HETATM    6  C11 UNL     1      25.774   3.181  50.181  1.00  0.00     0.139 C 
HETATM    7  N4  UNL     1      25.946   4.543  50.479  1.00  0.00    -0.372 N 
HETATM    8  C18 UNL     1      25.970   5.816  49.788  1.00  0.00     0.223 C 
HETATM    9  N5  UNL     1      24.868   6.403  50.253  1.00  0.00    -0.059 NA
HETATM   10  H14 UNL     1      26.113   4.653  51.514  1.00  0.00     0.161 HD
ENDROOT
BRANCH   3  11
HETATM   11  N3  UNL     1      22.186   3.269  51.957  1.00  0.00    -0.340 N 
HETATM   12  H3  UNL     1      21.582   4.001  52.356  1.00  0.00     0.167 HD
BRANCH  11  13
HETATM   13  C3  UNL     1      22.168   1.958  52.464  1.00  0.00     0.036 A 
HETATM   14  C4  UNL     1      21.007   1.190  52.355  1.00  0.00     0.029 A 
HETATM   15  C5  UNL     1      20.972  -0.097  52.846  1.00  0.00     0.005 A 
HETATM   16  C6  UNL     1      22.095  -0.588  53.435  1.00  0.00     0.042 A 
HETATM   17  C7  UNL     1      23.266   0.130  53.568  1.00  0.00     0.118 A 
HETATM   18  F1  UNL     1      24.408  -0.344  54.155  1.00  0.00    -0.206 F 
HETATM   19  C8  UNL     1      23.296   1.416  53.074  1.00  0.00     0.071 A 
ENDBRANCH  11  13
ENDBRANCH   3  11
BRANCH   1  20
HETATM   20  N1  UNL     1      24.287   6.532  52.328  1.00  0.00    -0.231 N 
HETATM   21  H1  UNL     1      25.231   6.486  52.769  1.00  0.00     0.174 HD
HETATM   22  H2  UNL     1      23.438   7.130  52.553  1.00  0.00     0.174 HD
ENDBRANCH   1  20
BRANCH   6  23
HETATM   23  C12 UNL     1      26.404   2.260  51.181  1.00  0.00    -0.032 A 
HETATM   24  C13 UNL     1      27.140   2.824  52.188  1.00  0.00     0.011 A 
HETATM   25  C14 UNL     1      27.707   1.940  53.094  1.00  0.00     0.024 A 
HETATM   26  C15 UNL     1      27.541   0.573  52.990  1.00  0.00     0.034 A 
HETATM   27 CL1  UNL     1      28.292  -0.483  54.179  1.00  0.00    -0.084 Cl
HETATM   28  C16 UNL     1      26.793   0.033  51.963  1.00  0.00     0.024 A 
HETATM   29  C17 UNL     1      26.219   0.894  51.049  1.00  0.00     0.011 A 
ENDBRANCH   6  23
TORSDOF 4
ENDMDL
MODEL 5
REMARK VINA RESULT:      -8.4      3.671      6.637
REMARK  4 active torsions:
REMARK  status: ('A' for Active; 'I' for Inactive)
REMARK    1  A    between atoms: N1_1  and  C1_2 
REMARK    2  A    between atoms: C2_4  and  N3_5 
REMARK    3  A    between atoms: N3_5  and  C3_6 
REMARK    4  A    between atoms: C11_15  and  C12_16 
ROOT
HETATM    1  C1  UNL     1      22.034   1.396  51.161  1.00  0.00     0.723 C 
HETATM    2  N2  UNL     1      22.592   2.434  51.663  1.00  0.00    -0.044 NA
HETATM    3  C2  UNL     1      23.706   2.978  50.997  1.00  0.00     0.158 C 
HETATM    4  C9  UNL     1      24.294   3.660  51.962  1.00  0.00     0.023 C 
HETATM    5  C10 UNL     1      24.315   3.070  53.131  1.00  0.00     0.019 C 
HETATM    6  C11 UNL     1      24.156   1.680  53.477  1.00  0.00     0.139 C 
HETATM    7  N4  UNL     1      23.004   0.935  53.172  1.00  0.00    -0.372 N 
HETATM    8  C18 UNL     1      21.582   0.965  53.448  1.00  0.00     0.223 C 
HETATM    9  N5  UNL     1      21.074   1.238  52.247  1.00  0.00    -0.059 NA
HETATM   10  H14 UNL     1      23.272   0.113  52.570  1.00  0.00     0.161 HD
ENDROOT
BRANCH   3  11
HETATM   11  N3  UNL     1      24.292   2.978  49.692  1.00  0.00    -0.340 N 
HETATM   12  H3  UNL     1      24.047   2.225  49.033  1.00  0.00     0.167 HD
BRANCH  11  13
HETATM   13  C3  UNL     1      25.188   3.998  49.327  1.00  0.00     0.036 A 
HETATM   14  C4  UNL     1      26.558   3.734  49.285  1.00  0.00     0.029 A 
HETATM   15  C5  UNL     1      27.450   4.723  48.929  1.00  0.00     0.005 A 
HETATM   16  C6  UNL     1      26.954   5.952  48.623  1.00  0.00     0.042 A 
HETATM   17  C7  UNL     1      25.610   6.263  48.650  1.00  0.00     0.118 A 
HETATM   18  F1  UNL     1      25.089   7.492  48.346  1.00  0.00    -0.206 F 
HETATM   19  C8  UNL     1      24.722   5.271  49.006  1.00  0.00     0.071 A 
ENDBRANCH  11  13
ENDBRANCH   3  11
BRANCH   1  20
HETATM   20  N1  UNL     1      21.598   0.251  50.401  1.00  0.00    -0.231 N 
HETATM   21  H1  UNL     1      20.566   0.173  50.269  1.00  0.00     0.174 HD
HETATM   22  H2  UNL     1      22.394  -0.370  50.070  1.00  0.00     0.174 HD
ENDBRANCH   1  20
BRANCH   6  23
HETATM   23  C12 UNL     1      25.425   0.886  53.399  1.00  0.00    -0.032 A 
HETATM   24  C13 UNL     1      26.375   1.111  54.359  1.00  0.00     0.011 A 
HETATM   25  C14 UNL     1      27.535   0.358  54.253  1.00  0.00     0.024 A 
HETATM   26  C15 UNL     1      27.723  -0.564  53.243  1.00  0.00     0.034 A 
HETATM   27 CL1  UNL     1      29.223  -1.480  53.177  1.00  0.00    -0.084 Cl
HETATM   28  C16 UNL     1      26.747  -0.769  52.289  1.00  0.00     0.024 A 
HETATM   29  C17 UNL     1      25.584  -0.030  52.374  1.00  0.00     0.011 A 
ENDBRANCH   6  23
TORSDOF 4
ENDMDL
MODEL 6
REMARK VINA RESULT:      -8.3      3.653      5.635
REMARK  4 active torsions:
REMARK  status: ('A' for Active; 'I' for Inactive)
REMARK    1  A    between atoms: N1_1  and  C1_2 
REMARK    2  A    between atoms: C2_4  and  N3_5 
REMARK    3  A    between atoms: N3_5  and  C3_6 
REMARK    4  A    between atoms: C11_15  and  C12_16 
ROOT
HETATM    1  C1  UNL     1      21.035   3.833  51.084  1.00  0.00     0.723 C 
HETATM    2  N2  UNL     1      21.756   3.609  50.050  1.00  0.00    -0.044 NA
HETATM    3  C2  UNL     1      22.021   2.272  49.701  1.00  0.00     0.158 C 
HETATM    4  C9  UNL     1      23.110   2.393  48.965  1.00  0.00     0.023 C 
HETATM    5  C10 UNL     1      23.990   3.257  49.406  1.00  0.00     0.019 C 
HETATM    6  C11 UNL     1      24.168   3.820  50.721  1.00  0.00     0.139 C 
HETATM    7  N4  UNL     1      23.175   4.561  51.384  1.00  0.00    -0.372 N 
HETATM    8  C18 UNL     1      22.401   5.769  51.185  1.00  0.00     0.223 C 
HETATM    9  N5  UNL     1      21.171   5.284  51.015  1.00  0.00    -0.059 NA
HETATM   10  H14 UNL     1      22.940   4.088  52.296  1.00  0.00     0.161 HD
ENDROOT
BRANCH   3  11
HETATM   11  N3  UNL     1      21.473   0.969  49.919  1.00  0.00    -0.340 N 
HETATM   12  H3  UNL     1      21.192   0.402  49.106  1.00  0.00     0.167 HD
BRANCH  11  13
HETATM   13  C3  UNL     1      21.324   0.482  51.229  1.00  0.00     0.036 A 
HETATM   14  C4  UNL     1      20.048   0.215  51.728  1.00  0.00     0.029 A 
HETATM   15  C5  UNL     1      19.884  -0.263  53.010  1.00  0.00     0.005 A 
HETATM   16  C6  UNL     1      20.998  -0.464  53.765  1.00  0.00     0.042 A 
HETATM   17  C7  UNL     1      22.280  -0.216  53.319  1.00  0.00     0.118 A 
HETATM   18  F1  UNL     1      23.414  -0.411  54.060  1.00  0.00    -0.206 F 
HETATM   19  C8  UNL     1      22.438   0.262  52.036  1.00  0.00     0.071 A 
ENDBRANCH  11  13
ENDBRANCH   3  11
BRANCH   1  20
HETATM   20  N1  UNL     1      20.211   3.813  52.268  1.00  0.00    -0.231 N 
HETATM   21  H1  UNL     1      20.680   3.458  53.129  1.00  0.00     0.174 HD
HETATM   22  H2  UNL     1      19.222   4.168  52.105  1.00  0.00     0.174 HD
ENDBRANCH   1  20
BRANCH   6  23
HETATM   23  C12 UNL     1      25.000   2.973  51.635  1.00  0.00    -0.032 A 
HETATM   24  C13 UNL     1      24.653   2.937  52.959  1.00  0.00     0.011 A 
HETATM   25  C14 UNL     1      25.447   2.143  53.773  1.00  0.00     0.024 A 
HETATM   26  C15 UNL     1      26.523   1.430  53.282  1.00  0.00     0.034 A 
HETATM   27 CL1  UNL     1      27.482   0.445  54.379  1.00  0.00    -0.084 Cl
HETATM   28  C16 UNL     1      26.849   1.487  51.942  1.00  0.00     0.024 A 
HETATM   29  C17 UNL     1      26.073   2.271  51.112  1.00  0.00     0.011 A 
ENDBRANCH   6  23
TORSDOF 4
ENDMDL
MODEL 7
REMARK VINA RESULT:      -8.3      4.232      6.769
REMARK  4 active torsions:
REMARK  status: ('A' for Active; 'I' for Inactive)
REMARK    1  A    between atoms: N1_1  and  C1_2 
REMARK    2  A    between atoms: C2_4  and  N3_5 
REMARK    3  A    between atoms: N3_5  and  C3_6 
REMARK    4  A    between atoms: C11_15  and  C12_16 
ROOT
HETATM    1  C1  UNL     1      21.841   2.874  48.982  1.00  0.00     0.723 C 
HETATM    2  N2  UNL     1      21.275   3.569  49.897  1.00  0.00    -0.044 NA
HETATM    3  C2  UNL     1      22.081   4.116  50.912  1.00  0.00     0.158 C 
HETATM    4  C9  UNL     1      21.203   4.318  51.877  1.00  0.00     0.023 C 
HETATM    5  C10 UNL     1      20.315   3.367  52.034  1.00  0.00     0.019 C 
HETATM    6  C11 UNL     1      20.338   1.990  51.610  1.00  0.00     0.139 C 
HETATM    7  N4  UNL     1      20.456   1.597  50.266  1.00  0.00    -0.372 N 
HETATM    8  C18 UNL     1      19.745   1.766  49.015  1.00  0.00     0.223 C 
HETATM    9  N5  UNL     1      20.596   2.515  48.314  1.00  0.00    -0.059 NA
HETATM   10  H14 UNL     1      21.316   0.999  50.153  1.00  0.00     0.161 HD
ENDROOT
BRANCH   3  11
HETATM   11  N3  UNL     1      23.450   4.466  51.136  1.00  0.00    -0.340 N 
HETATM   12  H3  UNL     1      23.780   5.399  50.852  1.00  0.00     0.167 HD
BRANCH  11  13
HETATM   13  C3  UNL     1      24.320   3.539  51.734  1.00  0.00     0.036 A 
HETATM   14  C4  UNL     1      24.277   3.339  53.115  1.00  0.00     0.029 A 
HETATM   15  C5  UNL     1      25.123   2.434  53.718  1.00  0.00     0.005 A 
HETATM   16  C6  UNL     1      25.994   1.749  52.929  1.00  0.00     0.042 A 
HETATM   17  C7  UNL     1      26.077   1.910  51.561  1.00  0.00     0.118 A 
HETATM   18  F1  UNL     1      26.944   1.232  50.748  1.00  0.00    -0.206 F 
HETATM   19  C8  UNL     1      25.228   2.816  50.963  1.00  0.00     0.071 A 
ENDBRANCH  11  13
ENDBRANCH   3  11
BRANCH   1  20
HETATM   20  N1  UNL     1      22.710   2.149  48.089  1.00  0.00    -0.231 N 
HETATM   21  H1  UNL     1      22.737   1.116  48.237  1.00  0.00     0.174 HD
HETATM   22  H2  UNL     1      23.214   2.768  47.388  1.00  0.00     0.174 HD
ENDBRANCH   1  20
BRANCH   6  23
HETATM   23  C12 UNL     1      21.034   1.072  52.570  1.00  0.00    -0.032 A 
HETATM   24  C13 UNL     1      22.175   0.451  52.140  1.00  0.00     0.011 A 
HETATM   25  C14 UNL     1      22.790  -0.391  53.055  1.00  0.00     0.024 A 
HETATM   26  C15 UNL     1      22.285  -0.591  54.324  1.00  0.00     0.034 A 
HETATM   27 CL1  UNL     1      23.122  -1.674  55.429  1.00  0.00    -0.084 Cl
HETATM   28  C16 UNL     1      21.131   0.050  54.730  1.00  0.00     0.024 A 
HETATM   29  C17 UNL     1      20.502   0.892  53.835  1.00  0.00     0.011 A 
ENDBRANCH   6  23
TORSDOF 4
ENDMDL
MODEL 8
REMARK VINA RESULT:      -8.1      3.409      5.957
REMARK  4 active torsions:
REMARK  status: ('A' for Active; 'I' for Inactive)
REMARK    1  A    between atoms: N1_1  and  C1_2 
REMARK    2  A    between atoms: C2_4  and  N3_5 
REMARK    3  A    between atoms: N3_5  and  C3_6 
REMARK    4  A    between atoms: C11_15  and  C12_16 
ROOT
HETATM    1  C1  UNL     1      22.666   6.269  50.485  1.00  0.00     0.723 C 
HETATM    2  N2  UNL     1      23.167   5.610  49.507  1.00  0.00    -0.044 NA
HETATM    3  C2  UNL     1      22.578   4.379  49.164  1.00  0.00     0.158 C 
HETATM    4  C9  UNL     1      23.559   3.779  48.516  1.00  0.00     0.023 C 
HETATM    5  C10 UNL     1      24.751   3.938  49.034  1.00  0.00     0.019 C 
HETATM    6  C11 UNL     1      25.146   4.324  50.365  1.00  0.00     0.139 C 
HETATM    7  N4  UNL     1      24.775   5.542  50.958  1.00  0.00    -0.372 N 
HETATM    8  C18 UNL     1      24.922   6.962  50.714  1.00  0.00     0.223 C 
HETATM    9  N5  UNL     1      23.669   7.327  50.443  1.00  0.00    -0.059 NA
HETATM   10  H14 UNL     1      24.237   5.348  51.844  1.00  0.00     0.161 HD
ENDROOT
BRANCH   3  11
HETATM   11  N3  UNL     1      21.332   3.695  49.323  1.00  0.00    -0.340 N 
HETATM   12  H3  UNL     1      20.605   3.806  48.601  1.00  0.00     0.167 HD
BRANCH  11  13
HETATM   13  C3  UNL     1      21.115   2.887  50.452  1.00  0.00     0.036 A 
HETATM   14  C4  UNL     1      20.498   3.427  51.582  1.00  0.00     0.029 A 
HETATM   15  C5  UNL     1      20.279   2.649  52.698  1.00  0.00     0.005 A 
HETATM   16  C6  UNL     1      20.680   1.350  52.661  1.00  0.00     0.042 A 
HETATM   17  C7  UNL     1      21.294   0.769  51.570  1.00  0.00     0.118 A 
HETATM   18  F1  UNL     1      21.705  -0.535  51.511  1.00  0.00    -0.206 F 
HETATM   19  C8  UNL     1      21.511   1.552  50.457  1.00  0.00     0.071 A 
ENDBRANCH  11  13
ENDBRANCH   3  11
BRANCH   1  20
HETATM   20  N1  UNL     1      21.925   6.803  51.600  1.00  0.00    -0.231 N 
HETATM   21  H1  UNL     1      22.353   7.636  52.060  1.00  0.00     0.174 HD
HETATM   22  H2  UNL     1      21.028   6.273  51.809  1.00  0.00     0.174 HD
ENDBRANCH   1  20
BRANCH   6  23
HETATM   23  C12 UNL     1      25.218   3.180  51.332  1.00  0.00    -0.032 A 
HETATM   24  C13 UNL     1      24.287   3.136  52.334  1.00  0.00     0.011 A 
HETATM   25  C14 UNL     1      24.387   2.064  53.208  1.00  0.00     0.024 A 
HETATM   26  C15 UNL     1      25.363   1.097  53.078  1.00  0.00     0.034 A 
HETATM   27 CL1  UNL     1      25.423  -0.233  54.227  1.00  0.00    -0.084 Cl
HETATM   28  C16 UNL     1      26.289   1.168  52.056  1.00  0.00     0.024 A 
HETATM   29  C17 UNL     1      26.210   2.227  51.174  1.00  0.00     0.011 A 
ENDBRANCH   6  23
TORSDOF 4
ENDMDL
MODEL 9
REMARK VINA RESULT:      -7.9      4.379      7.426
REMARK  4 active torsions:
REMARK  status: ('A' for Active; 'I' for Inactive)
REMARK    1  A    between atoms: N1_1  and  C1_2 
REMARK    2  A    between atoms: C2_4  and  N3_5 
REMARK    3  A    between atoms: N3_5  and  C3_6 
REMARK    4  A    between atoms: C11_15  and  C12_16 
ROOT
HETATM    1  C1  UNL     1      24.203   6.231  50.424  1.00  0.00     0.723 C 
HETATM    2  N2  UNL     1      23.696   5.721  49.364  1.00  0.00    -0.044 NA
HETATM    3  C2  UNL     1      22.304   5.519  49.323  1.00  0.00     0.158 C 
HETATM    4  C9  UNL     1      22.190   4.594  48.389  1.00  0.00     0.023 C 
HETATM    5  C10 UNL     1      23.099   3.651  48.422  1.00  0.00     0.019 C 
HETATM    6  C11 UNL     1      23.965   3.227  49.493  1.00  0.00     0.139 C 
HETATM    7  N4  UNL     1      24.890   4.078  50.121  1.00  0.00    -0.372 N 
HETATM    8  C18 UNL     1      26.041   4.884  49.770  1.00  0.00     0.223 C 
HETATM    9  N5  UNL     1      25.583   6.120  49.963  1.00  0.00    -0.059 NA
HETATM   10  H14 UNL     1      24.671   4.130  51.150  1.00  0.00     0.161 HD
ENDROOT
BRANCH   3  11
HETATM   11  N3  UNL     1      21.122   6.007  49.964  1.00  0.00    -0.340 N 
HETATM   12  H3  UNL     1      20.978   7.024  50.042  1.00  0.00     0.167 HD
BRANCH  11  13
HETATM   13  C3  UNL     1      20.177   5.100  50.475  1.00  0.00     0.036 A 
HETATM   14  C4  UNL     1      18.883   5.081  49.954  1.00  0.00     0.029 A 
HETATM   15  C5  UNL     1      17.945   4.197  50.443  1.00  0.00     0.005 A 
HETATM   16  C6  UNL     1      18.320   3.354  51.442  1.00  0.00     0.042 A 
HETATM   17  C7  UNL     1      19.586   3.334  51.992  1.00  0.00     0.118 A 
HETATM   18  F1  UNL     1      19.986   2.494  52.995  1.00  0.00    -0.206 F 
HETATM   19  C8  UNL     1      20.520   4.219  51.498  1.00  0.00     0.071 A 
ENDBRANCH  11  13
ENDBRANCH   3  11
BRANCH   1  20
HETATM   20  N1  UNL     1      24.515   6.812  51.706  1.00  0.00    -0.231 N 
HETATM   21  H1  UNL     1      24.854   6.138  52.427  1.00  0.00     0.174 HD
HETATM   22  H2  UNL     1      24.357   7.862  51.749  1.00  0.00     0.174 HD
ENDBRANCH   1  20
BRANCH   6  23
HETATM   23  C12 UNL     1      23.339   2.228  50.419  1.00  0.00    -0.032 A 
HETATM   24  C13 UNL     1      22.282   1.499  49.947  1.00  0.00     0.011 A 
HETATM   25  C14 UNL     1      21.730   0.586  50.834  1.00  0.00     0.024 A 
HETATM   26  C15 UNL     1      22.216   0.419  52.115  1.00  0.00     0.034 A 
HETATM   27 CL1  UNL     1      21.463  -0.760  53.180  1.00  0.00    -0.084 Cl
HETATM   28  C16 UNL     1      23.285   1.170  52.563  1.00  0.00     0.024 A 
HETATM   29  C17 UNL     1      23.850   2.085  51.698  1.00  0.00     0.011 A 
ENDBRANCH   6  23
TORSDOF 4
ENDMDL
