MODEL 1
REMARK VINA RESULT:      -7.3      0.000      0.000
REMARK  6 active torsions:
REMARK  status: ('A' for Active; 'I' for Inactive)
REMARK    1  A    between atoms: N1_2  and  C3_4 
REMARK    2  A    between atoms: C3_4  and  N2_5 
REMARK    3  A    between atoms: N2_5  and  C4_6 
REMARK    4  A    between atoms: C5_7  and  O1_8 
REMARK    5  A    between atoms: C7_12  and  N5_13 
REMARK    6  A    between atoms: N5_13  and  C8_14 
ROOT
HETATM    1  C4  UNL     1      27.283   1.257  52.946  1.00  0.00     0.129 A 
HETATM    2  C5  UNL     1      28.406   1.838  53.457  1.00  0.00     0.194 A 
HETATM    3  N3  UNL     1      29.042   1.346  54.523  1.00  0.00    -0.216 NA
HETATM    4  C6  UNL     1      28.543   0.233  55.103  1.00  0.00     0.238 A 
HETATM    5  N4  UNL     1      27.442  -0.327  54.592  1.00  0.00    -0.222 NA
HETATM    6  C7  UNL     1      26.767   0.124  53.528  1.00  0.00     0.160 A 
ENDROOT
BRANCH   6   7
HETATM    7  N5  UNL     1      25.606  -0.522  53.040  1.00  0.00    -0.339 N 
HETATM    8  H12 UNL     1      25.758  -1.181  52.264  1.00  0.00     0.167 HD
BRANCH   7   9
HETATM    9  C8  UNL     1      24.261  -0.397  53.464  1.00  0.00     0.035 A 
HETATM   10  C9  UNL     1      23.693  -1.015  54.553  1.00  0.00     0.032 A 
HETATM   11  C10 UNL     1      22.389  -0.891  54.958  1.00  0.00     0.046 A 
HETATM   12  C11 UNL     1      21.573  -0.075  54.209  1.00  0.00     0.138 A 
HETATM   13  F1  UNL     1      20.277   0.097  54.547  1.00  0.00    -0.204 F 
HETATM   14  C12 UNL     1      22.069   0.578  53.104  1.00  0.00     0.074 A 
HETATM   15 CL1  UNL     1      21.026   1.605  52.169  1.00  0.00    -0.081 Cl
HETATM   16  C13 UNL     1      23.372   0.398  52.775  1.00  0.00     0.056 A 
ENDBRANCH   7   9
ENDBRANCH   6   7
BRANCH   1  17
HETATM   17  N2  UNL     1      26.669   1.857  51.796  1.00  0.00    -0.358 N 
HETATM   18  H9  UNL     1      26.864   1.652  50.815  1.00  0.00     0.161 HD
BRANCH  17  19
HETATM   19  C3  UNL     1      25.664   2.858  51.907  1.00  0.00     0.394 C 
BRANCH  19  20
HETATM   20  N1  UNL     1      25.370   3.591  50.697  1.00  0.00     0.097 NA
HETATM   21  C1  UNL     1      24.131   3.198  50.083  1.00  0.00     0.311 C 
HETATM   22  C2  UNL     1      26.418   3.431  49.707  1.00  0.00     0.311 C 
ENDBRANCH  19  20
ENDBRANCH  17  19
ENDBRANCH   1  17
BRANCH   2  23
HETATM   23  O1  UNL     1      29.018   2.963  52.972  1.00  0.00    -0.343 OA
HETATM   24  H10 UNL     1      29.205   3.764  53.596  1.00  0.00     0.219 HD
ENDBRANCH   2  23
TORSDOF 6
ENDMDL
MODEL 2
REMARK VINA RESULT:      -7.0      4.030      5.755
REMARK  6 active torsions:
REMARK  status: ('A' for Active; 'I' for Inactive)
REMARK    1  A    between atoms: N1_2  and  C3_4 
REMARK    2  A    between atoms: C3_4  and  N2_5 
REMARK    3  A    between atoms: N2_5  and  C4_6 
REMARK    4  A    between atoms: C5_7  and  O1_8 
REMARK    5  A    between atoms: C7_12  and  N5_13 
REMARK    6  A    between atoms: N5_13  and  C8_14 
ROOT
HETATM    1  C4  UNL     1      22.515  -0.084  53.125  1.00  0.00     0.129 A 
HETATM    2  C5  UNL     1      21.462  -0.572  53.840  1.00  0.00     0.194 A 
HETATM    3  N3  UNL     1      21.626  -1.257  54.975  1.00  0.00    -0.216 NA
HETATM    4  C6  UNL     1      22.886  -1.464  55.415  1.00  0.00     0.238 A 
HETATM    5  N4  UNL     1      23.909  -0.981  54.704  1.00  0.00    -0.222 NA
HETATM    6  C7  UNL     1      23.802  -0.290  53.564  1.00  0.00     0.160 A 
ENDROOT
BRANCH   6   7
HETATM    7  N5  UNL     1      24.932   0.193  52.862  1.00  0.00    -0.339 N 
HETATM    8  H12 UNL     1      24.729   0.834  52.082  1.00  0.00     0.167 HD
BRANCH   7   9
HETATM    9  C8  UNL     1      26.306  -0.074  53.075  1.00  0.00     0.035 A 
HETATM   10  C9  UNL     1      26.951  -1.261  52.817  1.00  0.00     0.032 A 
HETATM   11  C10 UNL     1      28.281  -1.514  53.025  1.00  0.00     0.046 A 
HETATM   12  C11 UNL     1      29.043  -0.490  53.539  1.00  0.00     0.138 A 
HETATM   13  F1  UNL     1      30.363  -0.665  53.771  1.00  0.00    -0.204 F 
HETATM   14  C12 UNL     1      28.469   0.728  53.824  1.00  0.00     0.074 A 
HETATM   15 CL1  UNL     1      29.444   2.010  54.472  1.00  0.00    -0.081 Cl
HETATM   16  C13 UNL     1      27.144   0.891  53.586  1.00  0.00     0.056 A 
ENDBRANCH   7   9
ENDBRANCH   6   7
BRANCH   1  17
HETATM   17  N2  UNL     1      22.241   0.641  51.917  1.00  0.00    -0.358 N 
HETATM   18  H9  UNL     1      22.087   0.252  50.985  1.00  0.00     0.161 HD
BRANCH  17  19
HETATM   19  C3  UNL     1      22.148   2.061  51.888  1.00  0.00     0.394 C 
BRANCH  19  20
HETATM   20  N1  UNL     1      23.376   2.765  51.594  1.00  0.00     0.097 NA
HETATM   21  C1  UNL     1      23.807   3.623  52.663  1.00  0.00     0.311 C 
HETATM   22  C2  UNL     1      23.251   3.581  50.402  1.00  0.00     0.311 C 
ENDBRANCH  19  20
ENDBRANCH  17  19
ENDBRANCH   1  17
BRANCH   2  23
HETATM   23  O1  UNL     1      20.139  -0.436  53.513  1.00  0.00    -0.343 OA
HETATM   24  H10 UNL     1      19.625   0.422  53.771  1.00  0.00     0.219 HD
ENDBRANCH   2  23
TORSDOF 6
ENDMDL
MODEL 3
REMARK VINA RESULT:      -7.0      3.398      5.482
REMARK  6 active torsions:
REMARK  status: ('A' for Active; 'I' for Inactive)
REMARK    1  A    between atoms: N1_2  and  C3_4 
REMARK    2  A    between atoms: C3_4  and  N2_5 
REMARK    3  A    between atoms: N2_5  and  C4_6 
REMARK    4  A    between atoms: C5_7  and  O1_8 
REMARK    5  A    between atoms: C7_12  and  N5_13 
REMARK    6  A    between atoms: N5_13  and  C8_14 
ROOT
HETATM    1  C4  UNL     1      26.585   0.686  53.100  1.00  0.00     0.129 A 
HETATM    2  C5  UNL     1      27.325   0.539  54.235  1.00  0.00     0.194 A 
HETATM    3  N3  UNL     1      28.361   1.333  54.520  1.00  0.00    -0.216 NA
HETATM    4  C6  UNL     1      28.672   2.310  53.641  1.00  0.00     0.238 A 
HETATM    5  N4  UNL     1      27.939   2.443  52.532  1.00  0.00    -0.222 NA
HETATM    6  C7  UNL     1      26.894   1.677  52.199  1.00  0.00     0.160 A 
ENDROOT
BRANCH   6   7
HETATM    7  N5  UNL     1      26.161   1.876  51.004  1.00  0.00    -0.339 N 
HETATM    8  H12 UNL     1      25.763   1.025  50.582  1.00  0.00     0.167 HD
BRANCH   7   9
HETATM    9  C8  UNL     1      25.892   3.075  50.302  1.00  0.00     0.035 A 
HETATM   10  C9  UNL     1      24.660   3.668  50.152  1.00  0.00     0.032 A 
HETATM   11  C10 UNL     1      24.406   4.829  49.470  1.00  0.00     0.046 A 
HETATM   12  C11 UNL     1      25.477   5.460  48.880  1.00  0.00     0.138 A 
HETATM   13  F1  UNL     1      25.303   6.610  48.192  1.00  0.00    -0.204 F 
HETATM   14  C12 UNL     1      26.741   4.928  48.987  1.00  0.00     0.074 A 
HETATM   15 CL1  UNL     1      28.083   5.737  48.238  1.00  0.00    -0.081 Cl
HETATM   16  C13 UNL     1      26.903   3.774  49.681  1.00  0.00     0.056 A 
ENDBRANCH   7   9
ENDBRANCH   6   7
BRANCH   1  17
HETATM   17  N2  UNL     1      25.490  -0.214  52.880  1.00  0.00    -0.358 N 
HETATM   18  H9  UNL     1      25.512  -1.103  52.376  1.00  0.00     0.161 HD
BRANCH  17  19
HETATM   19  C3  UNL     1      24.179   0.049  53.368  1.00  0.00     0.394 C 
BRANCH  19  20
HETATM   20  N1  UNL     1      23.268   0.661  52.428  1.00  0.00     0.097 NA
HETATM   21  C1  UNL     1      22.898   2.002  52.788  1.00  0.00     0.311 C 
HETATM   22  C2  UNL     1      22.047  -0.109  52.290  1.00  0.00     0.311 C 
ENDBRANCH  19  20
ENDBRANCH  17  19
ENDBRANCH   1  17
BRANCH   2  23
HETATM   23  O1  UNL     1      27.122  -0.404  55.209  1.00  0.00    -0.343 OA
HETATM   24  H10 UNL     1      27.834  -1.130  55.385  1.00  0.00     0.219 HD
ENDBRANCH   2  23
TORSDOF 6
ENDMDL
MODEL 4
REMARK VINA RESULT:      -6.9      3.267      5.589
REMARK  6 active torsions:
REMARK  status: ('A' for Active; 'I' for Inactive)
REMARK    1  A    between atoms: N1_2  and  C3_4 
REMARK    2  A    between atoms: C3_4  and  N2_5 
REMARK    3  A    between atoms: N2_5  and  C4_6 
REMARK    4  A    between atoms: C5_7  and  O1_8 
REMARK    5  A    between atoms: C7_12  and  N5_13 
REMARK    6  A    between atoms: N5_13  and  C8_14 
ROOT
HETATM    1  C4  UNL     1      25.481  -0.344  54.000  1.00  0.00     0.129 A 
HETATM    2  C5  UNL     1      24.649  -0.973  54.877  1.00  0.00     0.194 A 
HETATM    3  N3  UNL     1      23.321  -0.969  54.731  1.00  0.00    -0.216 NA
HETATM    4  C6  UNL     1      22.802  -0.313  53.670  1.00  0.00     0.238 A 
HETATM    5  N4  UNL     1      23.629   0.299  52.817  1.00  0.00    -0.222 NA
HETATM    6  C7  UNL     1      24.963   0.326  52.917  1.00  0.00     0.160 A 
ENDROOT
BRANCH   6   7
HETATM    7  N5  UNL     1      25.778   0.996  51.975  1.00  0.00    -0.339 N 
HETATM    8  H12 UNL     1      26.738   0.634  51.882  1.00  0.00     0.167 HD
BRANCH   7   9
HETATM    9  C8  UNL     1      25.470   2.094  51.136  1.00  0.00     0.035 A 
HETATM   10  C9  UNL     1      24.219   2.622  50.918  1.00  0.00     0.032 A 
HETATM   11  C10 UNL     1      23.927   3.685  50.104  1.00  0.00     0.046 A 
HETATM   12  C11 UNL     1      24.978   4.280  49.445  1.00  0.00     0.138 A 
HETATM   13  F1  UNL     1      24.766   5.334  48.626  1.00  0.00    -0.204 F 
HETATM   14  C12 UNL     1      26.259   3.808  49.612  1.00  0.00     0.074 A 
HETATM   15 CL1  UNL     1      27.575   4.570  48.773  1.00  0.00    -0.081 Cl
HETATM   16  C13 UNL     1      26.458   2.751  50.437  1.00  0.00     0.056 A 
ENDBRANCH   7   9
ENDBRANCH   6   7
BRANCH   1  17
HETATM   17  N2  UNL     1      26.894  -0.405  54.240  1.00  0.00    -0.358 N 
HETATM   18  H9  UNL     1      27.553  -1.096  53.877  1.00  0.00     0.161 HD
BRANCH  17  19
HETATM   19  C3  UNL     1      27.569   0.548  55.054  1.00  0.00     0.394 C 
BRANCH  19  20
HETATM   20  N1  UNL     1      28.802   1.075  54.516  1.00  0.00     0.097 NA
HETATM   21  C1  UNL     1      28.613   2.253  53.715  1.00  0.00     0.311 C 
HETATM   22  C2  UNL     1      29.489   0.094  53.697  1.00  0.00     0.311 C 
ENDBRANCH  19  20
ENDBRANCH  17  19
ENDBRANCH   1  17
BRANCH   2  23
HETATM   23  O1  UNL     1      25.036  -1.673  55.990  1.00  0.00    -0.343 OA
HETATM   24  H10 UNL     1      24.920  -1.261  56.929  1.00  0.00     0.219 HD
ENDBRANCH   2  23
TORSDOF 6
ENDMDL
MODEL 5
REMARK VINA RESULT:      -6.8      3.500      5.876
REMARK  6 active torsions:
REMARK  status: ('A' for Active; 'I' for Inactive)
REMARK    1  A    between atoms: N1_2  and  C3_4 
REMARK    2  A    between atoms: C3_4  and  N2_5 
REMARK    3  A    between atoms: N2_5  and  C4_6 
REMARK    4  A    between atoms: C5_7  and  O1_8 
REMARK    5  A    between atoms: C7_12  and  N5_13 
REMARK    6  A    between atoms: N5_13  and  C8_14 
ROOT
HETATM    1  C4  UNL     1      23.508  -0.479  53.917  1.00  0.00     0.129 A 
HETATM    2  C5  UNL     1      22.809  -1.038  54.946  1.00  0.00     0.194 A 
HETATM    3  N3  UNL     1      21.510  -0.793  55.142  1.00  0.00    -0.216 NA
HETATM    4  C6  UNL     1      20.884   0.038  54.281  1.00  0.00     0.238 A 
HETATM    5  N4  UNL     1      21.581   0.578  53.277  1.00  0.00    -0.222 NA
HETATM    6  C7  UNL     1      22.880   0.368  53.036  1.00  0.00     0.160 A 
ENDROOT
BRANCH   6   7
HETATM    7  N5  UNL     1      23.555   0.976  51.951  1.00  0.00    -0.339 N 
HETATM    8  H12 UNL     1      23.909   0.330  51.231  1.00  0.00     0.167 HD
BRANCH   7   9
HETATM    9  C8  UNL     1      23.817   2.345  51.706  1.00  0.00     0.035 A 
HETATM   10  C9  UNL     1      23.217   3.411  52.335  1.00  0.00     0.032 A 
HETATM   11  C10 UNL     1      23.474   4.735  52.093  1.00  0.00     0.046 A 
HETATM   12  C11 UNL     1      24.416   5.028  51.134  1.00  0.00     0.138 A 
HETATM   13  F1  UNL     1      24.723   6.311  50.841  1.00  0.00    -0.204 F 
HETATM   14  C12 UNL     1      25.060   4.015  50.461  1.00  0.00     0.074 A 
HETATM   15 CL1  UNL     1      26.247   4.401  49.253  1.00  0.00    -0.081 Cl
HETATM   16  C13 UNL     1      24.744   2.732  50.764  1.00  0.00     0.056 A 
ENDBRANCH   7   9
ENDBRANCH   6   7
BRANCH   1  17
HETATM   17  N2  UNL     1      24.900  -0.801  53.786  1.00  0.00    -0.358 N 
HETATM   18  H9  UNL     1      25.315  -1.507  53.176  1.00  0.00     0.161 HD
BRANCH  17  19
HETATM   19  C3  UNL     1      25.909  -0.133  54.535  1.00  0.00     0.394 C 
BRANCH  19  20
HETATM   20  N1  UNL     1      27.253  -0.638  54.371  1.00  0.00     0.097 NA
HETATM   21  C1  UNL     1      28.262   0.273  54.836  1.00  0.00     0.311 C 
HETATM   22  C2  UNL     1      27.543  -0.941  52.983  1.00  0.00     0.311 C 
ENDBRANCH  19  20
ENDBRANCH  17  19
ENDBRANCH   1  17
BRANCH   2  23
HETATM   23  O1  UNL     1      23.314  -1.894  55.888  1.00  0.00    -0.343 OA
HETATM   24  H10 UNL     1      23.508  -1.559  56.844  1.00  0.00     0.219 HD
ENDBRANCH   2  23
TORSDOF 6
ENDMDL
MODEL 6
REMARK VINA RESULT:      -6.7      3.517      6.077
REMARK  6 active torsions:
REMARK  status: ('A' for Active; 'I' for Inactive)
REMARK    1  A    between atoms: N1_2  and  C3_4 
REMARK    2  A    between atoms: C3_4  and  N2_5 
REMARK    3  A    between atoms: N2_5  and  C4_6 
REMARK    4  A    between atoms: C5_7  and  O1_8 
REMARK    5  A    between atoms: C7_12  and  N5_13 
REMARK    6  A    between atoms: N5_13  and  C8_14 
ROOT
HETATM    1  C4  UNL     1      23.847   2.489  51.747  1.00  0.00     0.129 A 
HETATM    2  C5  UNL     1      23.089   2.713  50.636  1.00  0.00     0.194 A 
HETATM    3  N3  UNL     1      23.608   3.188  49.501  1.00  0.00    -0.216 NA
HETATM    4  C6  UNL     1      24.933   3.450  49.470  1.00  0.00     0.238 A 
HETATM    5  N4  UNL     1      25.665   3.226  50.566  1.00  0.00    -0.222 NA
HETATM    6  C7  UNL     1      25.196   2.753  51.726  1.00  0.00     0.160 A 
ENDROOT
BRANCH   6   7
HETATM    7  N5  UNL     1      26.030   2.540  52.849  1.00  0.00    -0.339 N 
HETATM    8  H12 UNL     1      25.916   3.213  53.620  1.00  0.00     0.167 HD
BRANCH   7   9
HETATM    9  C8  UNL     1      27.002   1.535  53.071  1.00  0.00     0.035 A 
HETATM   10  C9  UNL     1      28.257   1.724  53.602  1.00  0.00     0.032 A 
HETATM   11  C10 UNL     1      29.194   0.746  53.814  1.00  0.00     0.046 A 
HETATM   12  C11 UNL     1      28.852  -0.540  53.466  1.00  0.00     0.138 A 
HETATM   13  F1  UNL     1      29.724  -1.556  53.647  1.00  0.00    -0.204 F 
HETATM   14  C12 UNL     1      27.614  -0.808  52.929  1.00  0.00     0.074 A 
HETATM   15 CL1  UNL     1      27.197  -2.437  52.495  1.00  0.00    -0.081 Cl
HETATM   16  C13 UNL     1      26.747   0.220  52.753  1.00  0.00     0.056 A 
ENDBRANCH   7   9
ENDBRANCH   6   7
BRANCH   1  17
HETATM   17  N2  UNL     1      23.200   1.976  52.920  1.00  0.00    -0.358 N 
HETATM   18  H9  UNL     1      22.832   2.514  53.707  1.00  0.00     0.161 HD
BRANCH  17  19
HETATM   19  C3  UNL     1      22.988   0.584  53.125  1.00  0.00     0.394 C 
BRANCH  19  20
HETATM   20  N1  UNL     1      21.894   0.235  54.002  1.00  0.00     0.097 NA
HETATM   21  C1  UNL     1      22.043  -1.059  54.608  1.00  0.00     0.311 C 
HETATM   22  C2  UNL     1      20.624   0.247  53.303  1.00  0.00     0.311 C 
ENDBRANCH  19  20
ENDBRANCH  17  19
ENDBRANCH   1  17
BRANCH   2  23
HETATM   23  O1  UNL     1      21.741   2.492  50.526  1.00  0.00    -0.343 OA
HETATM   24  H10 UNL     1      21.070   3.205  50.849  1.00  0.00     0.219 HD
ENDBRANCH   2  23
TORSDOF 6
ENDMDL
MODEL 7
REMARK VINA RESULT:      -6.7      2.455      4.553
REMARK  6 active torsions:
REMARK  status: ('A' for Active; 'I' for Inactive)
REMARK    1  A    between atoms: N1_2  and  C3_4 
REMARK    2  A    between atoms: C3_4  and  N2_5 
REMARK    3  A    between atoms: N2_5  and  C4_6 
REMARK    4  A    between atoms: C5_7  and  O1_8 
REMARK    5  A    between atoms: C7_12  and  N5_13 
REMARK    6  A    between atoms: N5_13  and  C8_14 
ROOT
HETATM    1  C4  UNL     1      26.779   0.525  53.531  1.00  0.00     0.129 A 
HETATM    2  C5  UNL     1      27.948  -0.156  53.697  1.00  0.00     0.194 A 
HETATM    3  N3  UNL     1      29.102   0.461  53.967  1.00  0.00    -0.216 NA
HETATM    4  C6  UNL     1      29.091   1.807  54.077  1.00  0.00     0.238 A 
HETATM    5  N4  UNL     1      27.938   2.462  53.912  1.00  0.00    -0.222 NA
HETATM    6  C7  UNL     1      26.757   1.895  53.640  1.00  0.00     0.160 A 
ENDROOT
BRANCH   6   7
HETATM    7  N5  UNL     1      25.573   2.653  53.479  1.00  0.00    -0.339 N 
HETATM    8  H12 UNL     1      25.098   2.925  54.351  1.00  0.00     0.167 HD
BRANCH   7   9
HETATM    9  C8  UNL     1      24.943   3.097  52.291  1.00  0.00     0.035 A 
HETATM   10  C9  UNL     1      25.370   2.852  51.007  1.00  0.00     0.032 A 
HETATM   11  C10 UNL     1      24.755   3.285  49.861  1.00  0.00     0.046 A 
HETATM   12  C11 UNL     1      23.608   4.031  50.005  1.00  0.00     0.138 A 
HETATM   13  F1  UNL     1      22.947   4.491  48.920  1.00  0.00    -0.204 F 
HETATM   14  C12 UNL     1      23.118   4.317  51.259  1.00  0.00     0.074 A 
HETATM   15 CL1  UNL     1      21.669   5.259  51.424  1.00  0.00    -0.081 Cl
HETATM   16  C13 UNL     1      23.790   3.848  52.339  1.00  0.00     0.056 A 
ENDBRANCH   7   9
ENDBRANCH   6   7
BRANCH   1  17
HETATM   17  N2  UNL     1      25.589  -0.224  53.244  1.00  0.00    -0.358 N 
HETATM   18  H9  UNL     1      25.243  -0.505  52.325  1.00  0.00     0.161 HD
BRANCH  17  19
HETATM   19  C3  UNL     1      24.715  -0.684  54.268  1.00  0.00     0.394 C 
BRANCH  19  20
HETATM   20  N1  UNL     1      23.329  -0.842  53.888  1.00  0.00     0.097 NA
HETATM   21  C1  UNL     1      22.753   0.352  53.334  1.00  0.00     0.311 C 
HETATM   22  C2  UNL     1      22.509  -1.241  55.016  1.00  0.00     0.311 C 
ENDBRANCH  19  20
ENDBRANCH  17  19
ENDBRANCH   1  17
BRANCH   2  23
HETATM   23  O1  UNL     1      28.104  -1.515  53.614  1.00  0.00    -0.343 OA
HETATM   24  H10 UNL     1      28.928  -1.915  53.139  1.00  0.00     0.219 HD
ENDBRANCH   2  23
TORSDOF 6
ENDMDL
MODEL 8
REMARK VINA RESULT:      -6.7      1.523      3.875
REMARK  6 active torsions:
REMARK  status: ('A' for Active; 'I' for Inactive)
REMARK    1  A    between atoms: N1_2  and  C3_4 
REMARK    2  A    between atoms: C3_4  and  N2_5 
REMARK    3  A    between atoms: N2_5  and  C4_6 
REMARK    4  A    between atoms: C5_7  and  O1_8 
REMARK    5  A    between atoms: C7_12  and  N5_13 
REMARK    6  A    between atoms: N5_13  and  C8_14 
ROOT
HETATM    1  C4  UNL     1      25.648   2.591  51.832  1.00  0.00     0.129 A 
HETATM    2  C5  UNL     1      25.931   3.255  50.676  1.00  0.00     0.194 A 
HETATM    3  N3  UNL     1      25.051   3.352  49.675  1.00  0.00    -0.216 NA
HETATM    4  C6  UNL     1      23.843   2.768  49.833  1.00  0.00     0.238 A 
HETATM    5  N4  UNL     1      23.580   2.121  50.972  1.00  0.00    -0.222 NA
HETATM    6  C7  UNL     1      24.423   1.993  52.003  1.00  0.00     0.160 A 
ENDROOT
BRANCH   6   7
HETATM    7  N5  UNL     1      24.075   1.291  53.182  1.00  0.00    -0.339 N 
HETATM    8  H12 UNL     1      24.709   1.427  53.982  1.00  0.00     0.167 HD
BRANCH   7   9
HETATM    9  C8  UNL     1      22.980   0.428  53.426  1.00  0.00     0.035 A 
HETATM   10  C9  UNL     1      23.002  -0.713  54.194  1.00  0.00     0.032 A 
HETATM   11  C10 UNL     1      21.938  -1.545  54.427  1.00  0.00     0.046 A 
HETATM   12  C11 UNL     1      20.738  -1.211  53.842  1.00  0.00     0.138 A 
HETATM   13  F1  UNL     1      19.645  -1.983  54.027  1.00  0.00    -0.204 F 
HETATM   14  C12 UNL     1      20.637  -0.083  53.060  1.00  0.00     0.074 A 
HETATM   15 CL1  UNL     1      19.116   0.325  52.328  1.00  0.00    -0.081 Cl
HETATM   16  C13 UNL     1      21.741   0.684  52.882  1.00  0.00     0.056 A 
ENDBRANCH   7   9
ENDBRANCH   6   7
BRANCH   1  17
HETATM   17  N2  UNL     1      26.657   2.540  52.852  1.00  0.00    -0.358 N 
HETATM   18  H9  UNL     1      26.809   3.215  53.604  1.00  0.00     0.161 HD
BRANCH  17  19
HETATM   19  C3  UNL     1      27.606   1.483  52.930  1.00  0.00     0.394 C 
BRANCH  19  20
HETATM   20  N1  UNL     1      27.253   0.383  53.798  1.00  0.00     0.097 NA
HETATM   21  C1  UNL     1      28.266   0.081  54.772  1.00  0.00     0.311 C 
HETATM   22  C2  UNL     1      26.994  -0.829  53.046  1.00  0.00     0.311 C 
ENDBRANCH  19  20
ENDBRANCH  17  19
ENDBRANCH   1  17
BRANCH   2  23
HETATM   23  O1  UNL     1      27.108   3.891  50.383  1.00  0.00    -0.343 OA
HETATM   24  H10 UNL     1      27.950   3.715  50.953  1.00  0.00     0.219 HD
ENDBRANCH   2  23
TORSDOF 6
ENDMDL
MODEL 9
REMARK VINA RESULT:      -6.4      1.900      2.572
REMARK  6 active torsions:
REMARK  status: ('A' for Active; 'I' for Inactive)
REMARK    1  A    between atoms: N1_2  and  C3_4 
REMARK    2  A    between atoms: C3_4  and  N2_5 
REMARK    3  A    between atoms: N2_5  and  C4_6 
REMARK    4  A    between atoms: C5_7  and  O1_8 
REMARK    5  A    between atoms: C7_12  and  N5_13 
REMARK    6  A    between atoms: N5_13  and  C8_14 
ROOT
HETATM    1  C4  UNL     1      25.368   2.340  52.336  1.00  0.00     0.129 A 
HETATM    2  C5  UNL     1      26.698   2.096  52.166  1.00  0.00     0.194 A 
HETATM    3  N3  UNL     1      27.253   0.920  52.471  1.00  0.00    -0.216 NA
HETATM    4  C6  UNL     1      26.452  -0.051  52.962  1.00  0.00     0.238 A 
HETATM    5  N4  UNL     1      25.150   0.202  53.123  1.00  0.00    -0.222 NA
HETATM    6  C7  UNL     1      24.545   1.360  52.835  1.00  0.00     0.160 A 
ENDROOT
BRANCH   6   7
HETATM    7  N5  UNL     1      23.157   1.557  53.032  1.00  0.00    -0.339 N 
HETATM    8  H12 UNL     1      22.836   2.534  52.978  1.00  0.00     0.167 HD
BRANCH   7   9
HETATM    9  C8  UNL     1      22.140   0.607  53.291  1.00  0.00     0.035 A 
HETATM   10  C9  UNL     1      22.186  -0.393  54.235  1.00  0.00     0.032 A 
HETATM   11  C10 UNL     1      21.197  -1.310  54.481  1.00  0.00     0.046 A 
HETATM   12  C11 UNL     1      20.056  -1.225  53.717  1.00  0.00     0.138 A 
HETATM   13  F1  UNL     1      19.039  -2.095  53.904  1.00  0.00    -0.204 F 
HETATM   14  C12 UNL     1      19.936  -0.251  52.753  1.00  0.00     0.074 A 
HETATM   15 CL1  UNL     1      18.489  -0.157  51.797  1.00  0.00    -0.081 Cl
HETATM   16  C13 UNL     1      20.963   0.616  52.576  1.00  0.00     0.056 A 
ENDBRANCH   7   9
ENDBRANCH   6   7
BRANCH   1  17
HETATM   17  N2  UNL     1      24.863   3.635  51.979  1.00  0.00    -0.358 N 
HETATM   18  H9  UNL     1      24.711   4.431  52.601  1.00  0.00     0.161 HD
BRANCH  17  19
HETATM   19  C3  UNL     1      24.499   3.968  50.645  1.00  0.00     0.394 C 
BRANCH  19  20
HETATM   20  N1  UNL     1      24.305   5.376  50.378  1.00  0.00     0.097 NA
HETATM   21  C1  UNL     1      25.503   6.040  49.942  1.00  0.00     0.311 C 
HETATM   22  C2  UNL     1      23.816   6.078  51.548  1.00  0.00     0.311 C 
ENDBRANCH  19  20
ENDBRANCH  17  19
ENDBRANCH   1  17
BRANCH   2  23
HETATM   23  O1  UNL     1      27.622   2.984  51.679  1.00  0.00    -0.343 OA
HETATM   24  H10 UNL     1      27.436   3.500  50.805  1.00  0.00     0.219 HD
ENDBRANCH   2  23
TORSDOF 6
ENDMDL
