MODEL 1
REMARK VINA RESULT:      -7.3      0.000      0.000
REMARK  7 active torsions:
REMARK  status: ('A' for Active; 'I' for Inactive)
REMARK    1  A    between atoms: C2_2  and  N1_3 
REMARK    2  A    between atoms: N1_3  and  O1_4 
REMARK    3  A    between atoms: N1_3  and  C3_5 
REMARK    4  A    between atoms: C3_5  and  C5_7 
REMARK    5  A    between atoms: C5_7  and  C6_8 
REMARK    6  A    between atoms: C6_8  and  C7_9 
REMARK    7  A    between atoms: N5_19  and  C14_20 
ROOT
HETATM    1  C7  UNL     1      21.103   0.662  52.218  1.00  0.00     0.057 C 
HETATM    2  C8  UNL     1      21.701   1.336  51.037  1.00  0.00     0.084 C 
HETATM    3  C9  UNL     1      22.937   2.113  51.354  1.00  0.00     0.125 C 
HETATM    4  N2  UNL     1      24.136   1.273  51.429  1.00  0.00    -0.396 N 
HETATM    5  C10 UNL     1      24.622   0.482  52.502  1.00  0.00     0.119 C 
HETATM    6  C11 UNL     1      24.065  -0.115  53.540  1.00  0.00     0.127 A 
HETATM    7  C12 UNL     1      22.698  -0.213  54.023  1.00  0.00     0.201 A 
HETATM    8  N3  UNL     1      22.336  -0.847  55.088  1.00  0.00    -0.214 NA
HETATM    9  C13 UNL     1      23.391  -1.498  55.830  1.00  0.00     0.258 A 
HETATM   10  N4  UNL     1      24.641  -1.441  55.438  1.00  0.00    -0.160 NA
HETATM   11  N5  UNL     1      25.050  -0.763  54.295  1.00  0.00    -0.227 N 
HETATM   12  O2  UNL     1      21.482   0.311  53.513  1.00  0.00    -0.294 OA
HETATM   13  H14 UNL     1      24.778   1.206  50.587  1.00  0.00     0.158 HD
ENDROOT
BRANCH   1  14
HETATM   14  C6  UNL     1      19.902   0.356  51.834  1.00  0.00     0.035 C 
BRANCH  14  15
HETATM   15  C5  UNL     1      18.594  -0.085  51.526  1.00  0.00     0.029 C 
BRANCH  15  16
HETATM   16  C3  UNL     1      17.374  -0.422  51.256  1.00  0.00     0.036 C 
HETATM   17  C4  UNL     1      16.844  -0.264  49.859  1.00  0.00     0.071 C 
BRANCH  16  18
HETATM   18  N1  UNL     1      16.406  -0.948  52.114  1.00  0.00    -0.241 N 
BRANCH  18  19
HETATM   19  C2  UNL     1      15.220  -1.519  51.570  1.00  0.00     0.113 C 
HETATM   20  C1  UNL     1      15.250  -2.697  52.178  1.00  0.00     0.032 C 
ENDBRANCH  18  19
BRANCH  18  21
HETATM   21  O1  UNL     1      16.667  -0.877  53.436  1.00  0.00    -0.283 OA
HETATM   22  H4  UNL     1      16.714  -1.773  53.850  1.00  0.00     0.245 HD
ENDBRANCH  18  21
ENDBRANCH  16  18
ENDBRANCH  15  16
ENDBRANCH  14  15
ENDBRANCH   1  14
BRANCH  11  23
HETATM   23  C14 UNL     1      26.419  -0.705  53.884  1.00  0.00     0.060 A 
HETATM   24  C15 UNL     1      27.030  -1.696  53.101  1.00  0.00     0.032 A 
HETATM   25  C16 UNL     1      28.354  -1.485  52.810  1.00  0.00     0.004 A 
HETATM   26  C17 UNL     1      29.125  -0.421  53.202  1.00  0.00     0.019 A 
HETATM   27  C18 UNL     1      28.441   0.499  53.966  1.00  0.00     0.013 A 
HETATM   28 BR1  UNL     1      29.396   2.048  54.587  1.00  0.00    -0.051 Br
HETATM   29  C19 UNL     1      27.101   0.419  54.339  1.00  0.00     0.050 A 
ENDBRANCH  11  23
TORSDOF 7
ENDMDL
MODEL 2
REMARK VINA RESULT:      -7.3      4.710      7.049
REMARK  7 active torsions:
REMARK  status: ('A' for Active; 'I' for Inactive)
REMARK    1  A    between atoms: C2_2  and  N1_3 
REMARK    2  A    between atoms: N1_3  and  O1_4 
REMARK    3  A    between atoms: N1_3  and  C3_5 
REMARK    4  A    between atoms: C3_5  and  C5_7 
REMARK    5  A    between atoms: C5_7  and  C6_8 
REMARK    6  A    between atoms: C6_8  and  C7_9 
REMARK    7  A    between atoms: N5_19  and  C14_20 
ROOT
HETATM    1  C7  UNL     1      23.438   1.869  50.840  1.00  0.00     0.057 C 
HETATM    2  C8  UNL     1      24.575   1.748  51.788  1.00  0.00     0.084 C 
HETATM    3  C9  UNL     1      25.889   2.145  51.199  1.00  0.00     0.125 C 
HETATM    4  N2  UNL     1      26.099   3.596  51.198  1.00  0.00    -0.396 N 
HETATM    5  C10 UNL     1      25.641   4.577  50.281  1.00  0.00     0.119 C 
HETATM    6  C11 UNL     1      24.617   4.664  49.451  1.00  0.00     0.127 A 
HETATM    7  C12 UNL     1      23.514   3.775  49.127  1.00  0.00     0.201 A 
HETATM    8  N3  UNL     1      22.590   4.031  48.262  1.00  0.00    -0.214 NA
HETATM    9  C13 UNL     1      22.689   5.303  47.585  1.00  0.00     0.258 A 
HETATM   10  N4  UNL     1      23.664   6.141  47.839  1.00  0.00    -0.160 NA
HETATM   11  N5  UNL     1      24.668   5.884  48.767  1.00  0.00    -0.227 N 
HETATM   12  O2  UNL     1      23.166   2.491  49.622  1.00  0.00    -0.294 OA
HETATM   13  H14 UNL     1      26.674   4.040  51.972  1.00  0.00     0.158 HD
ENDROOT
BRANCH   1  14
HETATM   14  C6  UNL     1      22.491   1.172  51.389  1.00  0.00     0.035 C 
BRANCH  14  15
HETATM   15  C5  UNL     1      21.401   0.545  52.036  1.00  0.00     0.029 C 
BRANCH  15  16
HETATM   16  C3  UNL     1      20.448  -0.043  52.683  1.00  0.00     0.036 C 
HETATM   17  C4  UNL     1      19.061  -0.082  52.103  1.00  0.00     0.071 C 
BRANCH  16  18
HETATM   18  N1  UNL     1      20.505  -0.695  53.916  1.00  0.00    -0.241 N 
BRANCH  18  19
HETATM   19  C2  UNL     1      21.506  -0.326  54.861  1.00  0.00     0.113 C 
HETATM   20  C1  UNL     1      22.267  -1.410  54.802  1.00  0.00     0.032 C 
ENDBRANCH  18  19
BRANCH  18  21
HETATM   21  O1  UNL     1      19.582  -1.655  54.136  1.00  0.00    -0.283 OA
HETATM   22  H4  UNL     1      19.151  -1.950  53.299  1.00  0.00     0.245 HD
ENDBRANCH  18  21
ENDBRANCH  16  18
ENDBRANCH  15  16
ENDBRANCH  14  15
ENDBRANCH   1  14
BRANCH  11  23
HETATM   23  C14 UNL     1      25.728   6.806  49.029  1.00  0.00     0.060 A 
HETATM   24  C15 UNL     1      25.650   7.813  50.004  1.00  0.00     0.032 A 
HETATM   25  C16 UNL     1      26.756   8.617  50.113  1.00  0.00     0.004 A 
HETATM   26  C17 UNL     1      27.910   8.536  49.375  1.00  0.00     0.019 A 
HETATM   27  C18 UNL     1      27.894   7.521  48.444  1.00  0.00     0.013 A 
HETATM   28 BR1  UNL     1      29.449   7.286  47.336  1.00  0.00    -0.051 Br
HETATM   29  C19 UNL     1      26.847   6.629  48.222  1.00  0.00     0.050 A 
ENDBRANCH  11  23
TORSDOF 7
ENDMDL
MODEL 3
REMARK VINA RESULT:      -7.2      3.691      9.317
REMARK  7 active torsions:
REMARK  status: ('A' for Active; 'I' for Inactive)
REMARK    1  A    between atoms: C2_2  and  N1_3 
REMARK    2  A    between atoms: N1_3  and  O1_4 
REMARK    3  A    between atoms: N1_3  and  C3_5 
REMARK    4  A    between atoms: C3_5  and  C5_7 
REMARK    5  A    between atoms: C5_7  and  C6_8 
REMARK    6  A    between atoms: C6_8  and  C7_9 
REMARK    7  A    between atoms: N5_19  and  C14_20 
ROOT
HETATM    1  C7  UNL     1      23.126   0.280  53.440  1.00  0.00     0.057 C 
HETATM    2  C8  UNL     1      22.469  -0.696  54.347  1.00  0.00     0.084 C 
HETATM    3  C9  UNL     1      21.129  -0.251  54.834  1.00  0.00     0.125 C 
HETATM    4  N2  UNL     1      20.058  -0.495  53.864  1.00  0.00    -0.396 N 
HETATM    5  C10 UNL     1      19.662   0.275  52.740  1.00  0.00     0.119 C 
HETATM    6  C11 UNL     1      20.270   1.134  51.943  1.00  0.00     0.127 A 
HETATM    7  C12 UNL     1      21.625   1.656  51.883  1.00  0.00     0.201 A 
HETATM    8  N3  UNL     1      22.046   2.518  51.019  1.00  0.00    -0.214 NA
HETATM    9  C13 UNL     1      21.075   2.975  50.052  1.00  0.00     0.258 A 
HETATM   10  N4  UNL     1      19.839   2.537  50.062  1.00  0.00    -0.160 NA
HETATM   11  N5  UNL     1      19.367   1.609  50.985  1.00  0.00    -0.227 N 
HETATM   12  O2  UNL     1      22.768   1.395  52.683  1.00  0.00    -0.294 OA
HETATM   13  H14 UNL     1      19.452  -1.360  53.964  1.00  0.00     0.158 HD
ENDROOT
BRANCH   1  14
HETATM   14  C6  UNL     1      24.368  -0.097  53.414  1.00  0.00     0.035 C 
BRANCH  14  15
HETATM   15  C5  UNL     1      25.681  -0.601  53.270  1.00  0.00     0.029 C 
BRANCH  15  16
HETATM   16  C3  UNL     1      26.871  -1.102  53.196  1.00  0.00     0.036 C 
HETATM   17  C4  UNL     1      27.114  -2.343  52.382  1.00  0.00     0.071 C 
BRANCH  16  18
HETATM   18  N1  UNL     1      28.048  -0.642  53.789  1.00  0.00    -0.241 N 
BRANCH  18  19
HETATM   19  C2  UNL     1      29.287  -1.272  53.476  1.00  0.00     0.113 C 
HETATM   20  C1  UNL     1      30.085  -0.214  53.521  1.00  0.00     0.032 C 
ENDBRANCH  18  19
BRANCH  18  21
HETATM   21  O1  UNL     1      27.929   0.397  54.642  1.00  0.00    -0.283 OA
HETATM   22  H4  UNL     1      28.636   0.390  55.332  1.00  0.00     0.245 HD
ENDBRANCH  18  21
ENDBRANCH  16  18
ENDBRANCH  15  16
ENDBRANCH  14  15
ENDBRANCH   1  14
BRANCH  11  23
HETATM   23  C14 UNL     1      18.015   1.145  50.985  1.00  0.00     0.060 A 
HETATM   24  C15 UNL     1      17.614  -0.060  50.389  1.00  0.00     0.032 A 
HETATM   25  C16 UNL     1      16.275  -0.345  50.473  1.00  0.00     0.004 A 
HETATM   26  C17 UNL     1      15.306   0.420  51.072  1.00  0.00     0.019 A 
HETATM   27  C18 UNL     1      15.793   1.583  51.628  1.00  0.00     0.013 A 
HETATM   28 BR1  UNL     1      14.546   2.755  52.506  1.00  0.00    -0.051 Br
HETATM   29  C19 UNL     1      17.121   2.001  51.622  1.00  0.00     0.050 A 
ENDBRANCH  11  23
TORSDOF 7
ENDMDL
MODEL 4
REMARK VINA RESULT:      -7.1      4.691      6.869
REMARK  7 active torsions:
REMARK  status: ('A' for Active; 'I' for Inactive)
REMARK    1  A    between atoms: C2_2  and  N1_3 
REMARK    2  A    between atoms: N1_3  and  O1_4 
REMARK    3  A    between atoms: N1_3  and  C3_5 
REMARK    4  A    between atoms: C3_5  and  C5_7 
REMARK    5  A    between atoms: C5_7  and  C6_8 
REMARK    6  A    between atoms: C6_8  and  C7_9 
REMARK    7  A    between atoms: N5_19  and  C14_20 
ROOT
HETATM    1  C7  UNL     1      23.775   1.746  51.116  1.00  0.00     0.057 C 
HETATM    2  C8  UNL     1      25.016   1.644  51.926  1.00  0.00     0.084 C 
HETATM    3  C9  UNL     1      26.244   2.076  51.196  1.00  0.00     0.125 C 
HETATM    4  N2  UNL     1      26.421   3.531  51.187  1.00  0.00    -0.396 N 
HETATM    5  C10 UNL     1      25.839   4.509  50.339  1.00  0.00     0.119 C 
HETATM    6  C11 UNL     1      24.726   4.579  49.633  1.00  0.00     0.127 A 
HETATM    7  C12 UNL     1      23.613   3.668  49.427  1.00  0.00     0.201 A 
HETATM    8  N3  UNL     1      22.591   3.910  48.676  1.00  0.00    -0.214 NA
HETATM    9  C13 UNL     1      22.584   5.189  48.005  1.00  0.00     0.258 A 
HETATM   10  N4  UNL     1      23.563   6.048  48.156  1.00  0.00    -0.160 NA
HETATM   11  N5  UNL     1      24.672   5.805  48.961  1.00  0.00    -0.227 N 
HETATM   12  O2  UNL     1      23.352   2.372  49.944  1.00  0.00    -0.294 OA
HETATM   13  H14 UNL     1      27.070   3.981  51.895  1.00  0.00     0.158 HD
ENDROOT
BRANCH   1  14
HETATM   14  C6  UNL     1      22.913   1.023  51.761  1.00  0.00     0.035 C 
BRANCH  14  15
HETATM   15  C5  UNL     1      21.926   0.364  52.530  1.00  0.00     0.029 C 
BRANCH  15  16
HETATM   16  C3  UNL     1      21.044  -0.201  53.289  1.00  0.00     0.036 C 
HETATM   17  C4  UNL     1      21.433  -0.693  54.655  1.00  0.00     0.071 C 
BRANCH  16  18
HETATM   18  N1  UNL     1      19.694  -0.441  53.026  1.00  0.00    -0.241 N 
BRANCH  18  19
HETATM   19  C2  UNL     1      19.078   0.171  51.895  1.00  0.00     0.113 C 
HETATM   20  C1  UNL     1      17.938  -0.506  51.878  1.00  0.00     0.032 C 
ENDBRANCH  18  19
BRANCH  18  21
HETATM   21  O1  UNL     1      19.046  -1.259  53.881  1.00  0.00    -0.283 OA
HETATM   22  H4  UNL     1      19.503  -2.129  53.976  1.00  0.00     0.245 HD
ENDBRANCH  18  21
ENDBRANCH  16  18
ENDBRANCH  15  16
ENDBRANCH  14  15
ENDBRANCH   1  14
BRANCH  11  23
HETATM   23  C14 UNL     1      25.734   6.750  49.110  1.00  0.00     0.060 A 
HETATM   24  C15 UNL     1      25.737   7.758  50.087  1.00  0.00     0.032 A 
HETATM   25  C16 UNL     1      26.832   8.584  50.079  1.00  0.00     0.004 A 
HETATM   26  C17 UNL     1      27.905   8.525  49.226  1.00  0.00     0.019 A 
HETATM   27  C18 UNL     1      27.813   7.506  48.303  1.00  0.00     0.013 A 
HETATM   28 BR1  UNL     1      29.249   7.299  47.040  1.00  0.00    -0.051 Br
HETATM   29  C19 UNL     1      26.767   6.593  48.192  1.00  0.00     0.050 A 
ENDBRANCH  11  23
TORSDOF 7
ENDMDL
MODEL 5
REMARK VINA RESULT:      -7.0      3.836      9.421
REMARK  7 active torsions:
REMARK  status: ('A' for Active; 'I' for Inactive)
REMARK    1  A    between atoms: C2_2  and  N1_3 
REMARK    2  A    between atoms: N1_3  and  O1_4 
REMARK    3  A    between atoms: N1_3  and  C3_5 
REMARK    4  A    between atoms: C3_5  and  C5_7 
REMARK    5  A    between atoms: C5_7  and  C6_8 
REMARK    6  A    between atoms: C6_8  and  C7_9 
REMARK    7  A    between atoms: N5_19  and  C14_20 
ROOT
HETATM    1  C7  UNL     1      22.419   0.626  53.383  1.00  0.00     0.057 C 
HETATM    2  C8  UNL     1      22.341  -0.812  53.747  1.00  0.00     0.084 C 
HETATM    3  C9  UNL     1      21.044  -1.200  54.377  1.00  0.00     0.125 C 
HETATM    4  N2  UNL     1      19.980  -1.434  53.396  1.00  0.00    -0.396 N 
HETATM    5  C10 UNL     1      19.132  -0.504  52.741  1.00  0.00     0.119 C 
HETATM    6  C11 UNL     1      19.228   0.774  52.422  1.00  0.00     0.127 A 
HETATM    7  C12 UNL     1      20.262   1.777  52.611  1.00  0.00     0.201 A 
HETATM    8  N3  UNL     1      20.175   3.008  52.232  1.00  0.00    -0.214 NA
HETATM    9  C13 UNL     1      18.945   3.383  51.573  1.00  0.00     0.258 A 
HETATM   10  N4  UNL     1      17.980   2.518  51.377  1.00  0.00    -0.160 NA
HETATM   11  N5  UNL     1      18.056   1.188  51.779  1.00  0.00    -0.227 N 
HETATM   12  O2  UNL     1      21.546   1.700  53.211  1.00  0.00    -0.294 OA
HETATM   13  H14 UNL     1      19.762  -2.426  53.091  1.00  0.00     0.158 HD
ENDROOT
BRANCH   1  14
HETATM   14  C6  UNL     1      23.685   0.838  53.194  1.00  0.00     0.035 C 
BRANCH  14  15
HETATM   15  C5  UNL     1      25.027   1.212  52.950  1.00  0.00     0.029 C 
BRANCH  15  16
HETATM   16  C3  UNL     1      26.253   1.591  52.787  1.00  0.00     0.036 C 
HETATM   17  C4  UNL     1      26.716   2.075  51.441  1.00  0.00     0.071 C 
BRANCH  16  18
HETATM   18  N1  UNL     1      27.285   1.626  53.726  1.00  0.00    -0.241 N 
BRANCH  18  19
HETATM   19  C2  UNL     1      27.805   0.406  54.246  1.00  0.00     0.113 C 
HETATM   20  C1  UNL     1      29.101   0.641  54.093  1.00  0.00     0.032 C 
ENDBRANCH  18  19
BRANCH  18  21
HETATM   21  O1  UNL     1      27.733   2.847  54.087  1.00  0.00    -0.283 OA
HETATM   22  H4  UNL     1      27.032   3.379  54.534  1.00  0.00     0.245 HD
ENDBRANCH  18  21
ENDBRANCH  16  18
ENDBRANCH  15  16
ENDBRANCH  14  15
ENDBRANCH   1  14
BRANCH  11  23
HETATM   23  C14 UNL     1      16.992   0.258  51.563  1.00  0.00     0.060 A 
HETATM   24  C15 UNL     1      16.180  -0.237  52.596  1.00  0.00     0.032 A 
HETATM   25  C16 UNL     1      15.214  -1.131  52.211  1.00  0.00     0.004 A 
HETATM   26  C17 UNL     1      14.967  -1.581  50.939  1.00  0.00     0.019 A 
HETATM   27  C18 UNL     1      15.813  -1.042  49.994  1.00  0.00     0.013 A 
HETATM   28 BR1  UNL     1      15.583  -1.581  48.162  1.00  0.00    -0.051 Br
HETATM   29  C19 UNL     1      16.834  -0.126  50.236  1.00  0.00     0.050 A 
ENDBRANCH  11  23
TORSDOF 7
ENDMDL
MODEL 6
REMARK VINA RESULT:      -6.8      9.733     12.094
REMARK  7 active torsions:
REMARK  status: ('A' for Active; 'I' for Inactive)
REMARK    1  A    between atoms: C2_2  and  N1_3 
REMARK    2  A    between atoms: N1_3  and  O1_4 
REMARK    3  A    between atoms: N1_3  and  C3_5 
REMARK    4  A    between atoms: C3_5  and  C5_7 
REMARK    5  A    between atoms: C5_7  and  C6_8 
REMARK    6  A    between atoms: C6_8  and  C7_9 
REMARK    7  A    between atoms: N5_19  and  C14_20 
ROOT
HETATM    1  C7  UNL     1      28.954   5.778  48.187  1.00  0.00     0.057 C 
HETATM    2  C8  UNL     1      28.310   6.947  47.536  1.00  0.00     0.084 C 
HETATM    3  C9  UNL     1      29.253   8.070  47.254  1.00  0.00     0.125 C 
HETATM    4  N2  UNL     1      30.030   7.869  46.028  1.00  0.00    -0.396 N 
HETATM    5  C10 UNL     1      31.213   7.113  45.818  1.00  0.00     0.119 C 
HETATM    6  C11 UNL     1      31.762   6.068  46.410  1.00  0.00     0.127 A 
HETATM    7  C12 UNL     1      31.376   5.241  47.540  1.00  0.00     0.201 A 
HETATM    8  N3  UNL     1      32.060   4.243  47.992  1.00  0.00    -0.214 NA
HETATM    9  C13 UNL     1      33.294   3.953  47.299  1.00  0.00     0.258 A 
HETATM   10  N4  UNL     1      33.689   4.668  46.274  1.00  0.00    -0.160 NA
HETATM   11  N5  UNL     1      32.967   5.746  45.773  1.00  0.00    -0.227 N 
HETATM   12  O2  UNL     1      30.243   5.287  48.394  1.00  0.00    -0.294 OA
HETATM   13  H14 UNL     1      29.713   8.333  45.128  1.00  0.00     0.158 HD
ENDROOT
BRANCH   1  14
HETATM   14  C6  UNL     1      27.961   5.089  48.658  1.00  0.00     0.035 C 
BRANCH  14  15
HETATM   15  C5  UNL     1      26.969   4.304  49.291  1.00  0.00     0.029 C 
BRANCH  15  16
HETATM   16  C3  UNL     1      26.110   3.567  49.917  1.00  0.00     0.036 C 
HETATM   17  C4  UNL     1      24.696   3.471  49.416  1.00  0.00     0.071 C 
BRANCH  16  18
HETATM   18  N1  UNL     1      26.300   2.790  51.062  1.00  0.00    -0.241 N 
BRANCH  18  19
HETATM   19  C2  UNL     1      25.262   1.918  51.500  1.00  0.00     0.113 C 
HETATM   20  C1  UNL     1      25.999   0.901  51.924  1.00  0.00     0.032 C 
ENDBRANCH  18  19
BRANCH  18  21
HETATM   21  O1  UNL     1      27.486   2.921  51.692  1.00  0.00    -0.283 OA
HETATM   22  H4  UNL     1      27.438   3.568  52.437  1.00  0.00     0.245 HD
ENDBRANCH  18  21
ENDBRANCH  16  18
ENDBRANCH  15  16
ENDBRANCH  14  15
ENDBRANCH   1  14
BRANCH  11  23
HETATM   23  C14 UNL     1      33.414   6.519  44.657  1.00  0.00     0.060 A 
HETATM   24  C15 UNL     1      33.109   6.198  43.325  1.00  0.00     0.032 A 
HETATM   25  C16 UNL     1      33.630   7.043  42.379  1.00  0.00     0.004 A 
HETATM   26  C17 UNL     1      34.409   8.151  42.602  1.00  0.00     0.019 A 
HETATM   27  C18 UNL     1      34.656   8.386  43.937  1.00  0.00     0.013 A 
HETATM   28 BR1  UNL     1      35.734   9.909  44.403  1.00  0.00    -0.051 Br
HETATM   29  C19 UNL     1      34.194   7.618  45.004  1.00  0.00     0.050 A 
ENDBRANCH  11  23
TORSDOF 7
ENDMDL
MODEL 7
REMARK VINA RESULT:      -6.8      4.174      9.246
REMARK  7 active torsions:
REMARK  status: ('A' for Active; 'I' for Inactive)
REMARK    1  A    between atoms: C2_2  and  N1_3 
REMARK    2  A    between atoms: N1_3  and  O1_4 
REMARK    3  A    between atoms: N1_3  and  C3_5 
REMARK    4  A    between atoms: C3_5  and  C5_7 
REMARK    5  A    between atoms: C5_7  and  C6_8 
REMARK    6  A    between atoms: C6_8  and  C7_9 
REMARK    7  A    between atoms: N5_19  and  C14_20 
ROOT
HETATM    1  C7  UNL     1      23.452   0.951  53.159  1.00  0.00     0.057 C 
HETATM    2  C8  UNL     1      22.520  -0.200  53.271  1.00  0.00     0.084 C 
HETATM    3  C9  UNL     1      21.133   0.190  53.666  1.00  0.00     0.125 C 
HETATM    4  N2  UNL     1      20.333   0.675  52.538  1.00  0.00    -0.396 N 
HETATM    5  C10 UNL     1      20.291   1.963  51.945  1.00  0.00     0.119 C 
HETATM    6  C11 UNL     1      21.140   2.970  51.853  1.00  0.00     0.127 A 
HETATM    7  C12 UNL     1      22.497   3.181  52.328  1.00  0.00     0.201 A 
HETATM    8  N3  UNL     1      23.184   4.259  52.147  1.00  0.00    -0.214 NA
HETATM    9  C13 UNL     1      22.526   5.315  51.414  1.00  0.00     0.258 A 
HETATM   10  N4  UNL     1      21.302   5.178  50.963  1.00  0.00    -0.160 NA
HETATM   11  N5  UNL     1      20.547   4.024  51.148  1.00  0.00    -0.227 N 
HETATM   12  O2  UNL     1      23.377   2.340  53.060  1.00  0.00    -0.294 OA
HETATM   13  H14 UNL     1      19.664   0.011  52.050  1.00  0.00     0.158 HD
ENDROOT
BRANCH   1  14
HETATM   14  C6  UNL     1      24.630   0.408  53.164  1.00  0.00     0.035 C 
BRANCH  14  15
HETATM   15  C5  UNL     1      25.846  -0.315  53.124  1.00  0.00     0.029 C 
BRANCH  15  16
HETATM   16  C3  UNL     1      26.921  -1.034  53.103  1.00  0.00     0.036 C 
HETATM   17  C4  UNL     1      26.977  -2.274  52.256  1.00  0.00     0.071 C 
BRANCH  16  18
HETATM   18  N1  UNL     1      28.120  -0.826  53.786  1.00  0.00    -0.241 N 
BRANCH  18  19
HETATM   19  C2  UNL     1      28.258   0.309  54.636  1.00  0.00     0.113 C 
HETATM   20  C1  UNL     1      29.291   0.895  54.047  1.00  0.00     0.032 C 
ENDBRANCH  18  19
BRANCH  18  21
HETATM   21  O1  UNL     1      29.094  -1.740  53.590  1.00  0.00    -0.283 OA
HETATM   22  H4  UNL     1      28.826  -2.429  52.937  1.00  0.00     0.245 HD
ENDBRANCH  18  21
ENDBRANCH  16  18
ENDBRANCH  15  16
ENDBRANCH  14  15
ENDBRANCH   1  14
BRANCH  11  23
HETATM   23  C14 UNL     1      19.212   3.892  50.655  1.00  0.00     0.060 A 
HETATM   24  C15 UNL     1      18.079   3.921  51.483  1.00  0.00     0.032 A 
HETATM   25  C16 UNL     1      16.875   3.768  50.843  1.00  0.00     0.004 A 
HETATM   26  C17 UNL     1      16.673   3.592  49.497  1.00  0.00     0.019 A 
HETATM   27  C18 UNL     1      17.842   3.576  48.767  1.00  0.00     0.013 A 
HETATM   28 BR1  UNL     1      17.713   3.338  46.862  1.00  0.00    -0.051 Br
HETATM   29  C19 UNL     1      19.130   3.719  49.277  1.00  0.00     0.050 A 
ENDBRANCH  11  23
TORSDOF 7
ENDMDL
MODEL 8
REMARK VINA RESULT:      -6.7      5.957      9.948
REMARK  7 active torsions:
REMARK  status: ('A' for Active; 'I' for Inactive)
REMARK    1  A    between atoms: C2_2  and  N1_3 
REMARK    2  A    between atoms: N1_3  and  O1_4 
REMARK    3  A    between atoms: N1_3  and  C3_5 
REMARK    4  A    between atoms: C3_5  and  C5_7 
REMARK    5  A    between atoms: C5_7  and  C6_8 
REMARK    6  A    between atoms: C6_8  and  C7_9 
REMARK    7  A    between atoms: N5_19  and  C14_20 
ROOT
HETATM    1  C7  UNL     1      25.886   5.325  49.013  1.00  0.00     0.057 C 
HETATM    2  C8  UNL     1      24.571   5.893  48.622  1.00  0.00     0.084 C 
HETATM    3  C9  UNL     1      23.512   4.861  48.413  1.00  0.00     0.125 C 
HETATM    4  N2  UNL     1      22.898   4.411  49.665  1.00  0.00    -0.396 N 
HETATM    5  C10 UNL     1      23.349   3.443  50.599  1.00  0.00     0.119 C 
HETATM    6  C11 UNL     1      24.531   2.958  50.934  1.00  0.00     0.127 A 
HETATM    7  C12 UNL     1      25.886   3.222  50.479  1.00  0.00     0.201 A 
HETATM    8  N3  UNL     1      26.943   2.631  50.926  1.00  0.00    -0.214 NA
HETATM    9  C13 UNL     1      26.729   1.640  51.955  1.00  0.00     0.258 A 
HETATM   10  N4  UNL     1      25.528   1.363  52.402  1.00  0.00    -0.160 NA
HETATM   11  N5  UNL     1      24.378   1.989  51.932  1.00  0.00    -0.227 N 
HETATM   12  O2  UNL     1      26.390   4.121  49.503  1.00  0.00    -0.294 OA
HETATM   13  H14 UNL     1      21.976   4.835  49.975  1.00  0.00     0.158 HD
ENDROOT
BRANCH   1  14
HETATM   14  C6  UNL     1      26.725   6.293  48.804  1.00  0.00     0.035 C 
BRANCH  14  15
HETATM   15  C5  UNL     1      27.733   7.242  48.516  1.00  0.00     0.029 C 
BRANCH  15  16
HETATM   16  C3  UNL     1      28.689   8.060  48.217  1.00  0.00     0.036 C 
HETATM   17  C4  UNL     1      29.060   8.288  46.778  1.00  0.00     0.071 C 
BRANCH  16  18
HETATM   18  N1  UNL     1      29.485   8.820  49.076  1.00  0.00    -0.241 N 
BRANCH  18  19
HETATM   19  C2  UNL     1      30.852   9.054  48.746  1.00  0.00     0.113 C 
HETATM   20  C1  UNL     1      31.417   8.110  49.485  1.00  0.00     0.032 C 
ENDBRANCH  18  19
BRANCH  18  21
HETATM   21  O1  UNL     1      28.891   9.295  50.191  1.00  0.00    -0.283 OA
HETATM   22  H4  UNL     1      29.099  10.248  50.341  1.00  0.00     0.245 HD
ENDBRANCH  18  21
ENDBRANCH  16  18
ENDBRANCH  15  16
ENDBRANCH  14  15
ENDBRANCH   1  14
BRANCH  11  23
HETATM   23  C14 UNL     1      23.074   1.672  52.425  1.00  0.00     0.060 A 
HETATM   24  C15 UNL     1      21.983   2.551  52.340  1.00  0.00     0.032 A 
HETATM   25  C16 UNL     1      20.808   2.088  52.874  1.00  0.00     0.004 A 
HETATM   26  C17 UNL     1      20.597   0.872  53.475  1.00  0.00     0.019 A 
HETATM   27  C18 UNL     1      21.724   0.079  53.514  1.00  0.00     0.013 A 
HETATM   28 BR1  UNL     1      21.578  -1.658  54.326  1.00  0.00    -0.051 Br
HETATM   29  C19 UNL     1      22.979   0.414  53.012  1.00  0.00     0.050 A 
ENDBRANCH  11  23
TORSDOF 7
ENDMDL
MODEL 9
REMARK VINA RESULT:      -6.7      4.134      9.499
REMARK  7 active torsions:
REMARK  status: ('A' for Active; 'I' for Inactive)
REMARK    1  A    between atoms: C2_2  and  N1_3 
REMARK    2  A    between atoms: N1_3  and  O1_4 
REMARK    3  A    between atoms: N1_3  and  C3_5 
REMARK    4  A    between atoms: C3_5  and  C5_7 
REMARK    5  A    between atoms: C5_7  and  C6_8 
REMARK    6  A    between atoms: C6_8  and  C7_9 
REMARK    7  A    between atoms: N5_19  and  C14_20 
ROOT
HETATM    1  C7  UNL     1      22.064   0.720  52.924  1.00  0.00     0.057 C 
HETATM    2  C8  UNL     1      21.943  -0.684  53.394  1.00  0.00     0.084 C 
HETATM    3  C9  UNL     1      20.675  -0.959  54.135  1.00  0.00     0.125 C 
HETATM    4  N2  UNL     1      19.536  -1.203  53.247  1.00  0.00    -0.396 N 
HETATM    5  C10 UNL     1      18.689  -0.276  52.584  1.00  0.00     0.119 C 
HETATM    6  C11 UNL     1      18.824   0.970  52.169  1.00  0.00     0.127 A 
HETATM    7  C12 UNL     1      19.916   1.928  52.216  1.00  0.00     0.201 A 
HETATM    8  N3  UNL     1      19.861   3.133  51.756  1.00  0.00    -0.214 NA
HETATM    9  C13 UNL     1      18.608   3.526  51.155  1.00  0.00     0.258 A 
HETATM   10  N4  UNL     1      17.591   2.702  51.087  1.00  0.00    -0.160 NA
HETATM   11  N5  UNL     1      17.631   1.401  51.577  1.00  0.00    -0.227 N 
HETATM   12  O2  UNL     1      21.234   1.824  52.733  1.00  0.00    -0.294 OA
HETATM   13  H14 UNL     1      19.249  -2.201  53.028  1.00  0.00     0.158 HD
ENDROOT
BRANCH   1  14
HETATM   14  C6  UNL     1      23.322   0.851  52.636  1.00  0.00     0.035 C 
BRANCH  14  15
HETATM   15  C5  UNL     1      24.654   1.117  52.240  1.00  0.00     0.029 C 
BRANCH  15  16
HETATM   16  C3  UNL     1      25.884   1.382  51.942  1.00  0.00     0.036 C 
HETATM   17  C4  UNL     1      26.961   0.374  52.235  1.00  0.00     0.071 C 
BRANCH  16  18
HETATM   18  N1  UNL     1      26.408   2.533  51.351  1.00  0.00    -0.241 N 
BRANCH  18  19
HETATM   19  C2  UNL     1      25.655   3.215  50.351  1.00  0.00     0.113 C 
HETATM   20  C1  UNL     1      26.643   3.565  49.539  1.00  0.00     0.032 C 
ENDBRANCH  18  19
BRANCH  18  21
HETATM   21  O1  UNL     1      27.625   2.932  51.777  1.00  0.00    -0.283 OA
HETATM   22  H4  UNL     1      27.706   3.916  51.789  1.00  0.00     0.245 HD
ENDBRANCH  18  21
ENDBRANCH  16  18
ENDBRANCH  15  16
ENDBRANCH  14  15
ENDBRANCH   1  14
BRANCH  11  23
HETATM   23  C14 UNL     1      16.511   0.515  51.499  1.00  0.00     0.060 A 
HETATM   24  C15 UNL     1      16.400  -0.505  50.542  1.00  0.00     0.032 A 
HETATM   25  C16 UNL     1      15.253  -1.253  50.606  1.00  0.00     0.004 A 
HETATM   26  C17 UNL     1      14.220  -1.104  51.497  1.00  0.00     0.019 A 
HETATM   27  C18 UNL     1      14.417  -0.079  52.396  1.00  0.00     0.013 A 
HETATM   28 BR1  UNL     1      13.050   0.247  53.710  1.00  0.00    -0.051 Br
HETATM   29  C19 UNL     1      15.528   0.760  52.452  1.00  0.00     0.050 A 
ENDBRANCH  11  23
TORSDOF 7
ENDMDL
