MODEL 1
REMARK VINA RESULT:      -8.6      0.000      0.000
REMARK  7 active torsions:
REMARK  status: ('A' for Active; 'I' for Inactive)
REMARK    1  A    between atoms: O1_2  and  C2_3 
REMARK    2  A    between atoms: C6_9  and  N3_10 
REMARK    3  A    between atoms: N3_10  and  C7_11 
REMARK    4  A    between atoms: C15_20  and  N4_21 
REMARK       I    between atoms: N4_21  and  C16_22 
REMARK    5  A    between atoms: C16_22  and  S1_24 
REMARK    6  A    between atoms: S1_24  and  C17_25 
REMARK    7  A    between atoms: C17_25  and  C18_26 
REMARK       I    between atoms: C18_26  and  N5_27 
ROOT
HETATM    1  C2  UNL     1      22.695   0.119  53.073  1.00  0.00     0.097 A 
HETATM    2  C3  UNL     1      21.587   0.794  52.609  1.00  0.00     0.071 A 
HETATM    3  C4  UNL     1      21.699   2.095  52.169  1.00  0.00     0.075 A 
HETATM    4  N1  UNL     1      20.553   2.644  51.743  1.00  0.00    -0.241 NA
HETATM    5  C5  UNL     1      20.588   3.912  51.302  1.00  0.00     0.236 A 
HETATM    6  N2  UNL     1      21.752   4.568  51.305  1.00  0.00    -0.224 NA
HETATM    7  C6  UNL     1      22.932   4.091  51.713  1.00  0.00     0.142 A 
HETATM    8  C13 UNL     1      22.878   2.794  52.161  1.00  0.00     0.041 A 
HETATM    9  C14 UNL     1      23.944   2.080  52.630  1.00  0.00     0.050 A 
HETATM   10  C15 UNL     1      23.906   0.780  53.083  1.00  0.00     0.070 A 
ENDROOT
BRANCH  10  11
HETATM   11  N4  UNL     1      25.005   0.051  53.565  1.00  0.00    -0.315 N 
HETATM   12  C16 UNL     1      26.238   0.064  52.864  1.00  0.00     0.284 C 
HETATM   13  O2  UNL     1      26.643   0.620  51.805  1.00  0.00    -0.260 OA
HETATM   14  H12 UNL     1      25.114  -0.545  54.404  1.00  0.00     0.170 HD
BRANCH  12  15
HETATM   15  S1  UNL     1      27.805  -0.708  53.149  1.00  0.00    -0.060 SA
BRANCH  15  16
HETATM   16  C17 UNL     1      28.628   0.061  54.569  1.00  0.00     0.186 C 
BRANCH  16  17
HETATM   17  C18 UNL     1      28.770   1.533  54.412  1.00  0.00     0.225 C 
HETATM   18  N5  UNL     1      28.215   2.644  53.749  1.00  0.00    -0.369 N 
HETATM   19  H15 UNL     1      27.450   3.282  54.061  1.00  0.00     0.159 HD
HETATM   20  H16 UNL     1      28.452   3.050  52.822  1.00  0.00     0.159 HD
HETATM   21  O3  UNL     1      29.626   2.265  54.977  1.00  0.00    -0.273 OA
ENDBRANCH  16  17
ENDBRANCH  15  16
ENDBRANCH  12  15
ENDBRANCH  10  11
BRANCH   1  22
HETATM   22  O1  UNL     1      22.577  -1.191  53.513  1.00  0.00    -0.354 OA
HETATM   23  C1  UNL     1      21.681  -1.553  54.559  1.00  0.00     0.210 C 
ENDBRANCH   1  22
BRANCH   7  24
HETATM   24  N3  UNL     1      24.171   4.773  51.724  1.00  0.00    -0.340 N 
HETATM   25  H6  UNL     1      24.488   5.304  52.533  1.00  0.00     0.167 HD
BRANCH  24  26
HETATM   26  C7  UNL     1      25.148   4.857  50.700  1.00  0.00     0.035 A 
HETATM   27  C8  UNL     1      25.972   3.818  50.299  1.00  0.00     0.029 A 
HETATM   28  C9  UNL     1      26.910   3.927  49.307  1.00  0.00     0.004 A 
HETATM   29  C10 UNL     1      27.091   5.117  48.636  1.00  0.00     0.019 A 
HETATM   30  C11 UNL     1      26.292   6.174  49.005  1.00  0.00     0.013 A 
HETATM   31 BR1  UNL     1      26.582   7.796  48.045  1.00  0.00    -0.051 Br
HETATM   32  C12 UNL     1      25.362   6.013  50.009  1.00  0.00     0.048 A 
ENDBRANCH  24  26
ENDBRANCH   7  24
TORSDOF 7
ENDMDL
MODEL 2
REMARK VINA RESULT:      -8.5      2.710      3.852
REMARK  7 active torsions:
REMARK  status: ('A' for Active; 'I' for Inactive)
REMARK    1  A    between atoms: O1_2  and  C2_3 
REMARK    2  A    between atoms: C6_9  and  N3_10 
REMARK    3  A    between atoms: N3_10  and  C7_11 
REMARK    4  A    between atoms: C15_20  and  N4_21 
REMARK       I    between atoms: N4_21  and  C16_22 
REMARK    5  A    between atoms: C16_22  and  S1_24 
REMARK    6  A    between atoms: S1_24  and  C17_25 
REMARK    7  A    between atoms: C17_25  and  C18_26 
REMARK       I    between atoms: C18_26  and  N5_27 
ROOT
HETATM    1  C2  UNL     1      24.736   1.664  51.873  1.00  0.00     0.097 A 
HETATM    2  C3  UNL     1      23.885   2.529  51.222  1.00  0.00     0.071 A 
HETATM    3  C4  UNL     1      24.387   3.509  50.393  1.00  0.00     0.075 A 
HETATM    4  N1  UNL     1      23.462   4.288  49.818  1.00  0.00    -0.241 NA
HETATM    5  C5  UNL     1      23.881   5.266  48.999  1.00  0.00     0.236 A 
HETATM    6  N2  UNL     1      25.192   5.420  48.792  1.00  0.00    -0.224 NA
HETATM    7  C6  UNL     1      26.173   4.687  49.327  1.00  0.00     0.142 A 
HETATM    8  C13 UNL     1      25.726   3.693  50.161  1.00  0.00     0.041 A 
HETATM    9  C14 UNL     1      26.526   2.809  50.830  1.00  0.00     0.050 A 
HETATM   10  C15 UNL     1      26.094   1.808  51.671  1.00  0.00     0.070 A 
ENDROOT
BRANCH  10  11
HETATM   11  N4  UNL     1      26.921   0.903  52.355  1.00  0.00    -0.315 N 
HETATM   12  C16 UNL     1      27.734   1.346  53.429  1.00  0.00     0.284 C 
HETATM   13  O2  UNL     1      27.927   2.463  53.987  1.00  0.00    -0.260 OA
HETATM   14  H12 UNL     1      27.073  -0.113  52.229  1.00  0.00     0.170 HD
BRANCH  12  15
HETATM   15  S1  UNL     1      28.879   0.527  54.503  1.00  0.00    -0.060 SA
BRANCH  15  16
HETATM   16  C17 UNL     1      29.698  -0.829  53.621  1.00  0.00     0.186 C 
BRANCH  16  17
HETATM   17  C18 UNL     1      28.779  -1.969  53.358  1.00  0.00     0.225 C 
HETATM   18  N5  UNL     1      28.760  -3.357  53.123  1.00  0.00    -0.369 N 
HETATM   19  H15 UNL     1      28.684  -4.139  53.808  1.00  0.00     0.159 HD
HETATM   20  H16 UNL     1      28.817  -3.878  52.226  1.00  0.00     0.159 HD
HETATM   21  O3  UNL     1      27.523  -1.910  53.270  1.00  0.00    -0.273 OA
ENDBRANCH  16  17
ENDBRANCH  15  16
ENDBRANCH  12  15
ENDBRANCH  10  11
BRANCH   1  22
HETATM   22  O1  UNL     1      24.225   0.679  52.705  1.00  0.00    -0.354 OA
HETATM   23  C1  UNL     1      22.853   0.658  53.086  1.00  0.00     0.210 C 
ENDBRANCH   1  22
BRANCH   7  24
HETATM   24  N3  UNL     1      27.564   4.839  49.118  1.00  0.00    -0.340 N 
HETATM   25  H6  UNL     1      28.245   4.209  49.538  1.00  0.00     0.167 HD
BRANCH  24  26
HETATM   26  C7  UNL     1      28.246   5.815  48.349  1.00  0.00     0.035 A 
HETATM   27  C8  UNL     1      27.672   6.968  47.836  1.00  0.00     0.029 A 
HETATM   28  C9  UNL     1      28.354   7.895  47.093  1.00  0.00     0.004 A 
HETATM   29  C10 UNL     1      29.691   7.722  46.806  1.00  0.00     0.019 A 
HETATM   30  C11 UNL     1      30.298   6.589  47.297  1.00  0.00     0.013 A 
HETATM   31 BR1  UNL     1      32.147   6.400  46.872  1.00  0.00    -0.051 Br
HETATM   32  C12 UNL     1      29.568   5.687  48.040  1.00  0.00     0.048 A 
ENDBRANCH  24  26
ENDBRANCH   7  24
TORSDOF 7
ENDMDL
MODEL 3
REMARK VINA RESULT:      -8.4      1.764      2.325
REMARK  7 active torsions:
REMARK  status: ('A' for Active; 'I' for Inactive)
REMARK    1  A    between atoms: O1_2  and  C2_3 
REMARK    2  A    between atoms: C6_9  and  N3_10 
REMARK    3  A    between atoms: N3_10  and  C7_11 
REMARK    4  A    between atoms: C15_20  and  N4_21 
REMARK       I    between atoms: N4_21  and  C16_22 
REMARK    5  A    between atoms: C16_22  and  S1_24 
REMARK    6  A    between atoms: S1_24  and  C17_25 
REMARK    7  A    between atoms: C17_25  and  C18_26 
REMARK       I    between atoms: C18_26  and  N5_27 
ROOT
HETATM    1  C2  UNL     1      23.163   0.181  53.403  1.00  0.00     0.097 A 
HETATM    2  C3  UNL     1      21.948   0.737  53.067  1.00  0.00     0.071 A 
HETATM    3  C4  UNL     1      21.869   1.695  52.081  1.00  0.00     0.075 A 
HETATM    4  N1  UNL     1      20.634   2.160  51.846  1.00  0.00    -0.241 NA
HETATM    5  C5  UNL     1      20.483   3.099  50.899  1.00  0.00     0.236 A 
HETATM    6  N2  UNL     1      21.560   3.528  50.234  1.00  0.00    -0.224 NA
HETATM    7  C6  UNL     1      22.819   3.116  50.411  1.00  0.00     0.142 A 
HETATM    8  C13 UNL     1      22.955   2.157  51.383  1.00  0.00     0.041 A 
HETATM    9  C14 UNL     1      24.134   1.574  51.754  1.00  0.00     0.050 A 
HETATM   10  C15 UNL     1      24.286   0.612  52.727  1.00  0.00     0.070 A 
ENDROOT
BRANCH  10  11
HETATM   11  N4  UNL     1      25.501   0.018  53.103  1.00  0.00    -0.315 N 
HETATM   12  C16 UNL     1      26.403   0.705  53.955  1.00  0.00     0.284 C 
HETATM   13  O2  UNL     1      26.394   1.835  54.520  1.00  0.00    -0.260 OA
HETATM   14  H12 UNL     1      25.912  -0.903  52.870  1.00  0.00     0.170 HD
BRANCH  12  15
HETATM   15  S1  UNL     1      27.989   0.296  54.629  1.00  0.00    -0.060 SA
BRANCH  15  16
HETATM   16  C17 UNL     1      28.967  -0.617  53.406  1.00  0.00     0.186 C 
BRANCH  16  17
HETATM   17  C18 UNL     1      28.468  -2.004  53.205  1.00  0.00     0.225 C 
HETATM   18  N5  UNL     1      28.854  -3.355  53.299  1.00  0.00    -0.369 N 
HETATM   19  H15 UNL     1      28.773  -4.007  54.109  1.00  0.00     0.159 HD
HETATM   20  H16 UNL     1      29.294  -3.970  52.587  1.00  0.00     0.159 HD
HETATM   21  O3  UNL     1      27.317  -2.333  52.811  1.00  0.00    -0.273 OA
ENDBRANCH  16  17
ENDBRANCH  15  16
ENDBRANCH  12  15
ENDBRANCH  10  11
BRANCH   1  22
HETATM   22  O1  UNL     1      23.237  -0.784  54.395  1.00  0.00    -0.354 OA
HETATM   23  C1  UNL     1      22.073  -1.431  54.901  1.00  0.00     0.210 C 
ENDBRANCH   1  22
BRANCH   7  24
HETATM   24  N3  UNL     1      23.969   3.562  49.716  1.00  0.00    -0.340 N 
HETATM   25  H6  UNL     1      24.446   2.977  49.033  1.00  0.00     0.167 HD
BRANCH  24  26
HETATM   26  C7  UNL     1      24.641   4.806  49.816  1.00  0.00     0.035 A 
HETATM   27  C8  UNL     1      24.248   5.860  50.625  1.00  0.00     0.029 A 
HETATM   28  C9  UNL     1      24.916   7.053  50.702  1.00  0.00     0.004 A 
HETATM   29  C10 UNL     1      26.050   7.275  49.951  1.00  0.00     0.019 A 
HETATM   30  C11 UNL     1      26.473   6.253  49.134  1.00  0.00     0.013 A 
HETATM   31 BR1  UNL     1      28.046   6.612  48.118  1.00  0.00    -0.051 Br
HETATM   32  C12 UNL     1      25.766   5.070  49.093  1.00  0.00     0.048 A 
ENDBRANCH  24  26
ENDBRANCH   7  24
TORSDOF 7
ENDMDL
MODEL 4
REMARK VINA RESULT:      -8.3      1.777      2.349
REMARK  7 active torsions:
REMARK  status: ('A' for Active; 'I' for Inactive)
REMARK    1  A    between atoms: O1_2  and  C2_3 
REMARK    2  A    between atoms: C6_9  and  N3_10 
REMARK    3  A    between atoms: N3_10  and  C7_11 
REMARK    4  A    between atoms: C15_20  and  N4_21 
REMARK       I    between atoms: N4_21  and  C16_22 
REMARK    5  A    between atoms: C16_22  and  S1_24 
REMARK    6  A    between atoms: S1_24  and  C17_25 
REMARK    7  A    between atoms: C17_25  and  C18_26 
REMARK       I    between atoms: C18_26  and  N5_27 
ROOT
HETATM    1  C2  UNL     1      23.805   1.273  52.996  1.00  0.00     0.097 A 
HETATM    2  C3  UNL     1      22.592   1.428  52.362  1.00  0.00     0.071 A 
HETATM    3  C4  UNL     1      22.188   2.671  51.926  1.00  0.00     0.075 A 
HETATM    4  N1  UNL     1      20.991   2.695  51.325  1.00  0.00    -0.241 NA
HETATM    5  C5  UNL     1      20.533   3.875  50.878  1.00  0.00     0.236 A 
HETATM    6  N2  UNL     1      21.284   4.967  51.046  1.00  0.00    -0.224 NA
HETATM    7  C6  UNL     1      22.483   5.025  51.633  1.00  0.00     0.142 A 
HETATM    8  C13 UNL     1      22.935   3.810  52.085  1.00  0.00     0.041 A 
HETATM    9  C14 UNL     1      24.128   3.601  52.719  1.00  0.00     0.050 A 
HETATM   10  C15 UNL     1      24.594   2.390  53.179  1.00  0.00     0.070 A 
ENDROOT
BRANCH  10  11
HETATM   11  N4  UNL     1      25.820   2.182  53.830  1.00  0.00    -0.315 N 
HETATM   12  C16 UNL     1      27.039   2.264  53.109  1.00  0.00     0.284 C 
HETATM   13  O2  UNL     1      27.335   2.498  51.904  1.00  0.00    -0.260 OA
HETATM   14  H12 UNL     1      26.040   1.966  54.818  1.00  0.00     0.170 HD
BRANCH  12  15
HETATM   15  S1  UNL     1      28.737   2.067  53.569  1.00  0.00    -0.060 SA
BRANCH  15  16
HETATM   16  C17 UNL     1      29.065   0.340  54.013  1.00  0.00     0.186 C 
BRANCH  16  17
HETATM   17  C18 UNL     1      27.816  -0.458  54.142  1.00  0.00     0.225 C 
HETATM   18  N5  UNL     1      27.000  -1.375  53.454  1.00  0.00    -0.369 N 
HETATM   19  H15 UNL     1      27.039  -2.417  53.451  1.00  0.00     0.159 HD
HETATM   20  H16 UNL     1      26.199  -1.200  52.815  1.00  0.00     0.159 HD
HETATM   21  O3  UNL     1      27.045  -0.479  55.139  1.00  0.00    -0.273 OA
ENDBRANCH  16  17
ENDBRANCH  15  16
ENDBRANCH  12  15
ENDBRANCH  10  11
BRANCH   1  22
HETATM   22  O1  UNL     1      24.207   0.019  53.432  1.00  0.00    -0.354 OA
HETATM   23  C1  UNL     1      23.358  -0.808  54.221  1.00  0.00     0.210 C 
ENDBRANCH   1  22
BRANCH   7  24
HETATM   24  N3  UNL     1      23.288   6.174  51.820  1.00  0.00    -0.340 N 
HETATM   25  H6  UNL     1      23.309   6.679  52.703  1.00  0.00     0.167 HD
BRANCH  24  26
HETATM   26  C7  UNL     1      24.158   6.808  50.898  1.00  0.00     0.035 A 
HETATM   27  C8  UNL     1      24.084   8.139  50.520  1.00  0.00     0.029 A 
HETATM   28  C9  UNL     1      24.937   8.727  49.624  1.00  0.00     0.004 A 
HETATM   29  C10 UNL     1      25.947   8.000  49.032  1.00  0.00     0.019 A 
HETATM   30  C11 UNL     1      26.055   6.674  49.381  1.00  0.00     0.013 A 
HETATM   31 BR1  UNL     1      27.469   5.715  48.534  1.00  0.00    -0.051 Br
HETATM   32  C12 UNL     1      25.172   6.130  50.288  1.00  0.00     0.048 A 
ENDBRANCH  24  26
ENDBRANCH   7  24
TORSDOF 7
ENDMDL
MODEL 5
REMARK VINA RESULT:      -8.0      3.921      6.066
REMARK  7 active torsions:
REMARK  status: ('A' for Active; 'I' for Inactive)
REMARK    1  A    between atoms: O1_2  and  C2_3 
REMARK    2  A    between atoms: C6_9  and  N3_10 
REMARK    3  A    between atoms: N3_10  and  C7_11 
REMARK    4  A    between atoms: C15_20  and  N4_21 
REMARK       I    between atoms: N4_21  and  C16_22 
REMARK    5  A    between atoms: C16_22  and  S1_24 
REMARK    6  A    between atoms: S1_24  and  C17_25 
REMARK    7  A    between atoms: C17_25  and  C18_26 
REMARK       I    between atoms: C18_26  and  N5_27 
ROOT
HETATM    1  C2  UNL     1      20.538   2.672  52.340  1.00  0.00     0.097 A 
HETATM    2  C3  UNL     1      20.460   1.643  53.253  1.00  0.00     0.071 A 
HETATM    3  C4  UNL     1      21.542   0.817  53.465  1.00  0.00     0.075 A 
HETATM    4  N1  UNL     1      21.344  -0.146  54.376  1.00  0.00    -0.241 NA
HETATM    5  C5  UNL     1      22.356  -0.990  54.631  1.00  0.00     0.236 A 
HETATM    6  N2  UNL     1      23.510  -0.837  53.974  1.00  0.00    -0.224 NA
HETATM    7  C6  UNL     1      23.783   0.094  53.055  1.00  0.00     0.142 A 
HETATM    8  C13 UNL     1      22.737   0.948  52.806  1.00  0.00     0.041 A 
HETATM    9  C14 UNL     1      22.762   1.982  51.913  1.00  0.00     0.050 A 
HETATM   10  C15 UNL     1      21.721   2.845  51.652  1.00  0.00     0.070 A 
ENDROOT
BRANCH  10  11
HETATM   11  N4  UNL     1      21.753   3.906  50.733  1.00  0.00    -0.315 N 
HETATM   12  C16 UNL     1      22.595   5.025  50.956  1.00  0.00     0.284 C 
HETATM   13  O2  UNL     1      23.408   5.348  51.867  1.00  0.00    -0.260 OA
HETATM   14  H12 UNL     1      21.245   4.053  49.843  1.00  0.00     0.170 HD
BRANCH  12  15
HETATM   15  S1  UNL     1      22.899   6.516  50.051  1.00  0.00    -0.060 SA
BRANCH  15  16
HETATM   16  C17 UNL     1      24.069   7.564  50.956  1.00  0.00     0.186 C 
BRANCH  16  17
HETATM   17  C18 UNL     1      25.454   7.455  50.425  1.00  0.00     0.225 C 
HETATM   18  N5  UNL     1      26.706   8.098  50.430  1.00  0.00    -0.369 N 
HETATM   19  H15 UNL     1      27.510   7.968  51.082  1.00  0.00     0.159 HD
HETATM   20  H16 UNL     1      27.080   8.827  49.790  1.00  0.00     0.159 HD
HETATM   21  O3  UNL     1      25.897   6.540  49.679  1.00  0.00    -0.273 OA
ENDBRANCH  16  17
ENDBRANCH  15  16
ENDBRANCH  12  15
ENDBRANCH  10  11
BRANCH   1  22
HETATM   22  O1  UNL     1      19.446   3.501  52.132  1.00  0.00    -0.354 OA
HETATM   23  C1  UNL     1      18.228   3.013  51.581  1.00  0.00     0.210 C 
ENDBRANCH   1  22
BRANCH   7  24
HETATM   24  N3  UNL     1      24.998   0.268  52.350  1.00  0.00    -0.340 N 
HETATM   25  H6  UNL     1      25.068   0.102  51.348  1.00  0.00     0.167 HD
BRANCH  24  26
HETATM   26  C7  UNL     1      26.263   0.672  52.846  1.00  0.00     0.035 A 
HETATM   27  C8  UNL     1      26.597   1.966  53.214  1.00  0.00     0.029 A 
HETATM   28  C9  UNL     1      27.830   2.330  53.689  1.00  0.00     0.004 A 
HETATM   29  C10 UNL     1      28.835   1.397  53.828  1.00  0.00     0.019 A 
HETATM   30  C11 UNL     1      28.542   0.101  53.474  1.00  0.00     0.013 A 
HETATM   31 BR1  UNL     1      29.966  -1.150  53.688  1.00  0.00    -0.051 Br
HETATM   32  C12 UNL     1      27.286  -0.215  53.002  1.00  0.00     0.048 A 
ENDBRANCH  24  26
ENDBRANCH   7  24
TORSDOF 7
ENDMDL
MODEL 6
REMARK VINA RESULT:      -8.0      3.249      6.009
REMARK  7 active torsions:
REMARK  status: ('A' for Active; 'I' for Inactive)
REMARK    1  A    between atoms: O1_2  and  C2_3 
REMARK    2  A    between atoms: C6_9  and  N3_10 
REMARK    3  A    between atoms: N3_10  and  C7_11 
REMARK    4  A    between atoms: C15_20  and  N4_21 
REMARK       I    between atoms: N4_21  and  C16_22 
REMARK    5  A    between atoms: C16_22  and  S1_24 
REMARK    6  A    between atoms: S1_24  and  C17_25 
REMARK    7  A    between atoms: C17_25  and  C18_26 
REMARK       I    between atoms: C18_26  and  N5_27 
ROOT
HETATM    1  C2  UNL     1      26.099   3.519  49.897  1.00  0.00     0.097 A 
HETATM    2  C3  UNL     1      24.898   3.772  49.270  1.00  0.00     0.071 A 
HETATM    3  C4  UNL     1      23.709   3.461  49.892  1.00  0.00     0.075 A 
HETATM    4  N1  UNL     1      22.610   3.754  49.182  1.00  0.00    -0.241 NA
HETATM    5  C5  UNL     1      21.416   3.475  49.726  1.00  0.00     0.236 A 
HETATM    6  N2  UNL     1      21.370   2.923  50.942  1.00  0.00    -0.224 NA
HETATM    7  C6  UNL     1      22.416   2.602  51.710  1.00  0.00     0.142 A 
HETATM    8  C13 UNL     1      23.630   2.894  51.137  1.00  0.00     0.041 A 
HETATM    9  C14 UNL     1      24.847   2.663  51.715  1.00  0.00     0.050 A 
HETATM   10  C15 UNL     1      26.071   2.949  51.153  1.00  0.00     0.070 A 
ENDROOT
BRANCH  10  11
HETATM   11  N4  UNL     1      27.319   2.709  51.752  1.00  0.00    -0.315 N 
HETATM   12  C16 UNL     1      27.395   2.247  53.090  1.00  0.00     0.284 C 
HETATM   13  O2  UNL     1      26.540   1.968  53.977  1.00  0.00    -0.260 OA
HETATM   14  H12 UNL     1      28.281   2.805  51.385  1.00  0.00     0.170 HD
BRANCH  12  15
HETATM   15  S1  UNL     1      28.748   1.844  54.160  1.00  0.00    -0.060 SA
BRANCH  15  16
HETATM   16  C17 UNL     1      29.537   0.307  53.613  1.00  0.00     0.186 C 
BRANCH  16  17
HETATM   17  C18 UNL     1      28.583  -0.833  53.565  1.00  0.00     0.225 C 
HETATM   18  N5  UNL     1      27.215  -1.150  53.663  1.00  0.00    -0.369 N 
HETATM   19  H15 UNL     1      26.497  -1.202  52.909  1.00  0.00     0.159 HD
HETATM   20  H16 UNL     1      26.649  -1.393  54.500  1.00  0.00     0.159 HD
HETATM   21  O3  UNL     1      28.878  -2.045  53.384  1.00  0.00    -0.273 OA
ENDBRANCH  16  17
ENDBRANCH  15  16
ENDBRANCH  12  15
ENDBRANCH  10  11
BRANCH   1  22
HETATM   22  O1  UNL     1      27.293   3.835  49.267  1.00  0.00    -0.354 OA
HETATM   23  C1  UNL     1      27.499   5.096  48.639  1.00  0.00     0.210 C 
ENDBRANCH   1  22
BRANCH   7  24
HETATM   24  N3  UNL     1      22.384   2.016  52.997  1.00  0.00    -0.340 N 
HETATM   25  H6  UNL     1      22.759   2.492  53.815  1.00  0.00     0.167 HD
BRANCH  24  26
HETATM   26  C7  UNL     1      21.869   0.755  53.387  1.00  0.00     0.035 A 
HETATM   27  C8  UNL     1      22.610  -0.266  53.960  1.00  0.00     0.029 A 
HETATM   28  C9  UNL     1      22.087  -1.478  54.325  1.00  0.00     0.004 A 
HETATM   29  C10 UNL     1      20.751  -1.755  54.133  1.00  0.00     0.019 A 
HETATM   30  C11 UNL     1      19.980  -0.767  53.566  1.00  0.00     0.013 A 
HETATM   31 BR1  UNL     1      18.139  -1.202  53.323  1.00  0.00    -0.051 Br
HETATM   32  C12 UNL     1      20.554   0.436  53.216  1.00  0.00     0.048 A 
ENDBRANCH  24  26
ENDBRANCH   7  24
TORSDOF 7
ENDMDL
MODEL 7
REMARK VINA RESULT:      -7.8      3.083      5.762
REMARK  7 active torsions:
REMARK  status: ('A' for Active; 'I' for Inactive)
REMARK    1  A    between atoms: O1_2  and  C2_3 
REMARK    2  A    between atoms: C6_9  and  N3_10 
REMARK    3  A    between atoms: N3_10  and  C7_11 
REMARK    4  A    between atoms: C15_20  and  N4_21 
REMARK       I    between atoms: N4_21  and  C16_22 
REMARK    5  A    between atoms: C16_22  and  S1_24 
REMARK    6  A    between atoms: S1_24  and  C17_25 
REMARK    7  A    between atoms: C17_25  and  C18_26 
REMARK       I    between atoms: C18_26  and  N5_27 
ROOT
HETATM    1  C2  UNL     1      23.050   0.201  52.997  1.00  0.00     0.097 A 
HETATM    2  C3  UNL     1      24.336   0.269  53.486  1.00  0.00     0.071 A 
HETATM    3  C4  UNL     1      25.285   1.036  52.846  1.00  0.00     0.075 A 
HETATM    4  N1  UNL     1      26.497   1.021  53.416  1.00  0.00    -0.241 NA
HETATM    5  C5  UNL     1      27.472   1.745  52.843  1.00  0.00     0.236 A 
HETATM    6  N2  UNL     1      27.196   2.446  51.740  1.00  0.00    -0.224 NA
HETATM    7  C6  UNL     1      26.016   2.512  51.114  1.00  0.00     0.142 A 
HETATM    8  C13 UNL     1      25.032   1.765  51.713  1.00  0.00     0.041 A 
HETATM    9  C14 UNL     1      23.743   1.664  51.270  1.00  0.00     0.050 A 
HETATM   10  C15 UNL     1      22.746   0.918  51.858  1.00  0.00     0.070 A 
ENDROOT
BRANCH  10  11
HETATM   11  N4  UNL     1      21.423   0.818  51.397  1.00  0.00    -0.315 N 
HETATM   12  C16 UNL     1      20.410   1.651  51.937  1.00  0.00     0.284 C 
HETATM   13  O2  UNL     1      20.389   2.553  52.820  1.00  0.00    -0.260 OA
HETATM   14  H12 UNL     1      20.995   0.210  50.678  1.00  0.00     0.170 HD
BRANCH  12  15
HETATM   15  S1  UNL     1      18.675   1.812  51.623  1.00  0.00    -0.060 SA
BRANCH  15  16
HETATM   16  C17 UNL     1      17.915   0.172  51.480  1.00  0.00     0.186 C 
BRANCH  16  17
HETATM   17  C18 UNL     1      18.036  -0.619  52.734  1.00  0.00     0.225 C 
HETATM   18  N5  UNL     1      18.978  -1.246  53.572  1.00  0.00    -0.369 N 
HETATM   19  H15 UNL     1      19.491  -0.856  54.391  1.00  0.00     0.159 HD
HETATM   20  H16 UNL     1      19.348  -2.216  53.543  1.00  0.00     0.159 HD
HETATM   21  O3  UNL     1      17.089  -0.979  53.483  1.00  0.00    -0.273 OA
ENDBRANCH  16  17
ENDBRANCH  15  16
ENDBRANCH  12  15
ENDBRANCH  10  11
BRANCH   1  22
HETATM   22  O1  UNL     1      22.098  -0.572  53.645  1.00  0.00    -0.354 OA
HETATM   23  C1  UNL     1      22.327  -1.110  54.944  1.00  0.00     0.210 C 
ENDBRANCH   1  22
BRANCH   7  24
HETATM   24  N3  UNL     1      25.709   3.248  49.945  1.00  0.00    -0.340 N 
HETATM   25  H6  UNL     1      25.244   2.822  49.147  1.00  0.00     0.167 HD
BRANCH  24  26
HETATM   26  C7  UNL     1      25.963   4.614  49.663  1.00  0.00     0.035 A 
HETATM   27  C8  UNL     1      25.183   5.674  50.095  1.00  0.00     0.029 A 
HETATM   28  C9  UNL     1      25.450   6.986  49.805  1.00  0.00     0.004 A 
HETATM   29  C10 UNL     1      26.545   7.330  49.043  1.00  0.00     0.019 A 
HETATM   30  C11 UNL     1      27.345   6.306  48.595  1.00  0.00     0.013 A 
HETATM   31 BR1  UNL     1      28.847   6.836  47.545  1.00  0.00    -0.051 Br
HETATM   32  C12 UNL     1      27.034   5.002  48.914  1.00  0.00     0.048 A 
ENDBRANCH  24  26
ENDBRANCH   7  24
TORSDOF 7
ENDMDL
MODEL 8
REMARK VINA RESULT:      -7.8      2.940      5.438
REMARK  7 active torsions:
REMARK  status: ('A' for Active; 'I' for Inactive)
REMARK    1  A    between atoms: O1_2  and  C2_3 
REMARK    2  A    between atoms: C6_9  and  N3_10 
REMARK    3  A    between atoms: N3_10  and  C7_11 
REMARK    4  A    between atoms: C15_20  and  N4_21 
REMARK       I    between atoms: N4_21  and  C16_22 
REMARK    5  A    between atoms: C16_22  and  S1_24 
REMARK    6  A    between atoms: S1_24  and  C17_25 
REMARK    7  A    between atoms: C17_25  and  C18_26 
REMARK       I    between atoms: C18_26  and  N5_27 
ROOT
HETATM    1  C2  UNL     1      27.031   1.364  52.831  1.00  0.00     0.097 A 
HETATM    2  C3  UNL     1      26.388   0.385  53.556  1.00  0.00     0.071 A 
HETATM    3  C4  UNL     1      25.013   0.301  53.547  1.00  0.00     0.075 A 
HETATM    4  N1  UNL     1      24.505  -0.691  54.289  1.00  0.00    -0.241 NA
HETATM    5  C5  UNL     1      23.171  -0.830  54.328  1.00  0.00     0.236 A 
HETATM    6  N2  UNL     1      22.410   0.019  53.631  1.00  0.00    -0.224 NA
HETATM    7  C6  UNL     1      22.840   1.030  52.870  1.00  0.00     0.142 A 
HETATM    8  C13 UNL     1      24.206   1.157  52.842  1.00  0.00     0.041 A 
HETATM    9  C14 UNL     1      24.893   2.109  52.142  1.00  0.00     0.050 A 
HETATM   10  C15 UNL     1      26.262   2.250  52.105  1.00  0.00     0.070 A 
ENDROOT
BRANCH  10  11
HETATM   11  N4  UNL     1      26.962   3.230  51.383  1.00  0.00    -0.315 N 
HETATM   12  C16 UNL     1      26.519   3.628  50.096  1.00  0.00     0.284 C 
HETATM   13  O2  UNL     1      25.555   3.289  49.353  1.00  0.00    -0.260 OA
HETATM   14  H12 UNL     1      27.810   3.776  51.618  1.00  0.00     0.170 HD
BRANCH  12  15
HETATM   15  S1  UNL     1      27.121   4.798  48.911  1.00  0.00    -0.060 SA
BRANCH  15  16
HETATM   16  C17 UNL     1      25.941   6.162  48.730  1.00  0.00     0.186 C 
BRANCH  16  17
HETATM   17  C18 UNL     1      25.727   6.898  50.005  1.00  0.00     0.225 C 
HETATM   18  N5  UNL     1      25.007   6.853  51.214  1.00  0.00    -0.369 N 
HETATM   19  H15 UNL     1      25.275   6.418  52.123  1.00  0.00     0.159 HD
HETATM   20  H16 UNL     1      24.071   7.241  51.443  1.00  0.00     0.159 HD
HETATM   21  O3  UNL     1      26.283   7.977  50.345  1.00  0.00    -0.273 OA
ENDBRANCH  16  17
ENDBRANCH  15  16
ENDBRANCH  12  15
ENDBRANCH  10  11
BRANCH   1  22
HETATM   22  O1  UNL     1      28.416   1.443  52.843  1.00  0.00    -0.354 OA
HETATM   23  C1  UNL     1      29.193   0.822  53.862  1.00  0.00     0.210 C 
ENDBRANCH   1  22
BRANCH   7  24
HETATM   24  N3  UNL     1      22.047   1.937  52.127  1.00  0.00    -0.340 N 
HETATM   25  H6  UNL     1      21.453   2.629  52.579  1.00  0.00     0.167 HD
BRANCH  24  26
HETATM   26  C7  UNL     1      21.922   2.062  50.721  1.00  0.00     0.035 A 
HETATM   27  C8  UNL     1      21.602   1.030  49.855  1.00  0.00     0.029 A 
HETATM   28  C9  UNL     1      21.489   1.178  48.498  1.00  0.00     0.004 A 
HETATM   29  C10 UNL     1      21.698   2.404  47.904  1.00  0.00     0.019 A 
HETATM   30  C11 UNL     1      22.019   3.456  48.730  1.00  0.00     0.013 A 
HETATM   31 BR1  UNL     1      22.296   5.129  47.857  1.00  0.00    -0.051 Br
HETATM   32  C12 UNL     1      22.119   3.255  50.089  1.00  0.00     0.048 A 
ENDBRANCH  24  26
ENDBRANCH   7  24
TORSDOF 7
ENDMDL
MODEL 9
REMARK VINA RESULT:      -7.7      3.461      6.518
REMARK  7 active torsions:
REMARK  status: ('A' for Active; 'I' for Inactive)
REMARK    1  A    between atoms: O1_2  and  C2_3 
REMARK    2  A    between atoms: C6_9  and  N3_10 
REMARK    3  A    between atoms: N3_10  and  C7_11 
REMARK    4  A    between atoms: C15_20  and  N4_21 
REMARK       I    between atoms: N4_21  and  C16_22 
REMARK    5  A    between atoms: C16_22  and  S1_24 
REMARK    6  A    between atoms: S1_24  and  C17_25 
REMARK    7  A    between atoms: C17_25  and  C18_26 
REMARK       I    between atoms: C18_26  and  N5_27 
ROOT
HETATM    1  C2  UNL     1      27.043   0.783  53.438  1.00  0.00     0.097 A 
HETATM    2  C3  UNL     1      26.551   0.068  54.508  1.00  0.00     0.071 A 
HETATM    3  C4  UNL     1      25.252  -0.390  54.501  1.00  0.00     0.075 A 
HETATM    4  N1  UNL     1      24.890  -1.071  55.597  1.00  0.00    -0.241 NA
HETATM    5  C5  UNL     1      23.636  -1.545  55.659  1.00  0.00     0.236 A 
HETATM    6  N2  UNL     1      22.807  -1.322  54.635  1.00  0.00    -0.224 NA
HETATM    7  C6  UNL     1      23.092  -0.655  53.512  1.00  0.00     0.142 A 
HETATM    8  C13 UNL     1      24.378  -0.177  53.466  1.00  0.00     0.041 A 
HETATM    9  C14 UNL     1      24.915   0.536  52.431  1.00  0.00     0.050 A 
HETATM   10  C15 UNL     1      26.202   1.023  52.371  1.00  0.00     0.070 A 
ENDROOT
BRANCH  10  11
HETATM   11  N4  UNL     1      26.747   1.755  51.304  1.00  0.00    -0.315 N 
HETATM   12  C16 UNL     1      26.101   2.926  50.833  1.00  0.00     0.284 C 
HETATM   13  O2  UNL     1      25.049   3.544  51.159  1.00  0.00    -0.260 OA
HETATM   14  H12 UNL     1      27.602   1.606  50.741  1.00  0.00     0.170 HD
BRANCH  12  15
HETATM   15  S1  UNL     1      26.472   4.083  49.544  1.00  0.00    -0.060 SA
BRANCH  15  16
HETATM   16  C17 UNL     1      25.138   5.302  49.401  1.00  0.00     0.186 C 
BRANCH  16  17
HETATM   17  C18 UNL     1      25.359   6.488  50.272  1.00  0.00     0.225 C 
HETATM   18  N5  UNL     1      26.303   7.486  50.581  1.00  0.00    -0.369 N 
HETATM   19  H15 UNL     1      26.422   8.432  50.159  1.00  0.00     0.159 HD
HETATM   20  H16 UNL     1      27.066   7.481  51.287  1.00  0.00     0.159 HD
HETATM   21  O3  UNL     1      24.549   6.955  51.117  1.00  0.00    -0.273 OA
ENDBRANCH  16  17
ENDBRANCH  15  16
ENDBRANCH  12  15
ENDBRANCH  10  11
BRANCH   1  22
HETATM   22  O1  UNL     1      28.352   1.241  53.449  1.00  0.00    -0.354 OA
HETATM   23  C1  UNL     1      29.437   0.402  53.831  1.00  0.00     0.210 C 
ENDBRANCH   1  22
BRANCH   7  24
HETATM   24  N3  UNL     1      22.225  -0.410  52.421  1.00  0.00    -0.340 N 
HETATM   25  H6  UNL     1      22.232  -0.992  51.586  1.00  0.00     0.167 HD
BRANCH  24  26
HETATM   26  C7  UNL     1      21.251   0.609  52.271  1.00  0.00     0.035 A 
HETATM   27  C8  UNL     1      21.460   1.955  52.524  1.00  0.00     0.029 A 
HETATM   28  C9  UNL     1      20.499   2.919  52.373  1.00  0.00     0.004 A 
HETATM   29  C10 UNL     1      19.230   2.588  51.950  1.00  0.00     0.019 A 
HETATM   30  C11 UNL     1      18.981   1.261  51.688  1.00  0.00     0.013 A 
HETATM   31 BR1  UNL     1      17.211   0.858  51.105  1.00  0.00    -0.051 Br
HETATM   32  C12 UNL     1      19.983   0.329  51.855  1.00  0.00     0.048 A 
ENDBRANCH  24  26
ENDBRANCH   7  24
TORSDOF 7
ENDMDL
