MODEL 1
REMARK VINA RESULT:      -9.2      0.000      0.000
REMARK  5 active torsions:
REMARK  status: ('A' for Active; 'I' for Inactive)
REMARK    1  A    between atoms: O1_1  and  C1_2 
REMARK    2  A    between atoms: C6_7  and  N1_8 
REMARK    3  A    between atoms: N1_8  and  C7_9 
REMARK    4  A    between atoms: N2_13  and  C11_14 
REMARK    5  A    between atoms: C14_18  and  C15_19 
ROOT
HETATM    1  C7  UNL     1      24.318   0.353  53.184  1.00  0.00     0.034 A 
HETATM    2  C8  UNL     1      24.103  -0.435  54.211  1.00  0.00     0.031 A 
HETATM    3  C9  UNL     1      22.819  -1.026  54.588  1.00  0.00     0.020 A 
HETATM    4  C10 UNL     1      21.617  -0.869  54.036  1.00  0.00     0.115 A 
HETATM    5  N2  UNL     1      21.219  -0.083  52.914  1.00  0.00    -0.165 N 
HETATM    6  C20 UNL     1      22.084   0.652  52.072  1.00  0.00     0.117 A 
HETATM    7  C21 UNL     1      23.385   0.843  52.176  1.00  0.00     0.047 A 
ENDROOT
BRANCH   5   8
HETATM    8  C11 UNL     1      19.830  -0.006  52.576  1.00  0.00     0.732 A 
HETATM    9  N3  UNL     1      19.330   1.115  52.019  1.00  0.00    -0.074 NA
HETATM   10  C12 UNL     1      18.024   1.185  51.702  1.00  0.00     0.139 A 
HETATM   11  C13 UNL     1      17.146   0.144  51.924  1.00  0.00     0.053 A 
HETATM   12  C14 UNL     1      17.687  -0.987  52.495  1.00  0.00     0.089 A 
HETATM   13  N5  UNL     1      18.996  -1.036  52.803  1.00  0.00    -0.062 NA
BRANCH  12  14
HETATM   14  C15 UNL     1      16.891  -2.172  52.792  1.00  0.00     0.011 A 
HETATM   15  C16 UNL     1      17.463  -3.201  53.511  1.00  0.00     0.017 A 
HETATM   16  C17 UNL     1      16.755  -4.347  53.821  1.00  0.00     0.020 A 
HETATM   17  C18 UNL     1      15.437  -4.502  53.417  1.00  0.00     0.116 A 
HETATM   18  N4  UNL     1      14.891  -3.482  52.712  1.00  0.00    -0.272 NA
HETATM   19  C19 UNL     1      15.581  -2.364  52.410  1.00  0.00     0.130 A 
ENDBRANCH  12  14
ENDBRANCH   5   8
BRANCH   1  20
HETATM   20  N1  UNL     1      25.632   0.828  52.979  1.00  0.00    -0.354 N 
HETATM   21  H6  UNL     1      25.706   1.725  52.447  1.00  0.00     0.166 HD
BRANCH  20  22
HETATM   22  C6  UNL     1      26.987   0.500  53.260  1.00  0.00     0.066 A 
HETATM   23  C1  UNL     1      27.933   1.349  53.777  1.00  0.00     0.092 A 
HETATM   24  C2  UNL     1      29.230   0.984  54.029  1.00  0.00     0.039 A 
HETATM   25  C3  UNL     1      29.544  -0.327  53.723  1.00  0.00     0.003 A 
HETATM   26  C4  UNL     1      28.647  -1.233  53.202  1.00  0.00     0.002 A 
HETATM   27  C5  UNL     1      27.348  -0.818  52.964  1.00  0.00     0.032 A 
BRANCH  23  28
HETATM   28  O1  UNL     1      27.534   2.649  54.055  1.00  0.00    -0.358 OA
HETATM   29  H1  UNL     1      26.539   2.898  54.142  1.00  0.00     0.217 HD
ENDBRANCH  23  28
ENDBRANCH  20  22
ENDBRANCH   1  20
TORSDOF 5
ENDMDL
MODEL 2
REMARK VINA RESULT:      -8.9      5.678      9.746
REMARK  5 active torsions:
REMARK  status: ('A' for Active; 'I' for Inactive)
REMARK    1  A    between atoms: O1_1  and  C1_2 
REMARK    2  A    between atoms: C6_7  and  N1_8 
REMARK    3  A    between atoms: N1_8  and  C7_9 
REMARK    4  A    between atoms: N2_13  and  C11_14 
REMARK    5  A    between atoms: C14_18  and  C15_19 
ROOT
HETATM    1  C7  UNL     1      25.382   1.258  52.536  1.00  0.00     0.034 A 
HETATM    2  C8  UNL     1      24.153   1.598  52.846  1.00  0.00     0.031 A 
HETATM    3  C9  UNL     1      23.387   2.692  52.249  1.00  0.00     0.020 A 
HETATM    4  C10 UNL     1      23.757   3.587  51.334  1.00  0.00     0.115 A 
HETATM    5  N2  UNL     1      25.004   3.749  50.660  1.00  0.00    -0.165 N 
HETATM    6  C20 UNL     1      26.121   2.892  50.775  1.00  0.00     0.117 A 
HETATM    7  C21 UNL     1      26.291   1.844  51.559  1.00  0.00     0.047 A 
ENDROOT
BRANCH   5   8
HETATM    8  C11 UNL     1      25.180   4.866  49.782  1.00  0.00     0.732 A 
HETATM    9  N3  UNL     1      24.114   5.587  49.380  1.00  0.00    -0.074 NA
HETATM   10  C12 UNL     1      24.283   6.635  48.555  1.00  0.00     0.139 A 
HETATM   11  C13 UNL     1      25.520   7.022  48.084  1.00  0.00     0.053 A 
HETATM   12  C14 UNL     1      26.590   6.266  48.512  1.00  0.00     0.089 A 
HETATM   13  N5  UNL     1      26.399   5.221  49.338  1.00  0.00    -0.062 NA
BRANCH  12  14
HETATM   14  C15 UNL     1      27.961   6.546  48.104  1.00  0.00     0.011 A 
HETATM   15  C16 UNL     1      28.915   5.558  48.233  1.00  0.00     0.017 A 
HETATM   16  C17 UNL     1      30.230   5.768  47.862  1.00  0.00     0.020 A 
HETATM   17  C18 UNL     1      30.637   6.990  47.344  1.00  0.00     0.116 A 
HETATM   18  N4  UNL     1      29.688   7.948  47.224  1.00  0.00    -0.272 NA
HETATM   19  C19 UNL     1      28.406   7.743  47.585  1.00  0.00     0.130 A 
ENDBRANCH  12  14
ENDBRANCH   5   8
BRANCH   1  20
HETATM   20  N1  UNL     1      25.959   0.167  53.224  1.00  0.00    -0.354 N 
HETATM   21  H6  UNL     1      25.340  -0.297  53.926  1.00  0.00     0.166 HD
BRANCH  20  22
HETATM   22  C6  UNL     1      27.167  -0.579  53.306  1.00  0.00     0.066 A 
HETATM   23  C1  UNL     1      28.340  -0.156  53.879  1.00  0.00     0.092 A 
HETATM   24  C2  UNL     1      29.480  -0.914  53.933  1.00  0.00     0.039 A 
HETATM   25  C3  UNL     1      29.382  -2.167  53.359  1.00  0.00     0.003 A 
HETATM   26  C4  UNL     1      28.240  -2.657  52.767  1.00  0.00     0.002 A 
HETATM   27  C5  UNL     1      27.113  -1.855  52.736  1.00  0.00     0.032 A 
BRANCH  23  28
HETATM   28  O1  UNL     1      28.351   1.118  54.433  1.00  0.00    -0.358 OA
HETATM   29  H1  UNL     1      27.639   1.413  55.114  1.00  0.00     0.217 HD
ENDBRANCH  23  28
ENDBRANCH  20  22
ENDBRANCH   1  20
TORSDOF 5
ENDMDL
MODEL 3
REMARK VINA RESULT:      -8.5      5.576      7.955
REMARK  5 active torsions:
REMARK  status: ('A' for Active; 'I' for Inactive)
REMARK    1  A    between atoms: O1_1  and  C1_2 
REMARK    2  A    between atoms: C6_7  and  N1_8 
REMARK    3  A    between atoms: N1_8  and  C7_9 
REMARK    4  A    between atoms: N2_13  and  C11_14 
REMARK    5  A    between atoms: C14_18  and  C15_19 
ROOT
HETATM    1  C7  UNL     1      27.523   5.848  48.369  1.00  0.00     0.034 A 
HETATM    2  C8  UNL     1      26.597   6.778  48.344  1.00  0.00     0.031 A 
HETATM    3  C9  UNL     1      25.221   6.633  48.817  1.00  0.00     0.020 A 
HETATM    4  C10 UNL     1      24.600   5.563  49.310  1.00  0.00     0.115 A 
HETATM    5  N2  UNL     1      25.087   4.239  49.528  1.00  0.00    -0.165 N 
HETATM    6  C20 UNL     1      26.418   3.807  49.334  1.00  0.00     0.117 A 
HETATM    7  C21 UNL     1      27.448   4.473  48.848  1.00  0.00     0.047 A 
ENDROOT
BRANCH   5   8
HETATM    8  C11 UNL     1      24.179   3.230  49.983  1.00  0.00     0.732 A 
HETATM    9  N3  UNL     1      22.998   3.050  49.358  1.00  0.00    -0.074 NA
HETATM   10  C12 UNL     1      22.148   2.101  49.788  1.00  0.00     0.139 A 
HETATM   11  C13 UNL     1      22.425   1.282  50.863  1.00  0.00     0.053 A 
HETATM   12  C14 UNL     1      23.639   1.490  51.480  1.00  0.00     0.089 A 
HETATM   13  N5  UNL     1      24.476   2.444  51.033  1.00  0.00    -0.062 NA
BRANCH  12  14
HETATM   14  C15 UNL     1      24.079   0.707  52.628  1.00  0.00     0.011 A 
HETATM   15  C16 UNL     1      23.170  -0.105  53.274  1.00  0.00     0.017 A 
HETATM   16  C17 UNL     1      23.532  -0.870  54.367  1.00  0.00     0.020 A 
HETATM   17  C18 UNL     1      24.831  -0.846  54.855  1.00  0.00     0.116 A 
HETATM   18  N4  UNL     1      25.710  -0.043  54.209  1.00  0.00    -0.272 NA
HETATM   19  C19 UNL     1      25.357   0.702  53.143  1.00  0.00     0.130 A 
ENDBRANCH  12  14
ENDBRANCH   5   8
BRANCH   1  20
HETATM   20  N1  UNL     1      28.802   6.175  47.866  1.00  0.00    -0.354 N 
HETATM   21  H6  UNL     1      28.828   6.462  46.861  1.00  0.00     0.166 HD
BRANCH  20  22
HETATM   22  C6  UNL     1      30.164   6.260  48.267  1.00  0.00     0.066 A 
HETATM   23  C1  UNL     1      30.717   7.250  49.039  1.00  0.00     0.092 A 
HETATM   24  C2  UNL     1      32.039   7.288  49.399  1.00  0.00     0.039 A 
HETATM   25  C3  UNL     1      32.810   6.243  48.927  1.00  0.00     0.003 A 
HETATM   26  C4  UNL     1      32.323   5.217  48.148  1.00  0.00     0.002 A 
HETATM   27  C5  UNL     1      30.981   5.221  47.809  1.00  0.00     0.032 A 
BRANCH  23  28
HETATM   28  O1  UNL     1      29.872   8.263  49.472  1.00  0.00    -0.358 OA
HETATM   29  H1  UNL     1      29.941   9.218  49.095  1.00  0.00     0.217 HD
ENDBRANCH  23  28
ENDBRANCH  20  22
ENDBRANCH   1  20
TORSDOF 5
ENDMDL
MODEL 4
REMARK VINA RESULT:      -8.5      1.982      3.484
REMARK  5 active torsions:
REMARK  status: ('A' for Active; 'I' for Inactive)
REMARK    1  A    between atoms: O1_1  and  C1_2 
REMARK    2  A    between atoms: C6_7  and  N1_8 
REMARK    3  A    between atoms: N1_8  and  C7_9 
REMARK    4  A    between atoms: N2_13  and  C11_14 
REMARK    5  A    between atoms: C14_18  and  C15_19 
ROOT
HETATM    1  C7  UNL     1      24.705  -0.202  53.824  1.00  0.00     0.034 A 
HETATM    2  C8  UNL     1      24.641   0.656  52.833  1.00  0.00     0.031 A 
HETATM    3  C9  UNL     1      23.427   1.072  52.133  1.00  0.00     0.020 A 
HETATM    4  C10 UNL     1      22.170   0.661  52.294  1.00  0.00     0.115 A 
HETATM    5  N2  UNL     1      21.629  -0.304  53.195  1.00  0.00    -0.165 N 
HETATM    6  C20 UNL     1      22.346  -0.984  54.205  1.00  0.00     0.117 A 
HETATM    7  C21 UNL     1      23.637  -0.950  54.478  1.00  0.00     0.047 A 
ENDROOT
BRANCH   5   8
HETATM    8  C11 UNL     1      20.241  -0.642  53.101  1.00  0.00     0.732 A 
HETATM    9  N3  UNL     1      19.731  -1.629  53.866  1.00  0.00    -0.074 NA
HETATM   10  C12 UNL     1      18.427  -1.944  53.776  1.00  0.00     0.139 A 
HETATM   11  C13 UNL     1      17.560  -1.296  52.921  1.00  0.00     0.053 A 
HETATM   12  C14 UNL     1      18.110  -0.293  52.153  1.00  0.00     0.089 A 
HETATM   13  N5  UNL     1      19.418   0.007  52.259  1.00  0.00    -0.062 NA
BRANCH  12  14
HETATM   14  C15 UNL     1      17.326   0.485  51.202  1.00  0.00     0.011 A 
HETATM   15  C16 UNL     1      16.981  -0.084  49.994  1.00  0.00     0.017 A 
HETATM   16  C17 UNL     1      16.239   0.607  49.054  1.00  0.00     0.020 A 
HETATM   17  C18 UNL     1      15.814   1.906  49.296  1.00  0.00     0.116 A 
HETATM   18  N4  UNL     1      16.162   2.449  50.488  1.00  0.00    -0.272 NA
HETATM   19  C19 UNL     1      16.886   1.775  51.404  1.00  0.00     0.130 A 
ENDBRANCH  12  14
ENDBRANCH   5   8
BRANCH   1  20
HETATM   20  N1  UNL     1      25.975  -0.481  54.377  1.00  0.00    -0.354 N 
HETATM   21  H6  UNL     1      25.967  -0.816  55.367  1.00  0.00     0.166 HD
BRANCH  20  22
HETATM   22  C6  UNL     1      27.357  -0.469  54.043  1.00  0.00     0.066 A 
HETATM   23  C1  UNL     1      28.048  -1.483  53.429  1.00  0.00     0.092 A 
HETATM   24  C2  UNL     1      29.384  -1.423  53.128  1.00  0.00     0.039 A 
HETATM   25  C3  UNL     1      30.018  -0.250  53.491  1.00  0.00     0.003 A 
HETATM   26  C4  UNL     1      29.389   0.807  54.111  1.00  0.00     0.002 A 
HETATM   27  C5  UNL     1      28.039   0.701  54.394  1.00  0.00     0.032 A 
BRANCH  23  28
HETATM   28  O1  UNL     1      27.334  -2.627  53.098  1.00  0.00    -0.358 OA
HETATM   29  H1  UNL     1      26.750  -3.114  53.791  1.00  0.00     0.217 HD
ENDBRANCH  23  28
ENDBRANCH  20  22
ENDBRANCH   1  20
TORSDOF 5
ENDMDL
MODEL 5
REMARK VINA RESULT:      -8.4      4.685      7.918
REMARK  5 active torsions:
REMARK  status: ('A' for Active; 'I' for Inactive)
REMARK    1  A    between atoms: O1_1  and  C1_2 
REMARK    2  A    between atoms: C6_7  and  N1_8 
REMARK    3  A    between atoms: N1_8  and  C7_9 
REMARK    4  A    between atoms: N2_13  and  C11_14 
REMARK    5  A    between atoms: C14_18  and  C15_19 
ROOT
HETATM    1  C7  UNL     1      25.022   0.051  52.804  1.00  0.00     0.034 A 
HETATM    2  C8  UNL     1      23.883  -0.162  53.420  1.00  0.00     0.031 A 
HETATM    3  C9  UNL     1      22.672   0.647  53.290  1.00  0.00     0.020 A 
HETATM    4  C10 UNL     1      22.465   1.761  52.590  1.00  0.00     0.115 A 
HETATM    5  N2  UNL     1      23.358   2.501  51.759  1.00  0.00    -0.165 N 
HETATM    6  C20 UNL     1      24.680   2.126  51.428  1.00  0.00     0.117 A 
HETATM    7  C21 UNL     1      25.389   1.101  51.861  1.00  0.00     0.047 A 
ENDROOT
BRANCH   5   8
HETATM    8  C11 UNL     1      22.915   3.737  51.188  1.00  0.00     0.732 A 
HETATM    9  N3  UNL     1      21.653   4.165  51.397  1.00  0.00    -0.074 NA
HETATM   10  C12 UNL     1      21.240   5.327  50.860  1.00  0.00     0.139 A 
HETATM   11  C13 UNL     1      22.058   6.124  50.086  1.00  0.00     0.053 A 
HETATM   12  C14 UNL     1      23.341   5.660  49.892  1.00  0.00     0.089 A 
HETATM   13  N5  UNL     1      23.734   4.495  50.439  1.00  0.00    -0.062 NA
BRANCH  12  14
HETATM   14  C15 UNL     1      24.325   6.387  49.100  1.00  0.00     0.011 A 
HETATM   15  C16 UNL     1      25.621   5.917  49.046  1.00  0.00     0.017 A 
HETATM   16  C17 UNL     1      26.596   6.566  48.311  1.00  0.00     0.020 A 
HETATM   17  C18 UNL     1      26.301   7.720  47.598  1.00  0.00     0.116 A 
HETATM   18  N4  UNL     1      25.024   8.166  47.662  1.00  0.00    -0.272 NA
HETATM   19  C19 UNL     1      24.074   7.534  48.379  1.00  0.00     0.130 A 
ENDBRANCH  12  14
ENDBRANCH   5   8
BRANCH   1  20
HETATM   20  N1  UNL     1      26.088  -0.842  53.057  1.00  0.00    -0.354 N 
HETATM   21  H6  UNL     1      25.817  -1.849  53.140  1.00  0.00     0.166 HD
BRANCH  20  22
HETATM   22  C6  UNL     1      27.496  -0.863  53.251  1.00  0.00     0.066 A 
HETATM   23  C1  UNL     1      28.315  -1.954  53.107  1.00  0.00     0.092 A 
HETATM   24  C2  UNL     1      29.671  -1.923  53.308  1.00  0.00     0.039 A 
HETATM   25  C3  UNL     1      30.184  -0.693  53.675  1.00  0.00     0.003 A 
HETATM   26  C4  UNL     1      29.423   0.443  53.838  1.00  0.00     0.002 A 
HETATM   27  C5  UNL     1      28.058   0.362  53.625  1.00  0.00     0.032 A 
BRANCH  23  28
HETATM   28  O1  UNL     1      27.717  -3.151  52.736  1.00  0.00    -0.358 OA
HETATM   29  H1  UNL     1      26.697  -3.277  52.780  1.00  0.00     0.217 HD
ENDBRANCH  23  28
ENDBRANCH  20  22
ENDBRANCH   1  20
TORSDOF 5
ENDMDL
MODEL 6
REMARK VINA RESULT:      -8.3      1.712      2.247
REMARK  5 active torsions:
REMARK  status: ('A' for Active; 'I' for Inactive)
REMARK    1  A    between atoms: O1_1  and  C1_2 
REMARK    2  A    between atoms: C6_7  and  N1_8 
REMARK    3  A    between atoms: N1_8  and  C7_9 
REMARK    4  A    between atoms: N2_13  and  C11_14 
REMARK    5  A    between atoms: C14_18  and  C15_19 
ROOT
HETATM    1  C7  UNL     1      24.752   0.591  53.109  1.00  0.00     0.034 A 
HETATM    2  C8  UNL     1      24.147  -0.319  53.837  1.00  0.00     0.031 A 
HETATM    3  C9  UNL     1      22.769  -0.778  53.668  1.00  0.00     0.020 A 
HETATM    4  C10 UNL     1      21.835  -0.366  52.812  1.00  0.00     0.115 A 
HETATM    5  N2  UNL     1      21.895   0.642  51.804  1.00  0.00    -0.165 N 
HETATM    6  C20 UNL     1      23.045   1.378  51.440  1.00  0.00     0.117 A 
HETATM    7  C21 UNL     1      24.248   1.366  51.981  1.00  0.00     0.047 A 
ENDROOT
BRANCH   5   8
HETATM    8  C11 UNL     1      20.707   0.967  51.073  1.00  0.00     0.732 A 
HETATM    9  N3  UNL     1      20.794   1.614  49.893  1.00  0.00    -0.074 NA
HETATM   10  C12 UNL     1      19.677   1.917  49.209  1.00  0.00     0.139 A 
HETATM   11  C13 UNL     1      18.414   1.596  49.662  1.00  0.00     0.053 A 
HETATM   12  C14 UNL     1      18.358   0.936  50.870  1.00  0.00     0.089 A 
HETATM   13  N5  UNL     1      19.488   0.641  51.538  1.00  0.00    -0.062 NA
BRANCH  12  14
HETATM   14  C15 UNL     1      17.100   0.528  51.483  1.00  0.00     0.011 A 
HETATM   15  C16 UNL     1      16.882  -0.810  51.738  1.00  0.00     0.017 A 
HETATM   16  C17 UNL     1      15.707  -1.254  52.317  1.00  0.00     0.020 A 
HETATM   17  C18 UNL     1      14.702  -0.362  52.663  1.00  0.00     0.116 A 
HETATM   18  N4  UNL     1      14.934   0.948  52.405  1.00  0.00    -0.272 NA
HETATM   19  C19 UNL     1      16.078   1.380  51.841  1.00  0.00     0.130 A 
ENDBRANCH  12  14
ENDBRANCH   5   8
BRANCH   1  20
HETATM   20  N1  UNL     1      26.093   0.905  53.424  1.00  0.00    -0.354 N 
HETATM   21  H6  UNL     1      26.257   1.883  53.756  1.00  0.00     0.166 HD
BRANCH  20  22
HETATM   22  C6  UNL     1      27.391   0.325  53.454  1.00  0.00     0.066 A 
HETATM   23  C1  UNL     1      28.552   0.964  53.808  1.00  0.00     0.092 A 
HETATM   24  C2  UNL     1      29.782   0.360  53.820  1.00  0.00     0.039 A 
HETATM   25  C3  UNL     1      29.790  -0.970  53.442  1.00  0.00     0.003 A 
HETATM   26  C4  UNL     1      28.665  -1.673  53.074  1.00  0.00     0.002 A 
HETATM   27  C5  UNL     1      27.444  -1.021  53.078  1.00  0.00     0.032 A 
BRANCH  23  28
HETATM   28  O1  UNL     1      28.455   2.300  54.174  1.00  0.00    -0.358 OA
HETATM   29  H1  UNL     1      27.618   2.856  53.955  1.00  0.00     0.217 HD
ENDBRANCH  23  28
ENDBRANCH  20  22
ENDBRANCH   1  20
TORSDOF 5
ENDMDL
MODEL 7
REMARK VINA RESULT:      -8.2      7.359     10.501
REMARK  5 active torsions:
REMARK  status: ('A' for Active; 'I' for Inactive)
REMARK    1  A    between atoms: O1_1  and  C1_2 
REMARK    2  A    between atoms: C6_7  and  N1_8 
REMARK    3  A    between atoms: N1_8  and  C7_9 
REMARK    4  A    between atoms: N2_13  and  C11_14 
REMARK    5  A    between atoms: C14_18  and  C15_19 
ROOT
HETATM    1  C7  UNL     1      27.240   7.692  47.988  1.00  0.00     0.034 A 
HETATM    2  C8  UNL     1      28.336   6.994  47.805  1.00  0.00     0.031 A 
HETATM    3  C9  UNL     1      28.531   5.590  48.164  1.00  0.00     0.020 A 
HETATM    4  C10 UNL     1      27.702   4.747  48.778  1.00  0.00     0.115 A 
HETATM    5  N2  UNL     1      26.378   4.956  49.267  1.00  0.00    -0.165 N 
HETATM    6  C20 UNL     1      25.616   6.136  49.109  1.00  0.00     0.117 A 
HETATM    7  C21 UNL     1      25.968   7.290  48.575  1.00  0.00     0.047 A 
ENDROOT
BRANCH   5   8
HETATM    8  C11 UNL     1      25.728   3.903  49.988  1.00  0.00     0.732 A 
HETATM    9  N3  UNL     1      24.419   3.652  49.785  1.00  0.00    -0.074 NA
HETATM   10  C12 UNL     1      23.811   2.663  50.463  1.00  0.00     0.139 A 
HETATM   11  C13 UNL     1      24.471   1.870  51.379  1.00  0.00     0.053 A 
HETATM   12  C14 UNL     1      25.808   2.151  51.564  1.00  0.00     0.089 A 
HETATM   13  N5  UNL     1      26.397   3.145  50.874  1.00  0.00    -0.062 NA
BRANCH  12  14
HETATM   14  C15 UNL     1      26.643   1.405  52.496  1.00  0.00     0.011 A 
HETATM   15  C16 UNL     1      26.809   0.048  52.309  1.00  0.00     0.017 A 
HETATM   16  C17 UNL     1      27.591  -0.710  53.162  1.00  0.00     0.020 A 
HETATM   17  C18 UNL     1      28.239  -0.127  54.242  1.00  0.00     0.116 A 
HETATM   18  N4  UNL     1      28.065   1.206  54.409  1.00  0.00    -0.272 NA
HETATM   19  C19 UNL     1      27.303   1.945  53.578  1.00  0.00     0.130 A 
ENDBRANCH  12  14
ENDBRANCH   5   8
BRANCH   1  20
HETATM   20  N1  UNL     1      27.240   9.043  47.574  1.00  0.00    -0.354 N 
HETATM   21  H6  UNL     1      26.430   9.328  46.978  1.00  0.00     0.166 HD
BRANCH  20  22
HETATM   22  C6  UNL     1      28.001  10.239  47.689  1.00  0.00     0.066 A 
HETATM   23  C1  UNL     1      28.297  10.899  48.854  1.00  0.00     0.092 A 
HETATM   24  C2  UNL     1      29.035  12.052  48.912  1.00  0.00     0.039 A 
HETATM   25  C3  UNL     1      29.479  12.530  47.694  1.00  0.00     0.003 A 
HETATM   26  C4  UNL     1      29.221  11.921  46.486  1.00  0.00     0.002 A 
HETATM   27  C5  UNL     1      28.470  10.758  46.478  1.00  0.00     0.032 A 
BRANCH  23  28
HETATM   28  O1  UNL     1      27.811  10.351  50.034  1.00  0.00    -0.358 OA
HETATM   29  H1  UNL     1      27.060   9.648  50.030  1.00  0.00     0.217 HD
ENDBRANCH  23  28
ENDBRANCH  20  22
ENDBRANCH   1  20
TORSDOF 5
ENDMDL
MODEL 8
REMARK VINA RESULT:      -8.2      5.815      7.600
REMARK  5 active torsions:
REMARK  status: ('A' for Active; 'I' for Inactive)
REMARK    1  A    between atoms: O1_1  and  C1_2 
REMARK    2  A    between atoms: C6_7  and  N1_8 
REMARK    3  A    between atoms: N1_8  and  C7_9 
REMARK    4  A    between atoms: N2_13  and  C11_14 
REMARK    5  A    between atoms: C14_18  and  C15_19 
ROOT
HETATM    1  C7  UNL     1      25.854   6.012  48.990  1.00  0.00     0.034 A 
HETATM    2  C8  UNL     1      26.841   5.159  49.136  1.00  0.00     0.031 A 
HETATM    3  C9  UNL     1      26.708   3.732  49.424  1.00  0.00     0.020 A 
HETATM    4  C10 UNL     1      25.610   3.009  49.646  1.00  0.00     0.115 A 
HETATM    5  N2  UNL     1      24.240   3.405  49.668  1.00  0.00    -0.165 N 
HETATM    6  C20 UNL     1      23.748   4.692  49.356  1.00  0.00     0.117 A 
HETATM    7  C21 UNL     1      24.415   5.793  49.071  1.00  0.00     0.047 A 
ENDROOT
BRANCH   5   8
HETATM    8  C11 UNL     1      23.244   2.443  50.033  1.00  0.00     0.732 A 
HETATM    9  N3  UNL     1      22.176   2.239  49.236  1.00  0.00    -0.074 NA
HETATM   10  C12 UNL     1      21.242   1.335  49.582  1.00  0.00     0.139 A 
HETATM   11  C13 UNL     1      21.319   0.588  50.739  1.00  0.00     0.053 A 
HETATM   12  C14 UNL     1      22.421   0.820  51.532  1.00  0.00     0.089 A 
HETATM   13  N5  UNL     1      23.344   1.728  51.167  1.00  0.00    -0.062 NA
BRANCH  12  14
HETATM   14  C15 UNL     1      22.647   0.111  52.786  1.00  0.00     0.011 A 
HETATM   15  C16 UNL     1      21.561  -0.342  53.506  1.00  0.00     0.017 A 
HETATM   16  C17 UNL     1      21.717  -1.020  54.700  1.00  0.00     0.020 A 
HETATM   17  C18 UNL     1      22.980  -1.270  55.219  1.00  0.00     0.116 A 
HETATM   18  N4  UNL     1      24.035  -0.818  54.499  1.00  0.00    -0.272 NA
HETATM   19  C19 UNL     1      23.883  -0.157  53.334  1.00  0.00     0.130 A 
ENDBRANCH  12  14
ENDBRANCH   5   8
BRANCH   1  20
HETATM   20  N1  UNL     1      26.181   7.359  48.713  1.00  0.00    -0.354 N 
HETATM   21  H6  UNL     1      25.365   7.999  48.583  1.00  0.00     0.166 HD
BRANCH  20  22
HETATM   22  C6  UNL     1      27.302   8.215  48.537  1.00  0.00     0.066 A 
HETATM   23  C1  UNL     1      27.909   8.962  49.515  1.00  0.00     0.092 A 
HETATM   24  C2  UNL     1      28.989   9.776  49.294  1.00  0.00     0.039 A 
HETATM   25  C3  UNL     1      29.450   9.804  47.991  1.00  0.00     0.003 A 
HETATM   26  C4  UNL     1      28.891   9.082  46.960  1.00  0.00     0.002 A 
HETATM   27  C5  UNL     1      27.800   8.275  47.231  1.00  0.00     0.032 A 
BRANCH  23  28
HETATM   28  O1  UNL     1      27.383   8.875  50.797  1.00  0.00    -0.358 OA
HETATM   29  H1  UNL     1      27.026   9.706  51.288  1.00  0.00     0.217 HD
ENDBRANCH  23  28
ENDBRANCH  20  22
ENDBRANCH   1  20
TORSDOF 5
ENDMDL
MODEL 9
REMARK VINA RESULT:      -8.1      6.505      9.781
REMARK  5 active torsions:
REMARK  status: ('A' for Active; 'I' for Inactive)
REMARK    1  A    between atoms: O1_1  and  C1_2 
REMARK    2  A    between atoms: C6_7  and  N1_8 
REMARK    3  A    between atoms: N1_8  and  C7_9 
REMARK    4  A    between atoms: N2_13  and  C11_14 
REMARK    5  A    between atoms: C14_18  and  C15_19 
ROOT
HETATM    1  C7  UNL     1      27.514   6.749  47.883  1.00  0.00     0.034 A 
HETATM    2  C8  UNL     1      26.341   7.338  47.903  1.00  0.00     0.031 A 
HETATM    3  C9  UNL     1      25.154   6.865  48.613  1.00  0.00     0.020 A 
HETATM    4  C10 UNL     1      24.978   5.755  49.328  1.00  0.00     0.115 A 
HETATM    5  N2  UNL     1      25.889   4.697  49.620  1.00  0.00    -0.165 N 
HETATM    6  C20 UNL     1      27.255   4.662  49.259  1.00  0.00     0.117 A 
HETATM    7  C21 UNL     1      27.948   5.516  48.531  1.00  0.00     0.047 A 
ENDROOT
BRANCH   5   8
HETATM    8  C11 UNL     1      25.419   3.552  50.339  1.00  0.00     0.732 A 
HETATM    9  N3  UNL     1      24.103   3.260  50.362  1.00  0.00    -0.074 NA
HETATM   10  C12 UNL     1      23.665   2.184  51.039  1.00  0.00     0.139 A 
HETATM   11  C13 UNL     1      24.511   1.341  51.729  1.00  0.00     0.053 A 
HETATM   12  C14 UNL     1      25.849   1.665  51.686  1.00  0.00     0.089 A 
HETATM   13  N5  UNL     1      26.267   2.746  51.003  1.00  0.00    -0.062 NA
BRANCH  12  14
HETATM   14  C15 UNL     1      26.869   0.874  52.364  1.00  0.00     0.011 A 
HETATM   15  C16 UNL     1      26.784  -0.502  52.328  1.00  0.00     0.017 A 
HETATM   16  C17 UNL     1      27.723  -1.302  52.952  1.00  0.00     0.020 A 
HETATM   17  C18 UNL     1      28.790  -0.743  53.641  1.00  0.00     0.116 A 
HETATM   18  N4  UNL     1      28.858   0.610  53.666  1.00  0.00    -0.272 NA
HETATM   19  C19 UNL     1      27.942   1.389  53.057  1.00  0.00     0.130 A 
ENDBRANCH  12  14
ENDBRANCH   5   8
BRANCH   1  20
HETATM   20  N1  UNL     1      28.548   7.359  47.138  1.00  0.00    -0.354 N 
HETATM   21  H6  UNL     1      28.319   7.560  46.138  1.00  0.00     0.166 HD
BRANCH  20  22
HETATM   22  C6  UNL     1      29.883   7.831  47.271  1.00  0.00     0.066 A 
HETATM   23  C1  UNL     1      30.434   8.386  48.398  1.00  0.00     0.092 A 
HETATM   24  C2  UNL     1      31.729   8.828  48.477  1.00  0.00     0.039 A 
HETATM   25  C3  UNL     1      32.473   8.680  47.322  1.00  0.00     0.003 A 
HETATM   26  C4  UNL     1      31.987   8.132  46.156  1.00  0.00     0.002 A 
HETATM   27  C5  UNL     1      30.673   7.700  46.124  1.00  0.00     0.032 A 
BRANCH  23  28
HETATM   28  O1  UNL     1      29.615   8.498  49.514  1.00  0.00    -0.358 OA
HETATM   29  H1  UNL     1      29.024   7.717  49.826  1.00  0.00     0.217 HD
ENDBRANCH  23  28
ENDBRANCH  20  22
ENDBRANCH   1  20
TORSDOF 5
ENDMDL
