MODEL 1
REMARK VINA RESULT:      -7.3      0.000      0.000
REMARK  10 active torsions:
REMARK  status: ('A' for Active; 'I' for Inactive)
REMARK    1  A    between atoms: N1_2  and  C2_3 
REMARK    2  A    between atoms: N1_2  and  C10_14 
REMARK    3  A    between atoms: C2_3  and  C3_4 
REMARK    4  A    between atoms: C3_4  and  C4_5 
REMARK    5  A    between atoms: C5_6  and  C6_7 
REMARK       I    between atoms: C6_7  and  N2_9 
REMARK    6  A    between atoms: N2_9  and  C7_10 
REMARK    7  A    between atoms: C7_10  and  C8_11 
REMARK    8  A    between atoms: C8_11  and  C9_12 
REMARK    9  A    between atoms: C14_20  and  O2_21 
REMARK   10  A    between atoms: C16_23  and  O3_24 
ROOT
HETATM    1  C10 UNL     1      23.257   2.053  52.406  1.00  0.00     0.143 A 
HETATM    2  N3  UNL     1      22.167   1.313  52.110  1.00  0.00    -0.223 NA
HETATM    3  C11 UNL     1      22.172   0.005  52.439  1.00  0.00     0.236 A 
HETATM    4  N4  UNL     1      23.242  -0.539  53.046  1.00  0.00    -0.241 NA
HETATM    5  C12 UNL     1      24.334   0.181  53.347  1.00  0.00     0.075 A 
HETATM    6  C13 UNL     1      25.460  -0.307  53.972  1.00  0.00     0.072 A 
HETATM    7  C14 UNL     1      26.579   0.436  54.288  1.00  0.00     0.103 A 
HETATM    8  C16 UNL     1      26.517   1.759  53.932  1.00  0.00     0.102 A 
HETATM    9  C18 UNL     1      25.461   2.396  53.301  1.00  0.00     0.057 A 
HETATM   10  C19 UNL     1      24.400   1.548  53.035  1.00  0.00     0.042 A 
ENDROOT
BRANCH   1  11
HETATM   11  N1  UNL     1      23.171   3.440  51.994  1.00  0.00    -0.348 N 
HETATM   12  C1  UNL     1      22.521   4.646  52.465  1.00  0.00     0.156 C 
BRANCH  11  13
HETATM   13  C2  UNL     1      23.957   3.487  50.826  1.00  0.00     0.074 C 
BRANCH  13  14
HETATM   14  C3  UNL     1      24.912   3.644  49.883  1.00  0.00     0.059 C 
BRANCH  14  15
HETATM   15  C4  UNL     1      25.928   4.654  49.567  1.00  0.00    -0.010 C 
HETATM   16  C5  UNL     1      25.197   5.659  50.084  1.00  0.00     0.071 C 
BRANCH  16  17
HETATM   17  C6  UNL     1      25.452   7.107  50.204  1.00  0.00     0.241 C 
HETATM   18  O1  UNL     1      24.952   8.257  50.470  1.00  0.00    -0.269 OA
HETATM   19  N2  UNL     1      26.813   7.511  49.920  1.00  0.00    -0.354 N 
HETATM   20  H8  UNL     1      27.671   6.939  49.643  1.00  0.00     0.163 HD
BRANCH  19  21
HETATM   21  C7  UNL     1      26.997   8.953  50.051  1.00  0.00     0.152 C 
BRANCH  21  22
HETATM   22  C8  UNL     1      28.415   9.247  49.633  1.00  0.00     0.022 C 
BRANCH  22  23
HETATM   23  C9  UNL     1      29.693   9.466  49.395  1.00  0.00     0.186 C 
HETATM   24  F1  UNL     1      30.925  10.005  49.415  1.00  0.00    -0.220 F 
ENDBRANCH  22  23
ENDBRANCH  21  22
ENDBRANCH  19  21
ENDBRANCH  16  17
ENDBRANCH  14  15
ENDBRANCH  13  14
ENDBRANCH  11  13
ENDBRANCH   1  11
BRANCH   8  25
HETATM   25  O3  UNL     1      27.676   2.439  54.282  1.00  0.00    -0.353 OA
HETATM   26  C17 UNL     1      28.726   2.615  53.356  1.00  0.00     0.210 C 
ENDBRANCH   8  25
BRANCH   7  27
HETATM   27  O2  UNL     1      27.613  -0.209  54.914  1.00  0.00    -0.353 OA
HETATM   28  C15 UNL     1      28.738  -0.733  54.232  1.00  0.00     0.210 C 
ENDBRANCH   7  27
TORSDOF 10
ENDMDL
MODEL 2
REMARK VINA RESULT:      -7.2      2.464      3.679
REMARK  10 active torsions:
REMARK  status: ('A' for Active; 'I' for Inactive)
REMARK    1  A    between atoms: N1_2  and  C2_3 
REMARK    2  A    between atoms: N1_2  and  C10_14 
REMARK    3  A    between atoms: C2_3  and  C3_4 
REMARK    4  A    between atoms: C3_4  and  C4_5 
REMARK    5  A    between atoms: C5_6  and  C6_7 
REMARK       I    between atoms: C6_7  and  N2_9 
REMARK    6  A    between atoms: N2_9  and  C7_10 
REMARK    7  A    between atoms: C7_10  and  C8_11 
REMARK    8  A    between atoms: C8_11  and  C9_12 
REMARK    9  A    between atoms: C14_20  and  O2_21 
REMARK   10  A    between atoms: C16_23  and  O3_24 
ROOT
HETATM    1  C10 UNL     1      22.842   1.796  52.447  1.00  0.00     0.143 A 
HETATM    2  N3  UNL     1      22.374   3.057  52.331  1.00  0.00    -0.223 NA
HETATM    3  C11 UNL     1      23.157   4.072  52.752  1.00  0.00     0.236 A 
HETATM    4  N4  UNL     1      24.371   3.823  53.272  1.00  0.00    -0.241 NA
HETATM    5  C12 UNL     1      24.853   2.575  53.395  1.00  0.00     0.075 A 
HETATM    6  C13 UNL     1      26.086   2.247  53.911  1.00  0.00     0.072 A 
HETATM    7  C14 UNL     1      26.583   0.965  54.030  1.00  0.00     0.103 A 
HETATM    8  C16 UNL     1      25.745  -0.026  53.585  1.00  0.00     0.102 A 
HETATM    9  C18 UNL     1      24.481   0.143  53.044  1.00  0.00     0.057 A 
HETATM   10  C19 UNL     1      24.094   1.470  52.978  1.00  0.00     0.042 A 
ENDROOT
BRANCH   1  11
HETATM   11  N1  UNL     1      21.923   0.771  51.993  1.00  0.00    -0.348 N 
HETATM   12  C1  UNL     1      21.139  -0.289  52.592  1.00  0.00     0.156 C 
BRANCH  11  13
HETATM   13  C2  UNL     1      21.877   0.963  50.598  1.00  0.00     0.074 C 
BRANCH  13  14
HETATM   14  C3  UNL     1      21.586   0.995  49.279  1.00  0.00     0.059 C 
BRANCH  14  15
HETATM   15  C4  UNL     1      21.764   1.951  48.181  1.00  0.00    -0.010 C 
HETATM   16  C5  UNL     1      22.531   2.773  48.922  1.00  0.00     0.071 C 
BRANCH  16  17
HETATM   17  C6  UNL     1      23.191   4.055  48.612  1.00  0.00     0.241 C 
HETATM   18  O1  UNL     1      23.160   5.124  47.905  1.00  0.00    -0.269 OA
HETATM   19  N2  UNL     1      24.395   4.318  49.371  1.00  0.00    -0.354 N 
HETATM   20  H8  UNL     1      24.888   3.746  50.125  1.00  0.00     0.163 HD
BRANCH  19  21
HETATM   21  C7  UNL     1      25.001   5.598  49.013  1.00  0.00     0.152 C 
BRANCH  21  22
HETATM   22  C8  UNL     1      26.457   5.324  48.740  1.00  0.00     0.022 C 
BRANCH  22  23
HETATM   23  C9  UNL     1      27.736   5.024  48.624  1.00  0.00     0.186 C 
HETATM   24  F1  UNL     1      28.951   4.778  48.102  1.00  0.00    -0.220 F 
ENDBRANCH  22  23
ENDBRANCH  21  22
ENDBRANCH  19  21
ENDBRANCH  16  17
ENDBRANCH  14  15
ENDBRANCH  13  14
ENDBRANCH  11  13
ENDBRANCH   1  11
BRANCH   8  25
HETATM   25  O3  UNL     1      26.313  -1.283  53.736  1.00  0.00    -0.353 OA
HETATM   26  C17 UNL     1      26.923  -1.944  52.648  1.00  0.00     0.210 C 
ENDBRANCH   8  25
BRANCH   7  27
HETATM   27  O2  UNL     1      27.835   0.817  54.565  1.00  0.00    -0.353 OA
HETATM   28  C15 UNL     1      28.981   1.492  54.079  1.00  0.00     0.210 C 
ENDBRANCH   7  27
TORSDOF 10
ENDMDL
MODEL 3
REMARK VINA RESULT:      -7.1      2.046      3.247
REMARK  10 active torsions:
REMARK  status: ('A' for Active; 'I' for Inactive)
REMARK    1  A    between atoms: N1_2  and  C2_3 
REMARK    2  A    between atoms: N1_2  and  C10_14 
REMARK    3  A    between atoms: C2_3  and  C3_4 
REMARK    4  A    between atoms: C3_4  and  C4_5 
REMARK    5  A    between atoms: C5_6  and  C6_7 
REMARK       I    between atoms: C6_7  and  N2_9 
REMARK    6  A    between atoms: N2_9  and  C7_10 
REMARK    7  A    between atoms: C7_10  and  C8_11 
REMARK    8  A    between atoms: C8_11  and  C9_12 
REMARK    9  A    between atoms: C14_20  and  O2_21 
REMARK   10  A    between atoms: C16_23  and  O3_24 
ROOT
HETATM    1  C10 UNL     1      24.538   2.103  51.604  1.00  0.00     0.143 A 
HETATM    2  N3  UNL     1      24.882   2.954  50.613  1.00  0.00    -0.223 NA
HETATM    3  C11 UNL     1      26.193   3.179  50.388  1.00  0.00     0.236 A 
HETATM    4  N4  UNL     1      27.126   2.566  51.138  1.00  0.00    -0.241 NA
HETATM    5  C12 UNL     1      26.803   1.717  52.127  1.00  0.00     0.075 A 
HETATM    6  C13 UNL     1      27.703   1.051  52.928  1.00  0.00     0.072 A 
HETATM    7  C14 UNL     1      27.369   0.173  53.940  1.00  0.00     0.103 A 
HETATM    8  C16 UNL     1      26.023  -0.017  54.123  1.00  0.00     0.102 A 
HETATM    9  C18 UNL     1      25.000   0.577  53.402  1.00  0.00     0.057 A 
HETATM   10  C19 UNL     1      25.459   1.435  52.418  1.00  0.00     0.042 A 
ENDROOT
BRANCH   1  11
HETATM   11  N1  UNL     1      23.110   1.943  51.789  1.00  0.00    -0.348 N 
HETATM   12  C1  UNL     1      22.149   0.859  51.732  1.00  0.00     0.156 C 
BRANCH  11  13
HETATM   13  C2  UNL     1      22.667   3.246  52.088  1.00  0.00     0.074 C 
BRANCH  13  14
HETATM   14  C3  UNL     1      21.988   4.400  52.272  1.00  0.00     0.059 C 
BRANCH  14  15
HETATM   15  C4  UNL     1      21.906   5.696  51.592  1.00  0.00    -0.010 C 
HETATM   16  C5  UNL     1      23.227   5.731  51.335  1.00  0.00     0.071 C 
BRANCH  16  17
HETATM   17  C6  UNL     1      24.075   6.724  50.650  1.00  0.00     0.241 C 
HETATM   18  O1  UNL     1      24.365   7.966  50.519  1.00  0.00    -0.269 OA
HETATM   19  N2  UNL     1      25.018   6.168  49.701  1.00  0.00    -0.354 N 
HETATM   20  H8  UNL     1      25.210   5.159  49.413  1.00  0.00     0.163 HD
BRANCH  19  21
HETATM   21  C7  UNL     1      25.822   7.203  49.056  1.00  0.00     0.152 C 
BRANCH  21  22
HETATM   22  C8  UNL     1      27.129   6.557  48.675  1.00  0.00     0.022 C 
BRANCH  22  23
HETATM   23  C9  UNL     1      28.258   6.053  48.220  1.00  0.00     0.186 C 
HETATM   24  F1  UNL     1      29.212   5.182  47.843  1.00  0.00    -0.220 F 
ENDBRANCH  22  23
ENDBRANCH  21  22
ENDBRANCH  19  21
ENDBRANCH  16  17
ENDBRANCH  14  15
ENDBRANCH  13  14
ENDBRANCH  11  13
ENDBRANCH   1  11
BRANCH   8  25
HETATM   25  O3  UNL     1      25.767  -0.911  55.153  1.00  0.00    -0.353 OA
HETATM   26  C17 UNL     1      24.446  -1.254  55.510  1.00  0.00     0.210 C 
ENDBRANCH   8  25
BRANCH   7  27
HETATM   27  O2  UNL     1      28.393  -0.406  54.640  1.00  0.00    -0.353 OA
HETATM   28  C15 UNL     1      29.613  -0.818  54.050  1.00  0.00     0.210 C 
ENDBRANCH   7  27
TORSDOF 10
ENDMDL
MODEL 4
REMARK VINA RESULT:      -7.1      2.671      3.306
REMARK  10 active torsions:
REMARK  status: ('A' for Active; 'I' for Inactive)
REMARK    1  A    between atoms: N1_2  and  C2_3 
REMARK    2  A    between atoms: N1_2  and  C10_14 
REMARK    3  A    between atoms: C2_3  and  C3_4 
REMARK    4  A    between atoms: C3_4  and  C4_5 
REMARK    5  A    between atoms: C5_6  and  C6_7 
REMARK       I    between atoms: C6_7  and  N2_9 
REMARK    6  A    between atoms: N2_9  and  C7_10 
REMARK    7  A    between atoms: C7_10  and  C8_11 
REMARK    8  A    between atoms: C8_11  and  C9_12 
REMARK    9  A    between atoms: C14_20  and  O2_21 
REMARK   10  A    between atoms: C16_23  and  O3_24 
ROOT
HETATM    1  C10 UNL     1      21.583   0.593  52.847  1.00  0.00     0.143 A 
HETATM    2  N3  UNL     1      20.706  -0.318  53.323  1.00  0.00    -0.223 NA
HETATM    3  C11 UNL     1      21.178  -1.320  54.093  1.00  0.00     0.236 A 
HETATM    4  N4  UNL     1      22.491  -1.400  54.374  1.00  0.00    -0.241 NA
HETATM    5  C12 UNL     1      23.377  -0.504  53.911  1.00  0.00     0.075 A 
HETATM    6  C13 UNL     1      24.730  -0.521  54.163  1.00  0.00     0.072 A 
HETATM    7  C14 UNL     1      25.638   0.406  53.692  1.00  0.00     0.103 A 
HETATM    8  C16 UNL     1      25.102   1.402  52.916  1.00  0.00     0.102 A 
HETATM    9  C18 UNL     1      23.768   1.554  52.574  1.00  0.00     0.057 A 
HETATM   10  C19 UNL     1      22.958   0.566  53.103  1.00  0.00     0.042 A 
ENDROOT
BRANCH   1  11
HETATM   11  N1  UNL     1      20.990   1.617  52.011  1.00  0.00    -0.348 N 
HETATM   12  C1  UNL     1      20.305   2.879  52.206  1.00  0.00     0.156 C 
BRANCH  11  13
HETATM   13  C2  UNL     1      21.194   1.135  50.703  1.00  0.00     0.074 C 
BRANCH  13  14
HETATM   14  C3  UNL     1      21.379   0.954  49.377  1.00  0.00     0.059 C 
BRANCH  14  15
HETATM   15  C4  UNL     1      22.003   1.708  48.285  1.00  0.00    -0.010 C 
HETATM   16  C5  UNL     1      22.318   2.747  49.082  1.00  0.00     0.071 C 
BRANCH  16  17
HETATM   17  C6  UNL     1      23.000   4.026  48.815  1.00  0.00     0.241 C 
HETATM   18  O1  UNL     1      22.914   5.186  48.275  1.00  0.00    -0.269 OA
HETATM   19  N2  UNL     1      24.346   4.120  49.341  1.00  0.00    -0.354 N 
HETATM   20  H8  UNL     1      24.932   3.422  49.897  1.00  0.00     0.163 HD
BRANCH  19  21
HETATM   21  C7  UNL     1      24.965   5.408  49.038  1.00  0.00     0.152 C 
BRANCH  21  22
HETATM   22  C8  UNL     1      26.438   5.144  48.854  1.00  0.00     0.022 C 
BRANCH  22  23
HETATM   23  C9  UNL     1      27.733   5.038  48.635  1.00  0.00     0.186 C 
HETATM   24  F1  UNL     1      28.916   4.720  48.077  1.00  0.00    -0.220 F 
ENDBRANCH  22  23
ENDBRANCH  21  22
ENDBRANCH  19  21
ENDBRANCH  16  17
ENDBRANCH  14  15
ENDBRANCH  13  14
ENDBRANCH  11  13
ENDBRANCH   1  11
BRANCH   8  25
HETATM   25  O3  UNL     1      26.074   2.293  52.482  1.00  0.00    -0.353 OA
HETATM   26  C17 UNL     1      26.647   2.178  51.197  1.00  0.00     0.210 C 
ENDBRANCH   8  25
BRANCH   7  27
HETATM   27  O2  UNL     1      26.952   0.241  54.042  1.00  0.00    -0.353 OA
HETATM   28  C15 UNL     1      27.822  -0.682  53.412  1.00  0.00     0.210 C 
ENDBRANCH   7  27
TORSDOF 10
ENDMDL
MODEL 5
REMARK VINA RESULT:      -6.9      2.109      2.721
REMARK  10 active torsions:
REMARK  status: ('A' for Active; 'I' for Inactive)
REMARK    1  A    between atoms: N1_2  and  C2_3 
REMARK    2  A    between atoms: N1_2  and  C10_14 
REMARK    3  A    between atoms: C2_3  and  C3_4 
REMARK    4  A    between atoms: C3_4  and  C4_5 
REMARK    5  A    between atoms: C5_6  and  C6_7 
REMARK       I    between atoms: C6_7  and  N2_9 
REMARK    6  A    between atoms: N2_9  and  C7_10 
REMARK    7  A    between atoms: C7_10  and  C8_11 
REMARK    8  A    between atoms: C8_11  and  C9_12 
REMARK    9  A    between atoms: C14_20  and  O2_21 
REMARK   10  A    between atoms: C16_23  and  O3_24 
ROOT
HETATM    1  C10 UNL     1      22.453   0.550  52.376  1.00  0.00     0.143 A 
HETATM    2  N3  UNL     1      21.575  -0.194  53.083  1.00  0.00    -0.223 NA
HETATM    3  C11 UNL     1      22.040  -0.920  54.120  1.00  0.00     0.236 A 
HETATM    4  N4  UNL     1      23.348  -0.897  54.433  1.00  0.00    -0.241 NA
HETATM    5  C12 UNL     1      24.235  -0.164  53.742  1.00  0.00     0.075 A 
HETATM    6  C13 UNL     1      25.583  -0.088  54.009  1.00  0.00     0.072 A 
HETATM    7  C14 UNL     1      26.493   0.672  53.302  1.00  0.00     0.103 A 
HETATM    8  C16 UNL     1      25.963   1.390  52.260  1.00  0.00     0.102 A 
HETATM    9  C18 UNL     1      24.635   1.418  51.867  1.00  0.00     0.057 A 
HETATM   10  C19 UNL     1      23.822   0.617  52.650  1.00  0.00     0.042 A 
ENDROOT
BRANCH   1  11
HETATM   11  N1  UNL     1      21.867   1.276  51.267  1.00  0.00    -0.348 N 
HETATM   12  C1  UNL     1      21.542   1.010  49.880  1.00  0.00     0.156 C 
BRANCH  11  13
HETATM   13  C2  UNL     1      21.597   2.548  51.809  1.00  0.00     0.074 C 
BRANCH  13  14
HETATM   14  C3  UNL     1      21.626   3.805  52.304  1.00  0.00     0.059 C 
BRANCH  14  15
HETATM   15  C4  UNL     1      22.665   4.758  52.705  1.00  0.00    -0.010 C 
HETATM   16  C5  UNL     1      22.700   5.345  51.494  1.00  0.00     0.071 C 
BRANCH  16  17
HETATM   17  C6  UNL     1      23.501   6.462  50.959  1.00  0.00     0.241 C 
HETATM   18  O1  UNL     1      23.489   7.666  50.520  1.00  0.00    -0.269 OA
HETATM   19  N2  UNL     1      24.918   6.189  50.836  1.00  0.00    -0.354 N 
HETATM   20  H8  UNL     1      25.488   5.318  51.072  1.00  0.00     0.163 HD
BRANCH  19  21
HETATM   21  C7  UNL     1      25.652   7.331  50.297  1.00  0.00     0.152 C 
BRANCH  21  22
HETATM   22  C8  UNL     1      26.616   6.781  49.278  1.00  0.00     0.022 C 
BRANCH  22  23
HETATM   23  C9  UNL     1      27.433   6.176  48.439  1.00  0.00     0.186 C 
HETATM   24  F1  UNL     1      28.404   5.391  47.939  1.00  0.00    -0.220 F 
ENDBRANCH  22  23
ENDBRANCH  21  22
ENDBRANCH  19  21
ENDBRANCH  16  17
ENDBRANCH  14  15
ENDBRANCH  13  14
ENDBRANCH  11  13
ENDBRANCH   1  11
BRANCH   8  25
HETATM   25  O3  UNL     1      26.936   2.128  51.600  1.00  0.00    -0.353 OA
HETATM   26  C17 UNL     1      26.609   2.942  50.494  1.00  0.00     0.210 C 
ENDBRANCH   8  25
BRANCH   7  27
HETATM   27  O2  UNL     1      27.801   0.635  53.706  1.00  0.00    -0.353 OA
HETATM   28  C15 UNL     1      28.618  -0.517  53.611  1.00  0.00     0.210 C 
ENDBRANCH   7  27
TORSDOF 10
ENDMDL
MODEL 6
REMARK VINA RESULT:      -6.8      2.545      3.632
REMARK  10 active torsions:
REMARK  status: ('A' for Active; 'I' for Inactive)
REMARK    1  A    between atoms: N1_2  and  C2_3 
REMARK    2  A    between atoms: N1_2  and  C10_14 
REMARK    3  A    between atoms: C2_3  and  C3_4 
REMARK    4  A    between atoms: C3_4  and  C4_5 
REMARK    5  A    between atoms: C5_6  and  C6_7 
REMARK       I    between atoms: C6_7  and  N2_9 
REMARK    6  A    between atoms: N2_9  and  C7_10 
REMARK    7  A    between atoms: C7_10  and  C8_11 
REMARK    8  A    between atoms: C8_11  and  C9_12 
REMARK    9  A    between atoms: C14_20  and  O2_21 
REMARK   10  A    between atoms: C16_23  and  O3_24 
ROOT
HETATM    1  C10 UNL     1      24.386   2.106  51.436  1.00  0.00     0.143 A 
HETATM    2  N3  UNL     1      24.753   3.054  50.547  1.00  0.00    -0.223 NA
HETATM    3  C11 UNL     1      26.068   3.305  50.383  1.00  0.00     0.236 A 
HETATM    4  N4  UNL     1      26.984   2.621  51.093  1.00  0.00    -0.241 NA
HETATM    5  C12 UNL     1      26.638   1.675  51.981  1.00  0.00     0.075 A 
HETATM    6  C13 UNL     1      27.518   0.934  52.736  1.00  0.00     0.072 A 
HETATM    7  C14 UNL     1      27.162  -0.043  53.643  1.00  0.00     0.103 A 
HETATM    8  C16 UNL     1      25.813  -0.256  53.767  1.00  0.00     0.102 A 
HETATM    9  C18 UNL     1      24.806   0.406  53.081  1.00  0.00     0.057 A 
HETATM   10  C19 UNL     1      25.287   1.361  52.204  1.00  0.00     0.042 A 
ENDROOT
BRANCH   1  11
HETATM   11  N1  UNL     1      22.954   1.924  51.563  1.00  0.00    -0.348 N 
HETATM   12  C1  UNL     1      21.968   1.984  52.623  1.00  0.00     0.156 C 
BRANCH  11  13
HETATM   13  C2  UNL     1      22.544   1.606  50.253  1.00  0.00     0.074 C 
BRANCH  13  14
HETATM   14  C3  UNL     1      21.952   1.508  49.042  1.00  0.00     0.059 C 
BRANCH  14  15
HETATM   15  C4  UNL     1      22.032   2.226  47.766  1.00  0.00    -0.010 C 
HETATM   16  C5  UNL     1      22.421   3.375  48.352  1.00  0.00     0.071 C 
BRANCH  16  17
HETATM   17  C6  UNL     1      22.747   4.704  47.801  1.00  0.00     0.241 C 
HETATM   18  O1  UNL     1      22.497   5.568  46.888  1.00  0.00    -0.269 OA
HETATM   19  N2  UNL     1      23.775   5.425  48.522  1.00  0.00    -0.354 N 
HETATM   20  H8  UNL     1      24.337   5.164  49.391  1.00  0.00     0.163 HD
BRANCH  19  21
HETATM   21  C7  UNL     1      24.053   6.728  47.923  1.00  0.00     0.152 C 
BRANCH  21  22
HETATM   22  C8  UNL     1      25.521   6.995  48.136  1.00  0.00     0.022 C 
BRANCH  22  23
HETATM   23  C9  UNL     1      26.828   7.105  48.268  1.00  0.00     0.186 C 
HETATM   24  F1  UNL     1      28.081   6.993  48.745  1.00  0.00    -0.220 F 
ENDBRANCH  22  23
ENDBRANCH  21  22
ENDBRANCH  19  21
ENDBRANCH  16  17
ENDBRANCH  14  15
ENDBRANCH  13  14
ENDBRANCH  11  13
ENDBRANCH   1  11
BRANCH   8  25
HETATM   25  O3  UNL     1      25.533  -1.251  54.693  1.00  0.00    -0.353 OA
HETATM   26  C17 UNL     1      24.342  -1.229  55.449  1.00  0.00     0.210 C 
ENDBRANCH   8  25
BRANCH   7  27
HETATM   27  O2  UNL     1      28.170  -0.689  54.309  1.00  0.00    -0.353 OA
HETATM   28  C15 UNL     1      29.531  -0.620  53.928  1.00  0.00     0.210 C 
ENDBRANCH   7  27
TORSDOF 10
ENDMDL
MODEL 7
REMARK VINA RESULT:      -6.7      5.066      7.914
REMARK  10 active torsions:
REMARK  status: ('A' for Active; 'I' for Inactive)
REMARK    1  A    between atoms: N1_2  and  C2_3 
REMARK    2  A    between atoms: N1_2  and  C10_14 
REMARK    3  A    between atoms: C2_3  and  C3_4 
REMARK    4  A    between atoms: C3_4  and  C4_5 
REMARK    5  A    between atoms: C5_6  and  C6_7 
REMARK       I    between atoms: C6_7  and  N2_9 
REMARK    6  A    between atoms: N2_9  and  C7_10 
REMARK    7  A    between atoms: C7_10  and  C8_11 
REMARK    8  A    between atoms: C8_11  and  C9_12 
REMARK    9  A    between atoms: C14_20  and  O2_21 
REMARK   10  A    between atoms: C16_23  and  O3_24 
ROOT
HETATM    1  C10 UNL     1      24.361   3.482  50.835  1.00  0.00     0.143 A 
HETATM    2  N3  UNL     1      25.111   4.305  50.071  1.00  0.00    -0.223 NA
HETATM    3  C11 UNL     1      26.424   4.027  49.929  1.00  0.00     0.236 A 
HETATM    4  N4  UNL     1      26.962   2.955  50.537  1.00  0.00    -0.241 NA
HETATM    5  C12 UNL     1      26.231   2.126  51.300  1.00  0.00     0.075 A 
HETATM    6  C13 UNL     1      26.712   1.010  51.947  1.00  0.00     0.072 A 
HETATM    7  C14 UNL     1      25.958   0.155  52.724  1.00  0.00     0.103 A 
HETATM    8  C16 UNL     1      24.631   0.485  52.832  1.00  0.00     0.102 A 
HETATM    9  C18 UNL     1      24.001   1.571  52.245  1.00  0.00     0.057 A 
HETATM   10  C19 UNL     1      24.859   2.353  51.493  1.00  0.00     0.042 A 
ENDROOT
BRANCH   1  11
HETATM   11  N1  UNL     1      22.970   3.872  50.949  1.00  0.00    -0.348 N 
HETATM   12  C1  UNL     1      22.178   4.731  51.807  1.00  0.00     0.156 C 
BRANCH  11  13
HETATM   13  C2  UNL     1      22.340   3.162  49.909  1.00  0.00     0.074 C 
BRANCH  13  14
HETATM   14  C3  UNL     1      21.919   2.268  48.987  1.00  0.00     0.059 C 
BRANCH  14  15
HETATM   15  C4  UNL     1      21.141   1.025  49.000  1.00  0.00    -0.010 C 
HETATM   16  C5  UNL     1      20.078   1.608  49.584  1.00  0.00     0.071 C 
BRANCH  16  17
HETATM   17  C6  UNL     1      18.764   1.081  49.998  1.00  0.00     0.241 C 
HETATM   18  O1  UNL     1      17.537   0.906  49.670  1.00  0.00    -0.269 OA
HETATM   19  N2  UNL     1      18.734   0.488  51.318  1.00  0.00    -0.354 N 
HETATM   20  H8  UNL     1      19.503   0.359  52.046  1.00  0.00     0.163 HD
BRANCH  19  21
HETATM   21  C7  UNL     1      17.406  -0.009  51.667  1.00  0.00     0.152 C 
BRANCH  21  22
HETATM   22  C8  UNL     1      17.612  -1.155  52.624  1.00  0.00     0.022 C 
BRANCH  22  23
HETATM   23  C9  UNL     1      17.863  -2.069  53.540  1.00  0.00     0.186 C 
HETATM   24  F1  UNL     1      17.848  -3.218  54.240  1.00  0.00    -0.220 F 
ENDBRANCH  22  23
ENDBRANCH  21  22
ENDBRANCH  19  21
ENDBRANCH  16  17
ENDBRANCH  14  15
ENDBRANCH  13  14
ENDBRANCH  11  13
ENDBRANCH   1  11
BRANCH   8  25
HETATM   25  O3  UNL     1      23.941  -0.419  53.626  1.00  0.00    -0.353 OA
HETATM   26  C17 UNL     1      22.691  -0.938  53.224  1.00  0.00     0.210 C 
ENDBRANCH   8  25
BRANCH   7  27
HETATM   27  O2  UNL     1      26.597  -0.914  53.294  1.00  0.00    -0.353 OA
HETATM   28  C15 UNL     1      26.947  -2.088  52.585  1.00  0.00     0.210 C 
ENDBRANCH   7  27
TORSDOF 10
ENDMDL
MODEL 8
REMARK VINA RESULT:      -6.7      2.655      3.014
REMARK  10 active torsions:
REMARK  status: ('A' for Active; 'I' for Inactive)
REMARK    1  A    between atoms: N1_2  and  C2_3 
REMARK    2  A    between atoms: N1_2  and  C10_14 
REMARK    3  A    between atoms: C2_3  and  C3_4 
REMARK    4  A    between atoms: C3_4  and  C4_5 
REMARK    5  A    between atoms: C5_6  and  C6_7 
REMARK       I    between atoms: C6_7  and  N2_9 
REMARK    6  A    between atoms: N2_9  and  C7_10 
REMARK    7  A    between atoms: C7_10  and  C8_11 
REMARK    8  A    between atoms: C8_11  and  C9_12 
REMARK    9  A    between atoms: C14_20  and  O2_21 
REMARK   10  A    between atoms: C16_23  and  O3_24 
ROOT
HETATM    1  C10 UNL     1      23.313   3.242  51.369  1.00  0.00     0.143 A 
HETATM    2  N3  UNL     1      22.164   2.980  50.710  1.00  0.00    -0.223 NA
HETATM    3  C11 UNL     1      21.622   1.751  50.831  1.00  0.00     0.236 A 
HETATM    4  N4  UNL     1      22.219   0.816  51.592  1.00  0.00    -0.241 NA
HETATM    5  C12 UNL     1      23.362   1.058  52.254  1.00  0.00     0.075 A 
HETATM    6  C13 UNL     1      24.024   0.154  53.053  1.00  0.00     0.072 A 
HETATM    7  C14 UNL     1      25.195   0.407  53.739  1.00  0.00     0.103 A 
HETATM    8  C16 UNL     1      25.699   1.673  53.580  1.00  0.00     0.102 A 
HETATM    9  C18 UNL     1      25.152   2.689  52.813  1.00  0.00     0.057 A 
HETATM   10  C19 UNL     1      23.983   2.315  52.174  1.00  0.00     0.042 A 
ENDROOT
BRANCH   1  11
HETATM   11  N1  UNL     1      23.834   4.578  51.160  1.00  0.00    -0.348 N 
HETATM   12  C1  UNL     1      23.665   5.886  51.760  1.00  0.00     0.156 C 
BRANCH  11  13
HETATM   13  C2  UNL     1      24.706   4.426  50.065  1.00  0.00     0.074 C 
BRANCH  13  14
HETATM   14  C3  UNL     1      25.666   4.076  49.181  1.00  0.00     0.059 C 
BRANCH  14  15
HETATM   15  C4  UNL     1      27.132   4.036  49.175  1.00  0.00    -0.010 C 
HETATM   16  C5  UNL     1      27.238   5.253  48.608  1.00  0.00     0.071 C 
BRANCH  16  17
HETATM   17  C6  UNL     1      28.406   6.061  48.212  1.00  0.00     0.241 C 
HETATM   18  O1  UNL     1      28.877   6.914  47.379  1.00  0.00    -0.269 OA
HETATM   19  N2  UNL     1      29.573   5.897  49.054  1.00  0.00    -0.354 N 
HETATM   20  H8  UNL     1      29.734   5.294  49.920  1.00  0.00     0.163 HD
BRANCH  19  21
HETATM   21  C7  UNL     1      30.694   6.719  48.605  1.00  0.00     0.152 C 
BRANCH  21  22
HETATM   22  C8  UNL     1      31.792   5.769  48.204  1.00  0.00     0.022 C 
BRANCH  22  23
HETATM   23  C9  UNL     1      32.748   4.889  47.982  1.00  0.00     0.186 C 
HETATM   24  F1  UNL     1      33.534   3.801  48.075  1.00  0.00    -0.220 F 
ENDBRANCH  22  23
ENDBRANCH  21  22
ENDBRANCH  19  21
ENDBRANCH  16  17
ENDBRANCH  14  15
ENDBRANCH  13  14
ENDBRANCH  11  13
ENDBRANCH   1  11
BRANCH   8  25
HETATM   25  O3  UNL     1      26.873   1.851  54.299  1.00  0.00    -0.353 OA
HETATM   26  C17 UNL     1      28.130   1.848  53.656  1.00  0.00     0.210 C 
ENDBRANCH   8  25
BRANCH   7  27
HETATM   27  O2  UNL     1      25.720  -0.608  54.494  1.00  0.00    -0.353 OA
HETATM   28  C15 UNL     1      25.085  -1.141  55.641  1.00  0.00     0.210 C 
ENDBRANCH   7  27
TORSDOF 10
ENDMDL
MODEL 9
REMARK VINA RESULT:      -6.5      2.563      3.675
REMARK  10 active torsions:
REMARK  status: ('A' for Active; 'I' for Inactive)
REMARK    1  A    between atoms: N1_2  and  C2_3 
REMARK    2  A    between atoms: N1_2  and  C10_14 
REMARK    3  A    between atoms: C2_3  and  C3_4 
REMARK    4  A    between atoms: C3_4  and  C4_5 
REMARK    5  A    between atoms: C5_6  and  C6_7 
REMARK       I    between atoms: C6_7  and  N2_9 
REMARK    6  A    between atoms: N2_9  and  C7_10 
REMARK    7  A    between atoms: C7_10  and  C8_11 
REMARK    8  A    between atoms: C8_11  and  C9_12 
REMARK    9  A    between atoms: C14_20  and  O2_21 
REMARK   10  A    between atoms: C16_23  and  O3_24 
ROOT
HETATM    1  C10 UNL     1      24.373   2.034  51.369  1.00  0.00     0.143 A 
HETATM    2  N3  UNL     1      24.747   2.894  50.397  1.00  0.00    -0.223 NA
HETATM    3  C11 UNL     1      26.064   3.112  50.207  1.00  0.00     0.236 A 
HETATM    4  N4  UNL     1      26.974   2.484  50.972  1.00  0.00    -0.241 NA
HETATM    5  C12 UNL     1      26.621   1.626  51.943  1.00  0.00     0.075 A 
HETATM    6  C13 UNL     1      27.496   0.944  52.758  1.00  0.00     0.072 A 
HETATM    7  C14 UNL     1      27.132   0.057  53.750  1.00  0.00     0.103 A 
HETATM    8  C16 UNL     1      25.781  -0.127  53.897  1.00  0.00     0.102 A 
HETATM    9  C18 UNL     1      24.779   0.483  53.158  1.00  0.00     0.057 A 
HETATM   10  C19 UNL     1      25.268   1.350  52.197  1.00  0.00     0.042 A 
ENDROOT
BRANCH   1  11
HETATM   11  N1  UNL     1      22.939   1.881  51.516  1.00  0.00    -0.348 N 
HETATM   12  C1  UNL     1      21.954   0.846  51.279  1.00  0.00     0.156 C 
BRANCH  11  13
HETATM   13  C2  UNL     1      22.524   3.130  52.019  1.00  0.00     0.074 C 
BRANCH  13  14
HETATM   14  C3  UNL     1      22.034   4.371  52.230  1.00  0.00     0.059 C 
BRANCH  14  15
HETATM   15  C4  UNL     1      21.967   5.623  51.469  1.00  0.00    -0.010 C 
HETATM   16  C5  UNL     1      23.306   5.723  51.372  1.00  0.00     0.071 C 
BRANCH  16  17
HETATM   17  C6  UNL     1      24.179   6.729  50.737  1.00  0.00     0.241 C 
HETATM   18  O1  UNL     1      25.315   7.321  50.765  1.00  0.00    -0.269 OA
HETATM   19  N2  UNL     1      23.607   7.388  49.581  1.00  0.00    -0.354 N 
HETATM   20  H8  UNL     1      22.661   7.268  49.103  1.00  0.00     0.163 HD
BRANCH  19  21
HETATM   21  C7  UNL     1      24.518   8.372  49.004  1.00  0.00     0.152 C 
BRANCH  21  22
HETATM   22  C8  UNL     1      24.389   8.253  47.508  1.00  0.00     0.022 C 
BRANCH  22  23
HETATM   23  C9  UNL     1      24.378   8.056  46.204  1.00  0.00     0.186 C 
HETATM   24  F1  UNL     1      24.772   7.784  44.947  1.00  0.00    -0.220 F 
ENDBRANCH  22  23
ENDBRANCH  21  22
ENDBRANCH  19  21
ENDBRANCH  16  17
ENDBRANCH  14  15
ENDBRANCH  13  14
ENDBRANCH  11  13
ENDBRANCH   1  11
BRANCH   8  25
HETATM   25  O3  UNL     1      25.493  -1.031  54.910  1.00  0.00    -0.353 OA
HETATM   26  C17 UNL     1      24.169  -1.231  55.356  1.00  0.00     0.210 C 
ENDBRANCH   8  25
BRANCH   7  27
HETATM   27  O2  UNL     1      28.135  -0.539  54.468  1.00  0.00    -0.353 OA
HETATM   28  C15 UNL     1      29.444  -0.739  53.969  1.00  0.00     0.210 C 
ENDBRANCH   7  27
TORSDOF 10
ENDMDL
