MODEL 1
REMARK VINA RESULT:      -7.9      0.000      0.000
REMARK  6 active torsions:
REMARK  status: ('A' for Active; 'I' for Inactive)
REMARK    1  A    between atoms: C15_20  and  O1_21 
REMARK    2  A    between atoms: O1_21  and  C16_22 
REMARK    3  A    between atoms: C16_22  and  C17_23 
REMARK    4  A    between atoms: C17_23  and  O2_24 
REMARK    5  A    between atoms: C17_23  and  C18_25 
REMARK    6  A    between atoms: C18_25  and  N4_26 
ROOT
HETATM    1  C1  UNL     1      28.502   2.262  53.320  1.00  0.00     0.070 C 
HETATM    2  C2  UNL     1      27.308   2.278  52.464  1.00  0.00     0.033 C 
HETATM    3  C3  UNL     1      26.722   2.877  51.447  1.00  0.00     0.029 C 
HETATM    4  C4  UNL     1      25.734   3.202  50.432  1.00  0.00     0.042 C 
HETATM    5  C5  UNL     1      24.562   2.712  50.171  1.00  0.00     0.122 C 
HETATM    6  F1  UNL     1      23.900   3.240  49.122  1.00  0.00    -0.209 F 
HETATM    7  C6  UNL     1      23.318   1.968  50.483  1.00  0.00     0.140 A 
HETATM    8 CL1  UNL     1      21.854   1.383  49.835  1.00  0.00    -0.179 Cl
HETATM    9  C7  UNL     1      22.664   1.330  51.430  1.00  0.00     0.108 A 
HETATM   10  C8  UNL     1      22.106   0.659  52.656  1.00  0.00     0.006 C 
HETATM   11  C9  UNL     1      22.792  -0.117  53.577  1.00  0.00     0.032 C 
HETATM   12  C10 UNL     1      24.236  -0.184  53.439  1.00  0.00     0.086 A 
HETATM   13  N1  UNL     1      24.935  -1.212  53.468  1.00  0.00    -0.238 NA
HETATM   14  C11 UNL     1      26.332  -1.227  53.227  1.00  0.00     0.256 A 
HETATM   15  N2  UNL     1      27.040  -0.186  52.951  1.00  0.00    -0.160 NA
HETATM   16  N3  UNL     1      26.591   1.134  52.837  1.00  0.00    -0.235 N 
HETATM   17  C12 UNL     1      25.394   0.601  53.124  1.00  0.00     0.087 A 
HETATM   18  C13 UNL     1      25.072   1.923  53.385  1.00  0.00     0.033 C 
HETATM   19  C14 UNL     1      24.335   3.078  52.878  1.00  0.00     0.018 C 
HETATM   20  C15 UNL     1      23.329   2.471  52.201  1.00  0.00     0.133 A 
ENDROOT
BRANCH  20  21
HETATM   21  O1  UNL     1      22.476   3.584  52.342  1.00  0.00    -0.369 OA
BRANCH  21  22
HETATM   22  C16 UNL     1      22.929   4.883  52.631  1.00  0.00     0.203 C 
BRANCH  22  23
HETATM   23  C17 UNL     1      22.448   5.791  51.491  1.00  0.00     0.169 C 
BRANCH  23  24
HETATM   24  O2  UNL     1      21.686   5.038  50.616  1.00  0.00    -0.392 OA
HETATM   25  H14 UNL     1      20.902   4.664  51.072  1.00  0.00     0.210 HD
ENDBRANCH  23  24
BRANCH  23  26
HETATM   26  C18 UNL     1      23.661   6.354  50.818  1.00  0.00     0.300 C 
BRANCH  26  27
HETATM   27  N4  UNL     1      24.500   7.007  51.807  1.00  0.00     0.080 N 
HETATM   28  H17 UNL     1      24.929   7.850  51.323  1.00  0.00     0.312 HD
HETATM   29  H18 UNL     1      25.292   6.331  52.040  1.00  0.00     0.312 HD
ENDBRANCH  26  27
ENDBRANCH  23  26
ENDBRANCH  22  23
ENDBRANCH  21  22
ENDBRANCH  20  21
TORSDOF 6
ENDMDL
MODEL 2
REMARK VINA RESULT:      -7.3      2.704      4.685
REMARK  6 active torsions:
REMARK  status: ('A' for Active; 'I' for Inactive)
REMARK    1  A    between atoms: C15_20  and  O1_21 
REMARK    2  A    between atoms: O1_21  and  C16_22 
REMARK    3  A    between atoms: C16_22  and  C17_23 
REMARK    4  A    between atoms: C17_23  and  O2_24 
REMARK    5  A    between atoms: C17_23  and  C18_25 
REMARK    6  A    between atoms: C18_25  and  N4_26 
ROOT
HETATM    1  C1  UNL     1      18.285  -0.253  51.444  1.00  0.00     0.070 C 
HETATM    2  C2  UNL     1      19.326   0.729  51.772  1.00  0.00     0.033 C 
HETATM    3  C3  UNL     1      19.667   2.001  51.698  1.00  0.00     0.029 C 
HETATM    4  C4  UNL     1      20.440   3.223  51.842  1.00  0.00     0.042 C 
HETATM    5  C5  UNL     1      21.618   3.454  52.333  1.00  0.00     0.122 C 
HETATM    6  F1  UNL     1      22.038   4.735  52.332  1.00  0.00    -0.209 F 
HETATM    7  C6  UNL     1      22.986   3.085  52.769  1.00  0.00     0.140 A 
HETATM    8 CL1  UNL     1      24.407   3.666  53.511  1.00  0.00    -0.179 Cl
HETATM    9  C7  UNL     1      23.855   2.099  52.843  1.00  0.00     0.108 A 
HETATM   10  C8  UNL     1      24.675   0.838  52.817  1.00  0.00     0.006 C 
HETATM   11  C9  UNL     1      24.247  -0.450  53.097  1.00  0.00     0.032 C 
HETATM   12  C10 UNL     1      22.823  -0.644  53.301  1.00  0.00     0.086 A 
HETATM   13  N1  UNL     1      22.287  -1.276  54.227  1.00  0.00    -0.238 NA
HETATM   14  C11 UNL     1      20.886  -1.347  54.432  1.00  0.00     0.256 A 
HETATM   15  N2  UNL     1      20.007  -0.769  53.688  1.00  0.00    -0.160 NA
HETATM   16  N3  UNL     1      20.244   0.022  52.559  1.00  0.00    -0.235 N 
HETATM   17  C12 UNL     1      21.532  -0.237  52.825  1.00  0.00     0.087 A 
HETATM   18  C13 UNL     1      21.701   0.205  51.523  1.00  0.00     0.033 C 
HETATM   19  C14 UNL     1      22.186   1.318  50.710  1.00  0.00     0.018 C 
HETATM   20  C15 UNL     1      23.157   1.823  51.511  1.00  0.00     0.133 A 
ENDROOT
BRANCH  20  21
HETATM   21  O1  UNL     1      23.856   2.379  50.420  1.00  0.00    -0.369 OA
BRANCH  21  22
HETATM   22  C16 UNL     1      23.229   2.910  49.279  1.00  0.00     0.203 C 
BRANCH  22  23
HETATM   23  C17 UNL     1      23.633   4.387  49.191  1.00  0.00     0.169 C 
BRANCH  23  24
HETATM   24  O2  UNL     1      23.157   4.907  48.000  1.00  0.00    -0.392 OA
HETATM   25  H14 UNL     1      23.098   5.885  48.048  1.00  0.00     0.210 HD
ENDBRANCH  23  24
BRANCH  23  26
HETATM   26  C18 UNL     1      25.126   4.454  49.261  1.00  0.00     0.300 C 
BRANCH  26  27
HETATM   27  N4  UNL     1      25.522   5.029  50.535  1.00  0.00     0.080 N 
HETATM   28  H17 UNL     1      26.201   4.339  50.974  1.00  0.00     0.312 HD
HETATM   29  H18 UNL     1      24.650   5.057  51.149  1.00  0.00     0.312 HD
ENDBRANCH  26  27
ENDBRANCH  23  26
ENDBRANCH  22  23
ENDBRANCH  21  22
ENDBRANCH  20  21
TORSDOF 6
ENDMDL
MODEL 3
REMARK VINA RESULT:      -7.1      1.801      2.348
REMARK  6 active torsions:
REMARK  status: ('A' for Active; 'I' for Inactive)
REMARK    1  A    between atoms: C15_20  and  O1_21 
REMARK    2  A    between atoms: O1_21  and  C16_22 
REMARK    3  A    between atoms: C16_22  and  C17_23 
REMARK    4  A    between atoms: C17_23  and  O2_24 
REMARK    5  A    between atoms: C17_23  and  C18_25 
REMARK    6  A    between atoms: C18_25  and  N4_26 
ROOT
HETATM    1  C1  UNL     1      26.415   0.988  54.607  1.00  0.00     0.070 C 
HETATM    2  C2  UNL     1      25.964   1.489  53.302  1.00  0.00     0.033 C 
HETATM    3  C3  UNL     1      26.326   2.154  52.222  1.00  0.00     0.029 C 
HETATM    4  C4  UNL     1      26.257   2.790  50.918  1.00  0.00     0.042 C 
HETATM    5  C5  UNL     1      25.286   2.933  50.070  1.00  0.00     0.122 C 
HETATM    6  F1  UNL     1      25.571   3.571  48.918  1.00  0.00    -0.209 F 
HETATM    7  C6  UNL     1      23.863   2.978  49.654  1.00  0.00     0.140 A 
HETATM    8 CL1  UNL     1      22.815   3.135  48.319  1.00  0.00    -0.179 Cl
HETATM    9  C7  UNL     1      22.621   2.902  50.083  1.00  0.00     0.108 A 
HETATM   10  C8  UNL     1      21.301   2.788  50.796  1.00  0.00     0.006 C 
HETATM   11  C9  UNL     1      20.967   1.909  51.814  1.00  0.00     0.032 C 
HETATM   12  C10 UNL     1      22.038   1.098  52.365  1.00  0.00     0.086 A 
HETATM   13  N1  UNL     1      22.004  -0.126  52.577  1.00  0.00    -0.238 NA
HETATM   14  C11 UNL     1      23.117  -0.884  53.023  1.00  0.00     0.256 A 
HETATM   15  N2  UNL     1      24.287  -0.399  53.260  1.00  0.00    -0.160 NA
HETATM   16  N3  UNL     1      24.690   0.935  53.131  1.00  0.00    -0.235 N 
HETATM   17  C12 UNL     1      23.421   1.131  52.744  1.00  0.00     0.087 A 
HETATM   18  C13 UNL     1      23.739   2.455  53.002  1.00  0.00     0.033 C 
HETATM   19  C14 UNL     1      24.035   3.740  52.373  1.00  0.00     0.018 C 
HETATM   20  C15 UNL     1      23.319   3.640  51.226  1.00  0.00     0.133 A 
ENDROOT
BRANCH  20  21
HETATM   21  O1  UNL     1      23.205   5.040  51.100  1.00  0.00    -0.369 OA
BRANCH  21  22
HETATM   22  C16 UNL     1      24.087   5.952  51.707  1.00  0.00     0.203 C 
BRANCH  22  23
HETATM   23  C17 UNL     1      24.658   6.836  50.589  1.00  0.00     0.169 C 
BRANCH  23  24
HETATM   24  O2  UNL     1      25.957   7.181  50.916  1.00  0.00    -0.392 OA
HETATM   25  H14 UNL     1      26.202   6.817  51.793  1.00  0.00     0.210 HD
ENDBRANCH  23  24
BRANCH  23  26
HETATM   26  C18 UNL     1      23.781   8.044  50.475  1.00  0.00     0.300 C 
BRANCH  26  27
HETATM   27  N4  UNL     1      22.469   7.739  51.019  1.00  0.00     0.080 N 
HETATM   28  H17 UNL     1      21.903   7.329  50.219  1.00  0.00     0.312 HD
HETATM   29  H18 UNL     1      22.020   8.667  51.289  1.00  0.00     0.312 HD
ENDBRANCH  26  27
ENDBRANCH  23  26
ENDBRANCH  22  23
ENDBRANCH  21  22
ENDBRANCH  20  21
TORSDOF 6
ENDMDL
MODEL 4
REMARK VINA RESULT:      -7.1      3.006      4.964
REMARK  6 active torsions:
REMARK  status: ('A' for Active; 'I' for Inactive)
REMARK    1  A    between atoms: C15_20  and  O1_21 
REMARK    2  A    between atoms: O1_21  and  C16_22 
REMARK    3  A    between atoms: C16_22  and  C17_23 
REMARK    4  A    between atoms: C17_23  and  O2_24 
REMARK    5  A    between atoms: C17_23  and  C18_25 
REMARK    6  A    between atoms: C18_25  and  N4_26 
ROOT
HETATM    1  C1  UNL     1      19.049  -1.699  53.542  1.00  0.00     0.070 C 
HETATM    2  C2  UNL     1      19.741  -0.439  53.242  1.00  0.00     0.033 C 
HETATM    3  C3  UNL     1      19.584   0.800  52.820  1.00  0.00     0.029 C 
HETATM    4  C4  UNL     1      19.897   2.163  52.424  1.00  0.00     0.042 C 
HETATM    5  C5  UNL     1      21.018   2.809  52.342  1.00  0.00     0.122 C 
HETATM    6  F1  UNL     1      20.952   4.097  51.951  1.00  0.00    -0.209 F 
HETATM    7  C6  UNL     1      22.492   2.931  52.235  1.00  0.00     0.140 A 
HETATM    8 CL1  UNL     1      23.793   4.034  52.220  1.00  0.00    -0.179 Cl
HETATM    9  C7  UNL     1      23.614   2.255  52.114  1.00  0.00     0.108 A 
HETATM   10  C8  UNL     1      24.754   1.284  51.970  1.00  0.00     0.006 C 
HETATM   11  C9  UNL     1      24.910   0.068  52.617  1.00  0.00     0.032 C 
HETATM   12  C10 UNL     1      23.793  -0.405  53.415  1.00  0.00     0.086 A 
HETATM   13  N1  UNL     1      23.849  -0.854  54.573  1.00  0.00    -0.238 NA
HETATM   14  C11 UNL     1      22.711  -1.206  55.342  1.00  0.00     0.256 A 
HETATM   15  N2  UNL     1      21.492  -1.104  54.937  1.00  0.00    -0.160 NA
HETATM   16  N3  UNL     1      21.052  -0.639  53.693  1.00  0.00    -0.235 N 
HETATM   17  C12 UNL     1      22.361  -0.484  53.448  1.00  0.00     0.087 A 
HETATM   18  C13 UNL     1      21.920  -0.410  52.136  1.00  0.00     0.033 C 
HETATM   19  C14 UNL     1      21.695   0.505  51.020  1.00  0.00     0.018 C 
HETATM   20  C15 UNL     1      22.646   1.443  51.253  1.00  0.00     0.133 A 
ENDROOT
BRANCH  20  21
HETATM   21  O1  UNL     1      22.705   1.814  49.895  1.00  0.00    -0.369 OA
BRANCH  21  22
HETATM   22  C16 UNL     1      21.763   1.407  48.933  1.00  0.00     0.203 C 
BRANCH  22  23
HETATM   23  C17 UNL     1      21.202   2.681  48.286  1.00  0.00     0.169 C 
BRANCH  23  24
HETATM   24  O2  UNL     1      21.847   3.776  48.833  1.00  0.00    -0.392 OA
HETATM   25  H14 UNL     1      21.924   3.683  49.806  1.00  0.00     0.210 HD
ENDBRANCH  23  24
BRANCH  23  26
HETATM   26  C18 UNL     1      19.731   2.718  48.559  1.00  0.00     0.300 C 
BRANCH  26  27
HETATM   27  N4  UNL     1      19.009   2.711  47.299  1.00  0.00     0.080 N 
HETATM   28  H17 UNL     1      18.194   2.041  47.426  1.00  0.00     0.312 HD
HETATM   29  H18 UNL     1      19.661   2.290  46.567  1.00  0.00     0.312 HD
ENDBRANCH  26  27
ENDBRANCH  23  26
ENDBRANCH  22  23
ENDBRANCH  21  22
ENDBRANCH  20  21
TORSDOF 6
ENDMDL
MODEL 5
REMARK VINA RESULT:      -6.9      8.482     10.007
REMARK  6 active torsions:
REMARK  status: ('A' for Active; 'I' for Inactive)
REMARK    1  A    between atoms: C15_20  and  O1_21 
REMARK    2  A    between atoms: O1_21  and  C16_22 
REMARK    3  A    between atoms: C16_22  and  C17_23 
REMARK    4  A    between atoms: C17_23  and  O2_24 
REMARK    5  A    between atoms: C17_23  and  C18_25 
REMARK    6  A    between atoms: C18_25  and  N4_26 
ROOT
HETATM    1  C1  UNL     1      35.720   6.404  48.927  1.00  0.00     0.070 C 
HETATM    2  C2  UNL     1      34.715   7.024  48.054  1.00  0.00     0.033 C 
HETATM    3  C3  UNL     1      34.466   8.042  47.254  1.00  0.00     0.029 C 
HETATM    4  C4  UNL     1      33.763   8.929  46.343  1.00  0.00     0.042 C 
HETATM    5  C5  UNL     1      32.557   8.907  45.866  1.00  0.00     0.122 C 
HETATM    6  F1  UNL     1      32.222   9.892  45.010  1.00  0.00    -0.209 F 
HETATM    7  C6  UNL     1      31.129   8.507  45.844  1.00  0.00     0.140 A 
HETATM    8 CL1  UNL     1      29.678   8.600  44.954  1.00  0.00    -0.179 Cl
HETATM    9  C7  UNL     1      30.196   7.841  46.490  1.00  0.00     0.108 A 
HETATM   10  C8  UNL     1      29.304   7.035  47.395  1.00  0.00     0.006 C 
HETATM   11  C9  UNL     1      29.616   5.855  48.052  1.00  0.00     0.032 C 
HETATM   12  C10 UNL     1      30.995   5.408  47.987  1.00  0.00     0.086 A 
HETATM   13  N1  UNL     1      31.389   4.259  47.721  1.00  0.00    -0.238 NA
HETATM   14  C11 UNL     1      32.754   3.903  47.572  1.00  0.00     0.256 A 
HETATM   15  N2  UNL     1      33.742   4.721  47.694  1.00  0.00    -0.160 NA
HETATM   16  N3  UNL     1      33.676   6.087  47.989  1.00  0.00    -0.235 N 
HETATM   17  C12 UNL     1      32.353   5.872  48.015  1.00  0.00     0.087 A 
HETATM   18  C13 UNL     1      32.352   7.091  48.673  1.00  0.00     0.033 C 
HETATM   19  C14 UNL     1      32.027   8.508  48.527  1.00  0.00     0.018 C 
HETATM   20  C15 UNL     1      31.012   8.453  47.630  1.00  0.00     0.133 A 
ENDROOT
BRANCH  20  21
HETATM   21  O1  UNL     1      30.468   9.676  48.074  1.00  0.00    -0.369 OA
BRANCH  21  22
HETATM   22  C16 UNL     1      29.791   9.830  49.297  1.00  0.00     0.203 C 
BRANCH  22  23
HETATM   23  C17 UNL     1      28.417  10.434  48.976  1.00  0.00     0.169 C 
BRANCH  23  24
HETATM   24  O2  UNL     1      28.351  11.703  49.522  1.00  0.00    -0.392 OA
HETATM   25  H14 UNL     1      28.235  12.378  48.819  1.00  0.00     0.210 HD
ENDBRANCH  23  24
BRANCH  23  26
HETATM   26  C18 UNL     1      27.377   9.530  49.561  1.00  0.00     0.300 C 
BRANCH  26  27
HETATM   27  N4  UNL     1      27.690   9.280  50.958  1.00  0.00     0.080 N 
HETATM   28  H17 UNL     1      27.710  10.230  51.433  1.00  0.00     0.312 HD
HETATM   29  H18 UNL     1      28.679   8.883  50.990  1.00  0.00     0.312 HD
ENDBRANCH  26  27
ENDBRANCH  23  26
ENDBRANCH  22  23
ENDBRANCH  21  22
ENDBRANCH  20  21
TORSDOF 6
ENDMDL
MODEL 6
REMARK VINA RESULT:      -6.8      9.682     11.494
REMARK  6 active torsions:
REMARK  status: ('A' for Active; 'I' for Inactive)
REMARK    1  A    between atoms: C15_20  and  O1_21 
REMARK    2  A    between atoms: O1_21  and  C16_22 
REMARK    3  A    between atoms: C16_22  and  C17_23 
REMARK    4  A    between atoms: C17_23  and  O2_24 
REMARK    5  A    between atoms: C17_23  and  C18_25 
REMARK    6  A    between atoms: C18_25  and  N4_26 
ROOT
HETATM    1  C1  UNL     1      34.425   2.910  47.566  1.00  0.00     0.070 C 
HETATM    2  C2  UNL     1      34.522   4.375  47.587  1.00  0.00     0.033 C 
HETATM    3  C3  UNL     1      34.985   5.413  48.255  1.00  0.00     0.029 C 
HETATM    4  C4  UNL     1      35.278   6.789  48.618  1.00  0.00     0.042 C 
HETATM    5  C5  UNL     1      34.963   7.920  48.067  1.00  0.00     0.122 C 
HETATM    6  F1  UNL     1      35.423   9.037  48.663  1.00  0.00    -0.209 F 
HETATM    7  C6  UNL     1      34.165   8.808  47.188  1.00  0.00     0.140 A 
HETATM    8 CL1  UNL     1      34.038  10.391  46.567  1.00  0.00    -0.179 Cl
HETATM    9  C7  UNL     1      33.124   8.862  46.385  1.00  0.00     0.108 A 
HETATM   10  C8  UNL     1      31.903   8.688  45.524  1.00  0.00     0.006 C 
HETATM   11  C9  UNL     1      31.600   7.615  44.701  1.00  0.00     0.032 C 
HETATM   12  C10 UNL     1      32.475   6.458  44.773  1.00  0.00     0.086 A 
HETATM   13  N1  UNL     1      32.966   5.842  43.812  1.00  0.00    -0.238 NA
HETATM   14  C11 UNL     1      33.897   4.780  43.945  1.00  0.00     0.256 A 
HETATM   15  N2  UNL     1      34.341   4.330  45.068  1.00  0.00    -0.160 NA
HETATM   16  N3  UNL     1      34.007   4.781  46.349  1.00  0.00    -0.235 N 
HETATM   17  C12 UNL     1      33.224   5.644  45.686  1.00  0.00     0.087 A 
HETATM   18  C13 UNL     1      32.640   5.790  46.934  1.00  0.00     0.033 C 
HETATM   19  C14 UNL     1      32.512   6.692  48.076  1.00  0.00     0.018 C 
HETATM   20  C15 UNL     1      32.650   7.899  47.474  1.00  0.00     0.133 A 
ENDROOT
BRANCH  20  21
HETATM   21  O1  UNL     1      31.923   8.559  48.486  1.00  0.00    -0.369 OA
BRANCH  21  22
HETATM   22  C16 UNL     1      30.662   8.136  48.943  1.00  0.00     0.203 C 
BRANCH  22  23
HETATM   23  C17 UNL     1      29.845   9.400  49.241  1.00  0.00     0.169 C 
BRANCH  23  24
HETATM   24  O2  UNL     1      30.339   9.987  50.391  1.00  0.00    -0.392 OA
HETATM   25  H14 UNL     1      30.200   9.402  51.167  1.00  0.00     0.210 HD
ENDBRANCH  23  24
BRANCH  23  26
HETATM   26  C18 UNL     1      28.416   8.987  49.405  1.00  0.00     0.300 C 
BRANCH  26  27
HETATM   27  N4  UNL     1      27.939   9.417  50.708  1.00  0.00     0.080 N 
HETATM   28  H17 UNL     1      27.344   8.621  51.084  1.00  0.00     0.312 HD
HETATM   29  H18 UNL     1      27.295  10.251  50.545  1.00  0.00     0.312 HD
ENDBRANCH  26  27
ENDBRANCH  23  26
ENDBRANCH  22  23
ENDBRANCH  21  22
ENDBRANCH  20  21
TORSDOF 6
ENDMDL
MODEL 7
REMARK VINA RESULT:      -6.8     10.098     12.230
REMARK  6 active torsions:
REMARK  status: ('A' for Active; 'I' for Inactive)
REMARK    1  A    between atoms: C15_20  and  O1_21 
REMARK    2  A    between atoms: O1_21  and  C16_22 
REMARK    3  A    between atoms: C16_22  and  C17_23 
REMARK    4  A    between atoms: C17_23  and  O2_24 
REMARK    5  A    between atoms: C17_23  and  C18_25 
REMARK    6  A    between atoms: C18_25  and  N4_26 
ROOT
HETATM    1  C1  UNL     1      33.762   6.174  41.894  1.00  0.00     0.070 C 
HETATM    2  C2  UNL     1      34.122   5.757  43.255  1.00  0.00     0.033 C 
HETATM    3  C3  UNL     1      34.450   4.731  44.015  1.00  0.00     0.029 C 
HETATM    4  C4  UNL     1      34.822   3.958  45.187  1.00  0.00     0.042 C 
HETATM    5  C5  UNL     1      34.992   4.289  46.430  1.00  0.00     0.122 C 
HETATM    6  F1  UNL     1      35.364   3.308  47.276  1.00  0.00    -0.209 F 
HETATM    7  C6  UNL     1      34.824   5.152  47.623  1.00  0.00     0.140 A 
HETATM    8 CL1  UNL     1      35.276   5.365  49.253  1.00  0.00    -0.179 Cl
HETATM    9  C7  UNL     1      34.248   6.243  48.081  1.00  0.00     0.108 A 
HETATM   10  C8  UNL     1      33.493   7.510  48.379  1.00  0.00     0.006 C 
HETATM   11  C9  UNL     1      33.364   8.625  47.565  1.00  0.00     0.032 C 
HETATM   12  C10 UNL     1      33.888   8.521  46.215  1.00  0.00     0.086 A 
HETATM   13  N1  UNL     1      34.609   9.352  45.635  1.00  0.00    -0.238 NA
HETATM   14  C11 UNL     1      35.175   9.150  44.351  1.00  0.00     0.256 A 
HETATM   15  N2  UNL     1      35.011   8.091  43.635  1.00  0.00    -0.160 NA
HETATM   16  N3  UNL     1      34.263   6.956  43.966  1.00  0.00    -0.235 N 
HETATM   17  C12 UNL     1      34.013   7.627  45.100  1.00  0.00     0.087 A 
HETATM   18  C13 UNL     1      32.998   6.690  45.215  1.00  0.00     0.033 C 
HETATM   19  C14 UNL     1      32.578   5.493  45.938  1.00  0.00     0.018 C 
HETATM   20  C15 UNL     1      33.185   5.682  47.135  1.00  0.00     0.133 A 
ENDROOT
BRANCH  20  21
HETATM   21  O1  UNL     1      32.242   4.883  47.813  1.00  0.00    -0.369 OA
BRANCH  21  22
HETATM   22  C16 UNL     1      30.870   4.866  47.506  1.00  0.00     0.203 C 
BRANCH  22  23
HETATM   23  C17 UNL     1      30.184   5.858  48.455  1.00  0.00     0.169 C 
BRANCH  23  24
HETATM   24  O2  UNL     1      30.600   5.595  49.747  1.00  0.00    -0.392 OA
HETATM   25  H14 UNL     1      31.511   5.931  49.894  1.00  0.00     0.210 HD
ENDBRANCH  23  24
BRANCH  23  26
HETATM   26  C18 UNL     1      28.706   5.680  48.307  1.00  0.00     0.300 C 
BRANCH  26  27
HETATM   27  N4  UNL     1      28.020   6.728  49.042  1.00  0.00     0.080 N 
HETATM   28  H17 UNL     1      27.241   6.249  49.584  1.00  0.00     0.312 HD
HETATM   29  H18 UNL     1      27.564   7.368  48.321  1.00  0.00     0.312 HD
ENDBRANCH  26  27
ENDBRANCH  23  26
ENDBRANCH  22  23
ENDBRANCH  21  22
ENDBRANCH  20  21
TORSDOF 6
ENDMDL
MODEL 8
REMARK VINA RESULT:      -6.5      2.828      5.426
REMARK  6 active torsions:
REMARK  status: ('A' for Active; 'I' for Inactive)
REMARK    1  A    between atoms: C15_20  and  O1_21 
REMARK    2  A    between atoms: O1_21  and  C16_22 
REMARK    3  A    between atoms: C16_22  and  C17_23 
REMARK    4  A    between atoms: C17_23  and  O2_24 
REMARK    5  A    between atoms: C17_23  and  C18_25 
REMARK    6  A    between atoms: C18_25  and  N4_26 
ROOT
HETATM    1  C1  UNL     1      25.514   6.496  48.211  1.00  0.00     0.070 C 
HETATM    2  C2  UNL     1      24.677   5.911  49.266  1.00  0.00     0.033 C 
HETATM    3  C3  UNL     1      24.407   5.925  50.556  1.00  0.00     0.029 C 
HETATM    4  C4  UNL     1      23.793   5.595  51.831  1.00  0.00     0.042 C 
HETATM    5  C5  UNL     1      22.885   4.730  52.161  1.00  0.00     0.122 C 
HETATM    6  F1  UNL     1      22.519   4.695  53.458  1.00  0.00    -0.209 F 
HETATM    7  C6  UNL     1      22.063   3.510  51.975  1.00  0.00     0.140 A 
HETATM    8 CL1  UNL     1      20.779   2.593  52.621  1.00  0.00    -0.179 Cl
HETATM    9  C7  UNL     1      21.856   2.469  51.197  1.00  0.00     0.108 A 
HETATM   10  C8  UNL     1      21.804   1.368  50.173  1.00  0.00     0.006 C 
HETATM   11  C9  UNL     1      21.917   1.492  48.797  1.00  0.00     0.032 C 
HETATM   12  C10 UNL     1      22.268   2.801  48.278  1.00  0.00     0.086 A 
HETATM   13  N1  UNL     1      21.713   3.397  47.338  1.00  0.00    -0.238 NA
HETATM   14  C11 UNL     1      22.033   4.720  46.940  1.00  0.00     0.256 A 
HETATM   15  N2  UNL     1      22.929   5.458  47.499  1.00  0.00    -0.160 NA
HETATM   16  N3  UNL     1      23.749   5.117  48.581  1.00  0.00    -0.235 N 
HETATM   17  C12 UNL     1      23.092   3.949  48.525  1.00  0.00     0.087 A 
HETATM   18  C13 UNL     1      24.155   3.524  49.306  1.00  0.00     0.033 C 
HETATM   19  C14 UNL     1      24.541   3.140  50.662  1.00  0.00     0.018 C 
HETATM   20  C15 UNL     1      23.375   2.631  51.132  1.00  0.00     0.133 A 
ENDROOT
BRANCH  20  21
HETATM   21  O1  UNL     1      24.036   1.815  52.073  1.00  0.00    -0.369 OA
BRANCH  21  22
HETATM   22  C16 UNL     1      25.380   1.417  51.953  1.00  0.00     0.203 C 
BRANCH  22  23
HETATM   23  C17 UNL     1      25.648   0.403  53.073  1.00  0.00     0.169 C 
BRANCH  23  24
HETATM   24  O2  UNL     1      24.444   0.065  53.664  1.00  0.00    -0.392 OA
HETATM   25  H14 UNL     1      24.394  -0.902  53.822  1.00  0.00     0.210 HD
ENDBRANCH  23  24
BRANCH  23  26
HETATM   26  C18 UNL     1      26.580   1.045  54.052  1.00  0.00     0.300 C 
BRANCH  26  27
HETATM   27  N4  UNL     1      26.579   2.483  53.845  1.00  0.00     0.080 N 
HETATM   28  H17 UNL     1      27.453   2.702  53.282  1.00  0.00     0.312 HD
HETATM   29  H18 UNL     1      26.691   2.936  54.803  1.00  0.00     0.312 HD
ENDBRANCH  26  27
ENDBRANCH  23  26
ENDBRANCH  22  23
ENDBRANCH  21  22
ENDBRANCH  20  21
TORSDOF 6
ENDMDL
MODEL 9
REMARK VINA RESULT:      -6.4      8.370     10.126
REMARK  6 active torsions:
REMARK  status: ('A' for Active; 'I' for Inactive)
REMARK    1  A    between atoms: C15_20  and  O1_21 
REMARK    2  A    between atoms: O1_21  and  C16_22 
REMARK    3  A    between atoms: C16_22  and  C17_23 
REMARK    4  A    between atoms: C17_23  and  O2_24 
REMARK    5  A    between atoms: C17_23  and  C18_25 
REMARK    6  A    between atoms: C18_25  and  N4_26 
ROOT
HETATM    1  C1  UNL     1      33.922   9.057  44.164  1.00  0.00     0.070 C 
HETATM    2  C2  UNL     1      32.665   8.595  44.769  1.00  0.00     0.033 C 
HETATM    3  C3  UNL     1      31.359   8.771  44.802  1.00  0.00     0.029 C 
HETATM    4  C4  UNL     1      29.963   8.604  45.166  1.00  0.00     0.042 C 
HETATM    5  C5  UNL     1      29.374   7.824  46.019  1.00  0.00     0.122 C 
HETATM    6  F1  UNL     1      28.031   7.909  46.097  1.00  0.00    -0.209 F 
HETATM    7  C6  UNL     1      29.311   6.938  47.207  1.00  0.00     0.140 A 
HETATM    8 CL1  UNL     1      28.301   5.907  48.113  1.00  0.00    -0.179 Cl
HETATM    9  C7  UNL     1      30.006   6.442  48.208  1.00  0.00     0.108 A 
HETATM   10  C8  UNL     1      30.986   6.008  49.264  1.00  0.00     0.006 C 
HETATM   11  C9  UNL     1      32.317   5.662  49.086  1.00  0.00     0.032 C 
HETATM   12  C10 UNL     1      32.884   5.872  47.766  1.00  0.00     0.086 A 
HETATM   13  N1  UNL     1      33.566   5.060  47.117  1.00  0.00    -0.238 NA
HETATM   14  C11 UNL     1      34.008   5.282  45.788  1.00  0.00     0.256 A 
HETATM   15  N2  UNL     1      33.759   6.343  45.100  1.00  0.00    -0.160 NA
HETATM   16  N3  UNL     1      33.024   7.461  45.508  1.00  0.00    -0.235 N 
HETATM   17  C12 UNL     1      32.892   6.777  46.654  1.00  0.00     0.087 A 
HETATM   18  C13 UNL     1      32.524   8.022  47.140  1.00  0.00     0.033 C 
HETATM   19  C14 UNL     1      31.387   8.821  47.591  1.00  0.00     0.018 C 
HETATM   20  C15 UNL     1      30.570   7.858  48.086  1.00  0.00     0.133 A 
ENDROOT
BRANCH  20  21
HETATM   21  O1  UNL     1      29.929   8.761  48.959  1.00  0.00    -0.369 OA
BRANCH  21  22
HETATM   22  C16 UNL     1      29.867  10.149  48.739  1.00  0.00     0.203 C 
BRANCH  22  23
HETATM   23  C17 UNL     1      28.388  10.549  48.806  1.00  0.00     0.169 C 
BRANCH  23  24
HETATM   24  O2  UNL     1      28.269  11.681  49.592  1.00  0.00    -0.392 OA
HETATM   25  H14 UNL     1      28.735  12.440  49.181  1.00  0.00     0.210 HD
ENDBRANCH  23  24
BRANCH  23  26
HETATM   26  C18 UNL     1      27.632   9.396  49.387  1.00  0.00     0.300 C 
BRANCH  26  27
HETATM   27  N4  UNL     1      27.824   9.372  50.827  1.00  0.00     0.080 N 
HETATM   28  H17 UNL     1      28.038   8.363  51.081  1.00  0.00     0.312 HD
HETATM   29  H18 UNL     1      26.888   9.624  51.271  1.00  0.00     0.312 HD
ENDBRANCH  26  27
ENDBRANCH  23  26
ENDBRANCH  22  23
ENDBRANCH  21  22
ENDBRANCH  20  21
TORSDOF 6
ENDMDL
