MODEL 1
REMARK VINA RESULT:      -9.3      0.000      0.000
REMARK  3 active torsions:
REMARK  status: ('A' for Active; 'I' for Inactive)
REMARK    1  A    between atoms: C3_3  and  C4_4 
REMARK    2  A    between atoms: C4_4  and  N1_5 
REMARK    3  A    between atoms: N1_5  and  C5_6 
ROOT
HETATM    1  C1  UNL     1      24.626   2.357  51.199  1.00  0.00     0.021 C 
HETATM    2  C2  UNL     1      24.667   1.883  52.646  1.00  0.00     0.062 C 
HETATM    3  C3  UNL     1      23.562   0.934  52.938  1.00  0.00    -0.042 C 
HETATM    4  C11 UNL     1      23.504  -0.343  53.306  1.00  0.00    -0.021 C 
HETATM    5  C12 UNL     1      24.483  -0.674  54.028  1.00  0.00     0.014 C 
HETATM    6  C13 UNL     1      25.803  -0.574  53.506  1.00  0.00     0.029 C 
HETATM    7  C14 UNL     1      27.099  -0.817  53.403  1.00  0.00     0.051 C 
HETATM    8  N2  UNL     1      28.367  -1.220  53.492  1.00  0.00    -0.245 NA
HETATM    9  C15 UNL     1      29.502  -0.787  53.841  1.00  0.00     0.235 C 
HETATM   10  N3  UNL     1      29.314   0.620  54.292  1.00  0.00    -0.228 NA
HETATM   11  C16 UNL     1      28.098   1.086  54.241  1.00  0.00     0.119 C 
HETATM   12  N4  UNL     1      26.783   1.511  54.156  1.00  0.00    -0.347 N 
HETATM   13  C17 UNL     1      25.960   1.668  53.139  1.00  0.00     0.016 C 
HETATM   14  C18 UNL     1      26.837   1.317  52.249  1.00  0.00     0.017 C 
HETATM   15  C19 UNL     1      27.769   0.379  52.854  1.00  0.00     0.132 C 
HETATM   16  H15 UNL     1      26.523   1.756  55.198  1.00  0.00     0.167 HD
ENDROOT
BRANCH   3  17
HETATM   17  C4  UNL     1      22.190   1.479  52.790  1.00  0.00     0.155 C 
BRANCH  17  18
HETATM   18  N1  UNL     1      21.345   0.716  53.723  1.00  0.00    -0.386 N 
HETATM   19  H7  UNL     1      21.444   0.431  54.743  1.00  0.00     0.160 HD
BRANCH  18  20
HETATM   20  C5  UNL     1      20.130   0.256  53.135  1.00  0.00     0.029 A 
HETATM   21  C6  UNL     1      19.504   0.954  52.097  1.00  0.00     0.029 A 
HETATM   22  C7  UNL     1      18.326   0.555  51.490  1.00  0.00     0.004 A 
HETATM   23  C8  UNL     1      17.721  -0.586  51.910  1.00  0.00     0.019 A 
HETATM   24  C9  UNL     1      18.284  -1.321  52.926  1.00  0.00     0.013 A 
HETATM   25 BR1  UNL     1      17.473  -2.947  53.567  1.00  0.00    -0.051 Br
HETATM   26  C10 UNL     1      19.458  -0.903  53.516  1.00  0.00     0.048 A 
ENDBRANCH  18  20
ENDBRANCH  17  18
ENDBRANCH   3  17
TORSDOF 3
ENDMDL
MODEL 2
REMARK VINA RESULT:      -9.2      1.281      2.303
REMARK  3 active torsions:
REMARK  status: ('A' for Active; 'I' for Inactive)
REMARK    1  A    between atoms: C3_3  and  C4_4 
REMARK    2  A    between atoms: C4_4  and  N1_5 
REMARK    3  A    between atoms: N1_5  and  C5_6 
ROOT
HETATM    1  C1  UNL     1      22.589  -0.214  54.209  1.00  0.00     0.021 C 
HETATM    2  C2  UNL     1      23.503   0.312  53.111  1.00  0.00     0.062 C 
HETATM    3  C3  UNL     1      23.238   1.746  52.824  1.00  0.00    -0.042 C 
HETATM    4  C11 UNL     1      23.954   2.862  52.922  1.00  0.00    -0.021 C 
HETATM    5  C12 UNL     1      25.181   2.660  52.715  1.00  0.00     0.014 C 
HETATM    6  C13 UNL     1      25.896   1.772  53.568  1.00  0.00     0.029 C 
HETATM    7  C14 UNL     1      26.944   1.224  54.159  1.00  0.00     0.051 C 
HETATM    8  N2  UNL     1      28.133   0.846  54.629  1.00  0.00    -0.245 NA
HETATM    9  C15 UNL     1      28.954  -0.111  54.538  1.00  0.00     0.235 C 
HETATM   10  N3  UNL     1      28.367  -1.103  53.595  1.00  0.00    -0.228 NA
HETATM   11  C16 UNL     1      27.206  -0.801  53.086  1.00  0.00     0.119 C 
HETATM   12  N4  UNL     1      25.972  -0.412  52.591  1.00  0.00    -0.347 N 
HETATM   13  C17 UNL     1      24.809  -0.189  53.167  1.00  0.00     0.016 C 
HETATM   14  C18 UNL     1      25.229  -0.500  54.355  1.00  0.00     0.017 C 
HETATM   15  C19 UNL     1      26.647  -0.193  54.448  1.00  0.00     0.132 C 
HETATM   16  H15 UNL     1      26.140  -0.348  51.504  1.00  0.00     0.167 HD
ENDROOT
BRANCH   3  17
HETATM   17  C4  UNL     1      21.877   2.061  52.323  1.00  0.00     0.155 C 
BRANCH  17  18
HETATM   18  N1  UNL     1      21.624   1.127  51.216  1.00  0.00    -0.386 N 
HETATM   19  H7  UNL     1      22.237   0.692  50.463  1.00  0.00     0.160 HD
BRANCH  18  20
HETATM   20  C5  UNL     1      20.261   0.714  51.128  1.00  0.00     0.029 A 
HETATM   21  C6  UNL     1      19.428   1.139  50.089  1.00  0.00     0.029 A 
HETATM   22  C7  UNL     1      18.101   0.771  49.954  1.00  0.00     0.004 A 
HETATM   23  C8  UNL     1      17.549  -0.057  50.878  1.00  0.00     0.019 A 
HETATM   24  C9  UNL     1      18.313  -0.513  51.926  1.00  0.00     0.013 A 
HETATM   25 BR1  UNL     1      17.587  -1.690  53.268  1.00  0.00    -0.051 Br
HETATM   26  C10 UNL     1      19.633  -0.132  52.039  1.00  0.00     0.048 A 
ENDBRANCH  18  20
ENDBRANCH  17  18
ENDBRANCH   3  17
TORSDOF 3
ENDMDL
MODEL 3
REMARK VINA RESULT:      -9.1      1.465      2.679
REMARK  3 active torsions:
REMARK  status: ('A' for Active; 'I' for Inactive)
REMARK    1  A    between atoms: C3_3  and  C4_4 
REMARK    2  A    between atoms: C4_4  and  N1_5 
REMARK    3  A    between atoms: N1_5  and  C5_6 
ROOT
HETATM    1  C1  UNL     1      23.787  -1.203  55.399  1.00  0.00     0.021 C 
HETATM    2  C2  UNL     1      24.242  -0.872  53.984  1.00  0.00     0.062 C 
HETATM    3  C3  UNL     1      23.227  -0.060  53.264  1.00  0.00    -0.042 C 
HETATM    4  C11 UNL     1      23.213   1.163  52.743  1.00  0.00    -0.021 C 
HETATM    5  C12 UNL     1      24.345   1.509  52.310  1.00  0.00     0.014 C 
HETATM    6  C13 UNL     1      25.446   1.581  53.210  1.00  0.00     0.029 C 
HETATM    7  C14 UNL     1      26.632   1.948  53.663  1.00  0.00     0.051 C 
HETATM    8  N2  UNL     1      27.842   2.454  53.907  1.00  0.00    -0.245 NA
HETATM    9  C15 UNL     1      29.052   2.093  53.967  1.00  0.00     0.235 C 
HETATM   10  N3  UNL     1      29.090   0.638  53.654  1.00  0.00    -0.228 NA
HETATM   11  C16 UNL     1      27.946   0.070  53.397  1.00  0.00     0.119 C 
HETATM   12  N4  UNL     1      26.693  -0.461  53.138  1.00  0.00    -0.347 N 
HETATM   13  C17 UNL     1      25.609  -0.591  53.875  1.00  0.00     0.016 C 
HETATM   14  C18 UNL     1      26.151  -0.077  54.936  1.00  0.00     0.017 C 
HETATM   15  C19 UNL     1      27.169   0.879  54.528  1.00  0.00     0.132 C 
HETATM   16  H15 UNL     1      26.778  -0.830  52.104  1.00  0.00     0.167 HD
ENDROOT
BRANCH   3  17
HETATM   17  C4  UNL     1      21.908  -0.711  53.061  1.00  0.00     0.155 C 
BRANCH  17  18
HETATM   18  N1  UNL     1      21.014   0.335  52.540  1.00  0.00    -0.386 N 
HETATM   19  H7  UNL     1      21.155   1.348  52.247  1.00  0.00     0.160 HD
BRANCH  18  20
HETATM   20  C5  UNL     1      19.663  -0.100  52.395  1.00  0.00     0.029 A 
HETATM   21  C6  UNL     1      19.045  -0.912  53.351  1.00  0.00     0.029 A 
HETATM   22  C7  UNL     1      17.740  -1.365  53.264  1.00  0.00     0.004 A 
HETATM   23  C8  UNL     1      16.990  -1.008  52.189  1.00  0.00     0.019 A 
HETATM   24  C9  UNL     1      17.537  -0.211  51.212  1.00  0.00     0.013 A 
HETATM   25 BR1  UNL     1      16.524   0.327  49.663  1.00  0.00    -0.051 Br
HETATM   26  C10 UNL     1      18.840   0.226  51.321  1.00  0.00     0.048 A 
ENDBRANCH  18  20
ENDBRANCH  17  18
ENDBRANCH   3  17
TORSDOF 3
ENDMDL
MODEL 4
REMARK VINA RESULT:      -9.0      1.854      2.162
REMARK  3 active torsions:
REMARK  status: ('A' for Active; 'I' for Inactive)
REMARK    1  A    between atoms: C3_3  and  C4_4 
REMARK    2  A    between atoms: C4_4  and  N1_5 
REMARK    3  A    between atoms: N1_5  and  C5_6 
ROOT
HETATM    1  C1  UNL     1      24.249   2.118  51.429  1.00  0.00     0.021 C 
HETATM    2  C2  UNL     1      24.456   1.686  52.874  1.00  0.00     0.062 C 
HETATM    3  C3  UNL     1      23.433   0.693  53.296  1.00  0.00    -0.042 C 
HETATM    4  C11 UNL     1      23.477  -0.574  53.696  1.00  0.00    -0.021 C 
HETATM    5  C12 UNL     1      24.536  -0.839  54.324  1.00  0.00     0.014 C 
HETATM    6  C13 UNL     1      25.793  -0.691  53.670  1.00  0.00     0.029 C 
HETATM    7  C14 UNL     1      27.082  -0.874  53.445  1.00  0.00     0.051 C 
HETATM    8  N2  UNL     1      28.371  -1.214  53.416  1.00  0.00    -0.245 NA
HETATM    9  C15 UNL     1      29.512  -0.718  53.640  1.00  0.00     0.235 C 
HETATM   10  N3  UNL     1      29.300   0.689  54.077  1.00  0.00    -0.228 NA
HETATM   11  C16 UNL     1      28.063   1.096  54.137  1.00  0.00     0.119 C 
HETATM   12  N4  UNL     1      26.726   1.455  54.174  1.00  0.00    -0.347 N 
HETATM   13  C17 UNL     1      25.800   1.546  53.241  1.00  0.00     0.016 C 
HETATM   14  C18 UNL     1      26.602   1.213  52.276  1.00  0.00     0.017 C 
HETATM   15  C19 UNL     1      27.635   0.337  52.805  1.00  0.00     0.132 C 
HETATM   16  H15 UNL     1      26.558   1.715  55.230  1.00  0.00     0.167 HD
ENDROOT
BRANCH   3  17
HETATM   17  C4  UNL     1      22.028   1.169  53.274  1.00  0.00     0.155 C 
BRANCH  17  18
HETATM   18  N1  UNL     1      21.216   0.021  52.840  1.00  0.00    -0.386 N 
HETATM   19  H7  UNL     1      21.179  -1.005  53.120  1.00  0.00     0.160 HD
BRANCH  18  20
HETATM   20  C5  UNL     1      20.274   0.351  51.821  1.00  0.00     0.029 A 
HETATM   21  C6  UNL     1      18.952  -0.102  51.865  1.00  0.00     0.029 A 
HETATM   22  C7  UNL     1      17.997   0.186  50.906  1.00  0.00     0.004 A 
HETATM   23  C8  UNL     1      18.342   0.959  49.843  1.00  0.00     0.019 A 
HETATM   24  C9  UNL     1      19.626   1.438  49.739  1.00  0.00     0.013 A 
HETATM   25 BR1  UNL     1      20.176   2.538  48.255  1.00  0.00    -0.051 Br
HETATM   26  C10 UNL     1      20.560   1.136  50.707  1.00  0.00     0.048 A 
ENDBRANCH  18  20
ENDBRANCH  17  18
ENDBRANCH   3  17
TORSDOF 3
ENDMDL
MODEL 5
REMARK VINA RESULT:      -9.0      2.847      3.986
REMARK  3 active torsions:
REMARK  status: ('A' for Active; 'I' for Inactive)
REMARK    1  A    between atoms: C3_3  and  C4_4 
REMARK    2  A    between atoms: C4_4  and  N1_5 
REMARK    3  A    between atoms: N1_5  and  C5_6 
ROOT
HETATM    1  C1  UNL     1      22.355  -0.682  54.269  1.00  0.00     0.021 C 
HETATM    2  C2  UNL     1      23.234  -0.150  53.147  1.00  0.00     0.062 C 
HETATM    3  C3  UNL     1      22.809   1.209  52.720  1.00  0.00    -0.042 C 
HETATM    4  C11 UNL     1      23.383   2.408  52.727  1.00  0.00    -0.021 C 
HETATM    5  C12 UNL     1      24.631   2.340  52.567  1.00  0.00     0.014 C 
HETATM    6  C13 UNL     1      25.420   1.627  53.514  1.00  0.00     0.029 C 
HETATM    7  C14 UNL     1      26.506   1.268  54.177  1.00  0.00     0.051 C 
HETATM    8  N2  UNL     1      27.715   1.082  54.706  1.00  0.00    -0.245 NA
HETATM    9  C15 UNL     1      28.647   0.228  54.723  1.00  0.00     0.235 C 
HETATM   10  N3  UNL     1      28.215  -0.910  53.865  1.00  0.00    -0.228 NA
HETATM   11  C16 UNL     1      27.043  -0.800  53.306  1.00  0.00     0.119 C 
HETATM   12  N4  UNL     1      25.788  -0.611  52.750  1.00  0.00    -0.347 N 
HETATM   13  C17 UNL     1      24.589  -0.481  53.278  1.00  0.00     0.016 C 
HETATM   14  C18 UNL     1      25.003  -0.628  54.499  1.00  0.00     0.017 C 
HETATM   15  C19 UNL     1      26.371  -0.143  54.592  1.00  0.00     0.132 C 
HETATM   16  H15 UNL     1      25.982  -0.626  51.666  1.00  0.00     0.167 HD
ENDROOT
BRANCH   3  17
HETATM   17  C4  UNL     1      21.437   1.308  52.163  1.00  0.00     0.155 C 
BRANCH  17  18
HETATM   18  N1  UNL     1      21.463   0.581  50.884  1.00  0.00    -0.386 N 
HETATM   19  H7  UNL     1      21.534  -0.448  50.622  1.00  0.00     0.160 HD
BRANCH  18  20
HETATM   20  C5  UNL     1      21.376   1.438  49.748  1.00  0.00     0.029 A 
HETATM   21  C6  UNL     1      22.517   1.898  49.083  1.00  0.00     0.029 A 
HETATM   22  C7  UNL     1      22.493   2.731  47.978  1.00  0.00     0.004 A 
HETATM   23  C8  UNL     1      21.295   3.140  47.487  1.00  0.00     0.019 A 
HETATM   24  C9  UNL     1      20.133   2.723  48.093  1.00  0.00     0.013 A 
HETATM   25 BR1  UNL     1      18.403   3.271  47.443  1.00  0.00    -0.051 Br
HETATM   26  C10 UNL     1      20.183   1.895  49.193  1.00  0.00     0.048 A 
ENDBRANCH  18  20
ENDBRANCH  17  18
ENDBRANCH   3  17
TORSDOF 3
ENDMDL
MODEL 6
REMARK VINA RESULT:      -8.9      5.511      8.158
REMARK  3 active torsions:
REMARK  status: ('A' for Active; 'I' for Inactive)
REMARK    1  A    between atoms: C3_3  and  C4_4 
REMARK    2  A    between atoms: C4_4  and  N1_5 
REMARK    3  A    between atoms: N1_5  and  C5_6 
ROOT
HETATM    1  C1  UNL     1      24.204   5.035  49.507  1.00  0.00     0.021 C 
HETATM    2  C2  UNL     1      25.614   5.429  49.925  1.00  0.00     0.062 C 
HETATM    3  C3  UNL     1      26.627   4.495  49.369  1.00  0.00    -0.042 C 
HETATM    4  C11 UNL     1      27.647   4.623  48.524  1.00  0.00    -0.021 C 
HETATM    5  C12 UNL     1      28.187   5.758  48.599  1.00  0.00     0.014 C 
HETATM    6  C13 UNL     1      27.416   6.920  48.313  1.00  0.00     0.029 C 
HETATM    7  C14 UNL     1      27.177   8.178  47.981  1.00  0.00     0.051 C 
HETATM    8  N2  UNL     1      27.187   9.462  47.625  1.00  0.00    -0.245 NA
HETATM    9  C15 UNL     1      26.967  10.608  48.113  1.00  0.00     0.235 C 
HETATM   10  N3  UNL     1      26.584  10.410  49.538  1.00  0.00    -0.228 NA
HETATM   11  C16 UNL     1      26.558   9.179  49.965  1.00  0.00     0.119 C 
HETATM   12  N4  UNL     1      26.550   7.847  50.343  1.00  0.00    -0.347 N 
HETATM   13  C17 UNL     1      25.836   6.812  49.950  1.00  0.00     0.016 C 
HETATM   14  C18 UNL     1      25.123   7.499  49.111  1.00  0.00     0.017 C 
HETATM   15  C19 UNL     1      25.919   8.613  48.621  1.00  0.00     0.132 C 
HETATM   16  H15 UNL     1      27.304   7.802  51.145  1.00  0.00     0.167 HD
ENDROOT
BRANCH   3  17
HETATM   17  C4  UNL     1      26.514   3.084  49.815  1.00  0.00     0.155 C 
BRANCH  17  18
HETATM   18  N1  UNL     1      26.772   3.094  51.264  1.00  0.00    -0.386 N 
HETATM   19  H7  UNL     1      27.246   3.779  51.925  1.00  0.00     0.160 HD
BRANCH  18  20
HETATM   20  C5  UNL     1      26.282   1.931  51.930  1.00  0.00     0.029 A 
HETATM   21  C6  UNL     1      27.145   0.961  52.449  1.00  0.00     0.029 A 
HETATM   22  C7  UNL     1      26.726  -0.185  53.103  1.00  0.00     0.004 A 
HETATM   23  C8  UNL     1      25.395  -0.402  53.265  1.00  0.00     0.019 A 
HETATM   24  C9  UNL     1      24.492   0.513  52.779  1.00  0.00     0.013 A 
HETATM   25 BR1  UNL     1      22.592   0.259  52.977  1.00  0.00    -0.051 Br
HETATM   26  C10 UNL     1      24.933   1.646  52.130  1.00  0.00     0.048 A 
ENDBRANCH  18  20
ENDBRANCH  17  18
ENDBRANCH   3  17
TORSDOF 3
ENDMDL
MODEL 7
REMARK VINA RESULT:      -8.9      3.195      3.845
REMARK  3 active torsions:
REMARK  status: ('A' for Active; 'I' for Inactive)
REMARK    1  A    between atoms: C3_3  and  C4_4 
REMARK    2  A    between atoms: C4_4  and  N1_5 
REMARK    3  A    between atoms: N1_5  and  C5_6 
ROOT
HETATM    1  C1  UNL     1      24.937   3.169  51.221  1.00  0.00     0.021 C 
HETATM    2  C2  UNL     1      24.755   2.491  52.572  1.00  0.00     0.062 C 
HETATM    3  C3  UNL     1      23.477   1.734  52.633  1.00  0.00    -0.042 C 
HETATM    4  C11 UNL     1      23.162   0.451  52.787  1.00  0.00    -0.021 C 
HETATM    5  C12 UNL     1      23.993  -0.159  53.511  1.00  0.00     0.014 C 
HETATM    6  C13 UNL     1      25.355  -0.234  53.102  1.00  0.00     0.029 C 
HETATM    7  C14 UNL     1      26.592  -0.699  53.051  1.00  0.00     0.051 C 
HETATM    8  N2  UNL     1      27.755  -1.341  53.160  1.00  0.00    -0.245 NA
HETATM    9  C15 UNL     1      28.909  -1.185  53.650  1.00  0.00     0.235 C 
HETATM   10  N3  UNL     1      28.929   0.152  54.307  1.00  0.00    -0.228 NA
HETATM   11  C16 UNL     1      27.824   0.841  54.249  1.00  0.00     0.119 C 
HETATM   12  N4  UNL     1      26.617   1.513  54.144  1.00  0.00    -0.347 N 
HETATM   13  C17 UNL     1      25.937   1.968  53.112  1.00  0.00     0.016 C 
HETATM   14  C18 UNL     1      26.820   1.591  52.239  1.00  0.00     0.017 C 
HETATM   15  C19 UNL     1      27.511   0.416  52.747  1.00  0.00     0.132 C 
HETATM   16  H15 UNL     1      26.305   1.648  55.191  1.00  0.00     0.167 HD
ENDROOT
BRANCH   3  17
HETATM   17  C4  UNL     1      22.243   2.544  52.482  1.00  0.00     0.155 C 
BRANCH  17  18
HETATM   18  N1  UNL     1      21.420   1.848  51.480  1.00  0.00    -0.386 N 
HETATM   19  H7  UNL     1      20.689   1.076  51.532  1.00  0.00     0.160 HD
BRANCH  18  20
HETATM   20  C5  UNL     1      21.650   2.303  50.148  1.00  0.00     0.029 A 
HETATM   21  C6  UNL     1      21.978   1.420  49.114  1.00  0.00     0.029 A 
HETATM   22  C7  UNL     1      22.213   1.805  47.806  1.00  0.00     0.004 A 
HETATM   23  C8  UNL     1      22.123   3.121  47.479  1.00  0.00     0.019 A 
HETATM   24  C9  UNL     1      21.805   4.042  48.448  1.00  0.00     0.013 A 
HETATM   25 BR1  UNL     1      21.665   5.922  48.047  1.00  0.00    -0.051 Br
HETATM   26  C10 UNL     1      21.576   3.634  49.745  1.00  0.00     0.048 A 
ENDBRANCH  18  20
ENDBRANCH  17  18
ENDBRANCH   3  17
TORSDOF 3
ENDMDL
MODEL 8
REMARK VINA RESULT:      -8.6      5.336      7.648
REMARK  3 active torsions:
REMARK  status: ('A' for Active; 'I' for Inactive)
REMARK    1  A    between atoms: C3_3  and  C4_4 
REMARK    2  A    between atoms: C4_4  and  N1_5 
REMARK    3  A    between atoms: N1_5  and  C5_6 
ROOT
HETATM    1  C1  UNL     1      22.745   6.322  50.864  1.00  0.00     0.021 C 
HETATM    2  C2  UNL     1      24.221   5.989  51.038  1.00  0.00     0.062 C 
HETATM    3  C3  UNL     1      24.497   4.563  50.723  1.00  0.00    -0.042 C 
HETATM    4  C11 UNL     1      25.233   3.938  49.809  1.00  0.00    -0.021 C 
HETATM    5  C12 UNL     1      26.259   4.596  49.493  1.00  0.00     0.014 C 
HETATM    6  C13 UNL     1      26.111   5.891  48.920  1.00  0.00     0.029 C 
HETATM    7  C14 UNL     1      26.449   6.971  48.236  1.00  0.00     0.051 C 
HETATM    8  N2  UNL     1      27.004   7.936  47.504  1.00  0.00    -0.245 NA
HETATM    9  C15 UNL     1      27.486   9.098  47.631  1.00  0.00     0.235 C 
HETATM   10  N3  UNL     1      27.382   9.459  49.072  1.00  0.00    -0.228 NA
HETATM   11  C16 UNL     1      26.855   8.562  49.857  1.00  0.00     0.119 C 
HETATM   12  N4  UNL     1      26.282   7.562  50.625  1.00  0.00    -0.347 N 
HETATM   13  C17 UNL     1      25.088   7.007  50.621  1.00  0.00     0.016 C 
HETATM   14  C18 UNL     1      24.634   7.759  49.666  1.00  0.00     0.017 C 
HETATM   15  C19 UNL     1      25.741   8.138  48.801  1.00  0.00     0.132 C 
HETATM   16  H15 UNL     1      27.075   7.305  51.345  1.00  0.00     0.167 HD
ENDROOT
BRANCH   3  17
HETATM   17  C4  UNL     1      23.813   3.570  51.588  1.00  0.00     0.155 C 
BRANCH  17  18
HETATM   18  N1  UNL     1      24.601   3.499  52.829  1.00  0.00    -0.386 N 
HETATM   19  H7  UNL     1      24.940   4.224  53.530  1.00  0.00     0.160 HD
BRANCH  18  20
HETATM   20  C5  UNL     1      25.002   2.172  53.166  1.00  0.00     0.029 A 
HETATM   21  C6  UNL     1      24.160   1.074  52.959  1.00  0.00     0.029 A 
HETATM   22  C7  UNL     1      24.495  -0.233  53.267  1.00  0.00     0.004 A 
HETATM   23  C8  UNL     1      25.716  -0.491  53.804  1.00  0.00     0.019 A 
HETATM   24  C9  UNL     1      26.592   0.543  54.033  1.00  0.00     0.013 A 
HETATM   25 BR1  UNL     1      28.336   0.239  54.794  1.00  0.00    -0.051 Br
HETATM   26  C10 UNL     1      26.235   1.837  53.719  1.00  0.00     0.048 A 
ENDBRANCH  18  20
ENDBRANCH  17  18
ENDBRANCH   3  17
TORSDOF 3
ENDMDL
MODEL 9
REMARK VINA RESULT:      -8.5      3.254      7.883
REMARK  3 active torsions:
REMARK  status: ('A' for Active; 'I' for Inactive)
REMARK    1  A    between atoms: C3_3  and  C4_4 
REMARK    2  A    between atoms: C4_4  and  N1_5 
REMARK    3  A    between atoms: N1_5  and  C5_6 
ROOT
HETATM    1  C1  UNL     1      24.036   2.141  53.035  1.00  0.00     0.021 C 
HETATM    2  C2  UNL     1      23.449   0.832  52.527  1.00  0.00     0.062 C 
HETATM    3  C3  UNL     1      23.434  -0.206  53.591  1.00  0.00    -0.042 C 
HETATM    4  C11 UNL     1      22.476  -0.885  54.215  1.00  0.00    -0.021 C 
HETATM    5  C12 UNL     1      21.482  -1.098  53.470  1.00  0.00     0.014 C 
HETATM    6  C13 UNL     1      20.762   0.005  52.931  1.00  0.00     0.029 C 
HETATM    7  C14 UNL     1      19.744   0.655  52.392  1.00  0.00     0.051 C 
HETATM    8  N2  UNL     1      18.599   1.089  51.866  1.00  0.00    -0.245 NA
HETATM    9  C15 UNL     1      18.120   1.468  50.759  1.00  0.00     0.235 C 
HETATM   10  N3  UNL     1      19.217   1.383  49.755  1.00  0.00    -0.228 NA
HETATM   11  C16 UNL     1      20.369   0.960  50.192  1.00  0.00     0.119 C 
HETATM   12  N4  UNL     1      21.562   0.505  50.731  1.00  0.00    -0.347 N 
HETATM   13  C17 UNL     1      22.368   0.992  51.653  1.00  0.00     0.016 C 
HETATM   14  C18 UNL     1      21.660   2.063  51.844  1.00  0.00     0.017 C 
HETATM   15  C19 UNL     1      20.265   1.761  51.564  1.00  0.00     0.132 C 
HETATM   16  H15 UNL     1      21.763  -0.420  50.170  1.00  0.00     0.167 HD
ENDROOT
BRANCH   3  17
HETATM   17  C4  UNL     1      24.762  -0.603  54.121  1.00  0.00     0.155 C 
BRANCH  17  18
HETATM   18  N1  UNL     1      25.580  -0.954  52.950  1.00  0.00    -0.386 N 
HETATM   19  H7  UNL     1      25.354  -1.288  51.965  1.00  0.00     0.160 HD
BRANCH  18  20
HETATM   20  C5  UNL     1      26.981  -0.819  53.182  1.00  0.00     0.029 A 
HETATM   21  C6  UNL     1      27.859  -1.898  53.033  1.00  0.00     0.029 A 
HETATM   22  C7  UNL     1      29.225  -1.825  53.244  1.00  0.00     0.004 A 
HETATM   23  C8  UNL     1      29.772  -0.641  53.620  1.00  0.00     0.019 A 
HETATM   24  C9  UNL     1      28.965   0.460  53.784  1.00  0.00     0.013 A 
HETATM   25 BR1  UNL     1      29.682   2.168  54.317  1.00  0.00    -0.051 Br
HETATM   26  C10 UNL     1      27.607   0.363  53.568  1.00  0.00     0.048 A 
ENDBRANCH  18  20
ENDBRANCH  17  18
ENDBRANCH   3  17
TORSDOF 3
ENDMDL
