MODEL 1
REMARK VINA RESULT:      -8.8      0.000      0.000
REMARK  4 active torsions:
REMARK  status: ('A' for Active; 'I' for Inactive)
REMARK    1  A    between atoms: C3_4  and  N1_5 
REMARK       I    between atoms: N1_5  and  C4_6 
REMARK    2  A    between atoms: C4_6  and  C5_8 
REMARK    3  A    between atoms: C9_12  and  N2_13 
REMARK    4  A    between atoms: N2_13  and  C10_14 
ROOT
HETATM    1  C1  UNL     1      21.503   5.453  51.508  1.00  0.00     0.010 A 
HETATM    2  S1  UNL     1      21.756   4.038  51.579  1.00  0.00    -0.214 SA
HETATM    3  C2  UNL     1      21.824   3.704  51.599  1.00  0.00     0.167 A 
HETATM    4  C3  UNL     1      23.396   3.776  51.225  1.00  0.00     0.052 A 
HETATM    5  C7  UNL     1      24.153   2.550  51.873  1.00  0.00     0.018 C 
HETATM    6  C8  UNL     1      23.201   1.903  52.464  1.00  0.00    -0.003 C 
HETATM    7  C9  UNL     1      23.020   0.705  53.320  1.00  0.00     0.063 C 
HETATM    8  C16 UNL     1      21.893   0.133  53.645  1.00  0.00     0.089 C 
HETATM    9  C17 UNL     1      21.897  -0.991  54.481  1.00  0.00     0.103 C 
HETATM   10  N3  UNL     1      21.914  -1.917  55.162  1.00  0.00    -0.191 NA
HETATM   11  C18 UNL     1      20.771   0.711  52.965  1.00  0.00     0.136 C 
HETATM   12  N4  UNL     1      20.779   1.645  52.128  1.00  0.00    -0.286 NA
HETATM   13  C19 UNL     1      22.019   2.319  51.687  1.00  0.00     0.150 A 
HETATM   14  H2  UNL     1      22.291   1.258  51.664  1.00  0.00     0.127 HD
ENDROOT
BRANCH   7  15
HETATM   15  N2  UNL     1      24.272   0.264  53.764  1.00  0.00    -0.354 N 
HETATM   16  H9  UNL     1      24.256  -0.182  54.704  1.00  0.00     0.166 HD
BRANCH  15  17
HETATM   17  C10 UNL     1      25.654   0.074  53.616  1.00  0.00     0.033 A 
HETATM   18  C11 UNL     1      25.972  -1.124  52.953  1.00  0.00     0.029 A 
HETATM   19  C12 UNL     1      27.303  -1.489  52.714  1.00  0.00     0.004 A 
HETATM   20  C13 UNL     1      28.232  -0.585  53.180  1.00  0.00     0.019 A 
HETATM   21  C14 UNL     1      27.986   0.605  53.835  1.00  0.00     0.013 A 
HETATM   22 BR1  UNL     1      29.369   1.773  54.432  1.00  0.00    -0.051 Br
HETATM   23  C15 UNL     1      26.666   0.921  54.047  1.00  0.00     0.048 A 
ENDBRANCH  15  17
ENDBRANCH   7  15
BRANCH   4  24
HETATM   24  N1  UNL     1      24.867   4.282  50.823  1.00  0.00    -0.344 N 
HETATM   25  C4  UNL     1      25.011   4.731  49.462  1.00  0.00     0.241 C 
HETATM   26  O1  UNL     1      23.895   4.587  48.916  1.00  0.00    -0.269 OA
HETATM   27  H4  UNL     1      25.681   4.283  51.511  1.00  0.00     0.164 HD
BRANCH  25  28
HETATM   28  C5  UNL     1      26.328   5.190  49.159  1.00  0.00     0.064 C 
HETATM   29  C6  UNL     1      27.008   4.067  49.202  1.00  0.00     0.017 C 
ENDBRANCH  25  28
ENDBRANCH   4  24
TORSDOF 4
ENDMDL
MODEL 2
REMARK VINA RESULT:      -8.5      3.275      6.380
REMARK  4 active torsions:
REMARK  status: ('A' for Active; 'I' for Inactive)
REMARK    1  A    between atoms: C3_4  and  N1_5 
REMARK       I    between atoms: N1_5  and  C4_6 
REMARK    2  A    between atoms: C4_6  and  C5_8 
REMARK    3  A    between atoms: C9_12  and  N2_13 
REMARK    4  A    between atoms: N2_13  and  C10_14 
ROOT
HETATM    1  C1  UNL     1      24.250  -0.827  53.522  1.00  0.00     0.010 A 
HETATM    2  S1  UNL     1      24.204   0.556  53.127  1.00  0.00    -0.214 SA
HETATM    3  C2  UNL     1      24.199   0.883  53.029  1.00  0.00     0.167 A 
HETATM    4  C3  UNL     1      25.788   1.062  52.786  1.00  0.00     0.052 A 
HETATM    5  C7  UNL     1      26.037   2.189  51.707  1.00  0.00     0.018 C 
HETATM    6  C8  UNL     1      24.839   2.585  51.422  1.00  0.00    -0.003 C 
HETATM    7  C9  UNL     1      24.158   3.539  50.512  1.00  0.00     0.063 C 
HETATM    8  C16 UNL     1      22.905   3.902  50.549  1.00  0.00     0.089 C 
HETATM    9  C17 UNL     1      22.414   4.808  49.599  1.00  0.00     0.103 C 
HETATM   10  N3  UNL     1      22.025   5.559  48.820  1.00  0.00    -0.191 NA
HETATM   11  C18 UNL     1      22.215   3.372  51.688  1.00  0.00     0.136 C 
HETATM   12  N4  UNL     1      22.682   2.651  52.601  1.00  0.00    -0.286 NA
HETATM   13  C19 UNL     1      24.098   2.227  52.645  1.00  0.00     0.150 A 
HETATM   14  H2  UNL     1      24.165   3.290  52.388  1.00  0.00     0.127 HD
ENDROOT
BRANCH   7  15
HETATM   15  N2  UNL     1      25.074   4.002  49.562  1.00  0.00    -0.354 N 
HETATM   16  H9  UNL     1      25.205   3.364  48.752  1.00  0.00     0.166 HD
BRANCH  15  17
HETATM   17  C10 UNL     1      25.987   4.944  49.061  1.00  0.00     0.033 A 
HETATM   18  C11 UNL     1      27.293   4.436  48.958  1.00  0.00     0.029 A 
HETATM   19  C12 UNL     1      28.344   5.230  48.482  1.00  0.00     0.004 A 
HETATM   20  C13 UNL     1      27.976   6.511  48.138  1.00  0.00     0.019 A 
HETATM   21  C14 UNL     1      26.716   7.070  48.214  1.00  0.00     0.013 A 
HETATM   22 BR1  UNL     1      26.337   8.867  47.704  1.00  0.00    -0.051 Br
HETATM   23  C15 UNL     1      25.717   6.253  48.687  1.00  0.00     0.048 A 
ENDBRANCH  15  17
ENDBRANCH   7  15
BRANCH   4  24
HETATM   24  N1  UNL     1      27.372   0.817  52.680  1.00  0.00    -0.344 N 
HETATM   25  C4  UNL     1      28.072   0.765  53.938  1.00  0.00     0.241 C 
HETATM   26  O1  UNL     1      27.216   0.951  54.832  1.00  0.00    -0.269 OA
HETATM   27  H4  UNL     1      27.873   0.704  51.747  1.00  0.00     0.164 HD
BRANCH  25  28
HETATM   28  C5  UNL     1      29.471   0.524  53.793  1.00  0.00     0.064 C 
HETATM   29  C6  UNL     1      29.485  -0.763  53.534  1.00  0.00     0.017 C 
ENDBRANCH  25  28
ENDBRANCH   4  24
TORSDOF 4
ENDMDL
MODEL 3
REMARK VINA RESULT:      -8.3      2.263      5.334
REMARK  4 active torsions:
REMARK  status: ('A' for Active; 'I' for Inactive)
REMARK    1  A    between atoms: C3_4  and  N1_5 
REMARK       I    between atoms: N1_5  and  C4_6 
REMARK    2  A    between atoms: C4_6  and  C5_8 
REMARK    3  A    between atoms: C9_12  and  N2_13 
REMARK    4  A    between atoms: N2_13  and  C10_14 
ROOT
HETATM    1  C1  UNL     1      20.542   1.260  49.531  1.00  0.00     0.010 A 
HETATM    2  S1  UNL     1      21.618   2.127  49.932  1.00  0.00    -0.214 SA
HETATM    3  C2  UNL     1      21.877   2.327  50.031  1.00  0.00     0.167 A 
HETATM    4  C3  UNL     1      22.201   1.588  51.434  1.00  0.00     0.052 A 
HETATM    5  C7  UNL     1      23.720   1.804  51.810  1.00  0.00     0.018 C 
HETATM    6  C8  UNL     1      24.156   2.537  50.837  1.00  0.00    -0.003 C 
HETATM    7  C9  UNL     1      25.427   3.147  50.373  1.00  0.00     0.063 C 
HETATM    8  C16 UNL     1      25.574   4.032  49.425  1.00  0.00     0.089 C 
HETATM    9  C17 UNL     1      26.855   4.498  49.099  1.00  0.00     0.103 C 
HETATM   10  N3  UNL     1      27.909   4.878  48.845  1.00  0.00    -0.191 NA
HETATM   11  C18 UNL     1      24.318   4.500  48.914  1.00  0.00     0.136 C 
HETATM   12  N4  UNL     1      23.168   4.167  49.284  1.00  0.00    -0.286 NA
HETATM   13  C19 UNL     1      22.922   3.196  50.371  1.00  0.00     0.150 A 
HETATM   14  H2  UNL     1      23.712   3.835  50.782  1.00  0.00     0.127 HD
ENDROOT
BRANCH   7  15
HETATM   15  N2  UNL     1      26.490   2.611  51.107  1.00  0.00    -0.354 N 
HETATM   16  H9  UNL     1      27.377   3.149  51.026  1.00  0.00     0.166 HD
BRANCH  15  17
HETATM   17  C10 UNL     1      27.059   1.663  51.972  1.00  0.00     0.033 A 
HETATM   18  C11 UNL     1      27.817   2.249  52.999  1.00  0.00     0.029 A 
HETATM   19  C12 UNL     1      28.466   1.462  53.960  1.00  0.00     0.004 A 
HETATM   20  C13 UNL     1      28.288   0.107  53.798  1.00  0.00     0.019 A 
HETATM   21  C14 UNL     1      27.557  -0.530  52.815  1.00  0.00     0.013 A 
HETATM   22 BR1  UNL     1      27.388  -2.425  52.701  1.00  0.00    -0.051 Br
HETATM   23  C15 UNL     1      26.938   0.282  51.895  1.00  0.00     0.048 A 
ENDBRANCH  15  17
ENDBRANCH   7  15
BRANCH   4  24
HETATM   24  N1  UNL     1      22.181   0.600  52.700  1.00  0.00    -0.344 N 
HETATM   25  C4  UNL     1      21.079   0.788  53.609  1.00  0.00     0.241 C 
HETATM   26  O1  UNL     1      20.398   1.734  53.155  1.00  0.00    -0.269 OA
HETATM   27  H4  UNL     1      22.930  -0.140  52.861  1.00  0.00     0.164 HD
BRANCH  25  28
HETATM   28  C5  UNL     1      21.093  -0.126  54.705  1.00  0.00     0.064 C 
HETATM   29  C6  UNL     1      22.185  -0.811  54.454  1.00  0.00     0.017 C 
ENDBRANCH  25  28
ENDBRANCH   4  24
TORSDOF 4
ENDMDL
MODEL 4
REMARK VINA RESULT:      -8.2      2.986      5.891
REMARK  4 active torsions:
REMARK  status: ('A' for Active; 'I' for Inactive)
REMARK    1  A    between atoms: C3_4  and  N1_5 
REMARK       I    between atoms: N1_5  and  C4_6 
REMARK    2  A    between atoms: C4_6  and  C5_8 
REMARK    3  A    between atoms: C9_12  and  N2_13 
REMARK    4  A    between atoms: N2_13  and  C10_14 
ROOT
HETATM    1  C1  UNL     1      21.196  -1.407  54.556  1.00  0.00     0.010 A 
HETATM    2  S1  UNL     1      22.414  -0.981  53.918  1.00  0.00    -0.214 SA
HETATM    3  C2  UNL     1      22.700  -0.874  53.764  1.00  0.00     0.167 A 
HETATM    4  C3  UNL     1      22.003  -0.131  52.507  1.00  0.00     0.052 A 
HETATM    5  C7  UNL     1      22.946   1.023  51.983  1.00  0.00     0.018 C 
HETATM    6  C8  UNL     1      23.974   0.933  52.764  1.00  0.00    -0.003 C 
HETATM    7  C9  UNL     1      25.264   1.624  53.007  1.00  0.00     0.063 C 
HETATM    8  C16 UNL     1      26.249   1.209  53.755  1.00  0.00     0.089 C 
HETATM    9  C17 UNL     1      27.401   1.996  53.890  1.00  0.00     0.103 C 
HETATM   10  N3  UNL     1      28.344   2.646  53.987  1.00  0.00    -0.191 NA
HETATM   11  C18 UNL     1      26.032  -0.115  54.262  1.00  0.00     0.136 C 
HETATM   12  N4  UNL     1      25.051  -0.865  54.049  1.00  0.00    -0.286 NA
HETATM   13  C19 UNL     1      23.914  -0.479  53.187  1.00  0.00     0.150 A 
HETATM   14  H2  UNL     1      24.787  -0.163  52.605  1.00  0.00     0.127 HD
ENDROOT
BRANCH   7  15
HETATM   15  N2  UNL     1      25.275   2.837  52.310  1.00  0.00    -0.354 N 
HETATM   16  H9  UNL     1      25.094   3.670  52.905  1.00  0.00     0.166 HD
BRANCH  15  17
HETATM   17  C10 UNL     1      25.414   3.607  51.145  1.00  0.00     0.033 A 
HETATM   18  C11 UNL     1      26.607   3.339  50.453  1.00  0.00     0.029 A 
HETATM   19  C12 UNL     1      26.925   4.013  49.267  1.00  0.00     0.004 A 
HETATM   20  C13 UNL     1      25.980   4.932  48.866  1.00  0.00     0.019 A 
HETATM   21  C14 UNL     1      24.792   5.240  49.497  1.00  0.00     0.013 A 
HETATM   22 BR1  UNL     1      23.565   6.540  48.836  1.00  0.00    -0.051 Br
HETATM   23  C15 UNL     1      24.523   4.554  50.657  1.00  0.00     0.048 A 
ENDBRANCH  15  17
ENDBRANCH   7  15
BRANCH   4  24
HETATM   24  N1  UNL     1      20.942   0.460  51.456  1.00  0.00    -0.344 N 
HETATM   25  C4  UNL     1      20.032   1.442  51.987  1.00  0.00     0.241 C 
HETATM   26  O1  UNL     1      20.313   1.572  53.199  1.00  0.00    -0.269 OA
HETATM   27  H4  UNL     1      20.910   0.148  50.438  1.00  0.00     0.164 HD
BRANCH  25  28
HETATM   28  C5  UNL     1      19.124   1.952  51.011  1.00  0.00     0.064 C 
HETATM   29  C6  UNL     1      19.458   1.247  49.956  1.00  0.00     0.017 C 
ENDBRANCH  25  28
ENDBRANCH   4  24
TORSDOF 4
ENDMDL
MODEL 5
REMARK VINA RESULT:      -8.1      3.059      5.313
REMARK  4 active torsions:
REMARK  status: ('A' for Active; 'I' for Inactive)
REMARK    1  A    between atoms: C3_4  and  N1_5 
REMARK       I    between atoms: N1_5  and  C4_6 
REMARK    2  A    between atoms: C4_6  and  C5_8 
REMARK    3  A    between atoms: C9_12  and  N2_13 
REMARK    4  A    between atoms: N2_13  and  C10_14 
ROOT
HETATM    1  C1  UNL     1      28.796  -0.027  53.124  1.00  0.00     0.010 A 
HETATM    2  S1  UNL     1      27.491   0.185  53.691  1.00  0.00    -0.214 SA
HETATM    3  C2  UNL     1      27.178   0.238  53.819  1.00  0.00     0.167 A 
HETATM    4  C3  UNL     1      26.851   1.612  53.030  1.00  0.00     0.052 A 
HETATM    5  C7  UNL     1      25.289   1.765  52.854  1.00  0.00     0.018 C 
HETATM    6  C8  UNL     1      24.828   0.711  53.447  1.00  0.00    -0.003 C 
HETATM    7  C9  UNL     1      23.526   0.050  53.711  1.00  0.00     0.063 C 
HETATM    8  C16 UNL     1      23.300  -0.944  54.525  1.00  0.00     0.089 C 
HETATM    9  C17 UNL     1      22.004  -1.464  54.647  1.00  0.00     0.103 C 
HETATM   10  N3  UNL     1      20.936  -1.877  54.745  1.00  0.00    -0.191 NA
HETATM   11  C18 UNL     1      24.458  -1.296  55.293  1.00  0.00     0.136 C 
HETATM   12  N4  UNL     1      25.589  -0.757  55.266  1.00  0.00    -0.286 NA
HETATM   13  C19 UNL     1      25.911   0.394  54.396  1.00  0.00     0.150 A 
HETATM   14  H2  UNL     1      24.935   0.664  54.815  1.00  0.00     0.127 HD
ENDROOT
BRANCH   7  15
HETATM   15  N2  UNL     1      22.537   0.652  52.926  1.00  0.00    -0.354 N 
HETATM   16  H9  UNL     1      21.931   1.321  53.444  1.00  0.00     0.166 HD
BRANCH  15  17
HETATM   17  C10 UNL     1      21.862   0.867  51.713  1.00  0.00     0.033 A 
HETATM   18  C11 UNL     1      20.509   0.492  51.769  1.00  0.00     0.029 A 
HETATM   19  C12 UNL     1      19.673   0.629  50.653  1.00  0.00     0.004 A 
HETATM   20  C13 UNL     1      20.294   1.150  49.540  1.00  0.00     0.019 A 
HETATM   21  C14 UNL     1      21.613   1.537  49.421  1.00  0.00     0.013 A 
HETATM   22 BR1  UNL     1      22.353   2.247  47.814  1.00  0.00    -0.051 Br
HETATM   23  C15 UNL     1      22.395   1.384  50.541  1.00  0.00     0.048 A 
ENDBRANCH  15  17
ENDBRANCH   7  15
BRANCH   4  24
HETATM   24  N1  UNL     1      26.936   2.909  52.087  1.00  0.00    -0.344 N 
HETATM   25  C4  UNL     1      26.715   2.665  50.684  1.00  0.00     0.241 C 
HETATM   26  O1  UNL     1      26.521   1.436  50.561  1.00  0.00    -0.269 OA
HETATM   27  H4  UNL     1      27.143   3.882  52.468  1.00  0.00     0.164 HD
BRANCH  25  28
HETATM   28  C5  UNL     1      26.779   3.850  49.891  1.00  0.00     0.064 C 
HETATM   29  C6  UNL     1      25.512   4.032  49.599  1.00  0.00     0.017 C 
ENDBRANCH  25  28
ENDBRANCH   4  24
TORSDOF 4
ENDMDL
MODEL 6
REMARK VINA RESULT:      -8.0      1.910      2.214
REMARK  4 active torsions:
REMARK  status: ('A' for Active; 'I' for Inactive)
REMARK    1  A    between atoms: C3_4  and  N1_5 
REMARK       I    between atoms: N1_5  and  C4_6 
REMARK    2  A    between atoms: C4_6  and  C5_8 
REMARK    3  A    between atoms: C9_12  and  N2_13 
REMARK    4  A    between atoms: N2_13  and  C10_14 
ROOT
HETATM    1  C1  UNL     1      18.398   3.674  51.334  1.00  0.00     0.010 A 
HETATM    2  S1  UNL     1      19.308   2.575  51.523  1.00  0.00    -0.214 SA
HETATM    3  C2  UNL     1      19.530   2.319  51.569  1.00  0.00     0.167 A 
HETATM    4  C3  UNL     1      20.804   3.003  50.843  1.00  0.00     0.052 A 
HETATM    5  C7  UNL     1      22.139   2.419  51.452  1.00  0.00     0.018 C 
HETATM    6  C8  UNL     1      21.709   1.561  52.321  1.00  0.00    -0.003 C 
HETATM    7  C9  UNL     1      22.249   0.628  53.340  1.00  0.00     0.063 C 
HETATM    8  C16 UNL     1      21.593  -0.301  53.981  1.00  0.00     0.089 C 
HETATM    9  C17 UNL     1      22.255  -1.092  54.930  1.00  0.00     0.103 C 
HETATM   10  N3  UNL     1      22.810  -1.740  55.700  1.00  0.00    -0.191 NA
HETATM   11  C18 UNL     1      20.249  -0.449  53.505  1.00  0.00     0.136 C 
HETATM   12  N4  UNL     1      19.690   0.182  52.578  1.00  0.00    -0.286 NA
HETATM   13  C19 UNL     1      20.377   1.224  51.786  1.00  0.00     0.150 A 
HETATM   14  H2  UNL     1      21.119   0.420  51.836  1.00  0.00     0.127 HD
ENDROOT
BRANCH   7  15
HETATM   15  N2  UNL     1      23.606   0.901  53.541  1.00  0.00    -0.354 N 
HETATM   16  H9  UNL     1      23.788   1.709  54.170  1.00  0.00     0.166 HD
BRANCH  15  17
HETATM   17  C10 UNL     1      24.973   0.652  53.342  1.00  0.00     0.033 A 
HETATM   18  C11 UNL     1      25.226  -0.634  52.837  1.00  0.00     0.029 A 
HETATM   19  C12 UNL     1      26.532  -1.067  52.577  1.00  0.00     0.004 A 
HETATM   20  C13 UNL     1      27.506  -0.135  52.858  1.00  0.00     0.019 A 
HETATM   21  C14 UNL     1      27.325   1.141  53.353  1.00  0.00     0.013 A 
HETATM   22 BR1  UNL     1      28.764   2.340  53.702  1.00  0.00    -0.051 Br
HETATM   23  C15 UNL     1      26.026   1.522  53.593  1.00  0.00     0.048 A 
ENDBRANCH  15  17
ENDBRANCH   7  15
BRANCH   4  24
HETATM   24  N1  UNL     1      21.777   4.010  50.057  1.00  0.00    -0.344 N 
HETATM   25  C4  UNL     1      21.752   3.895  48.622  1.00  0.00     0.241 C 
HETATM   26  O1  UNL     1      20.946   2.978  48.350  1.00  0.00    -0.269 OA
HETATM   27  H4  UNL     1      22.400   4.714  50.560  1.00  0.00     0.164 HD
BRANCH  25  28
HETATM   28  C5  UNL     1      22.616   4.824  47.968  1.00  0.00     0.064 C 
HETATM   29  C6  UNL     1      23.149   5.446  48.995  1.00  0.00     0.017 C 
ENDBRANCH  25  28
ENDBRANCH   4  24
TORSDOF 4
ENDMDL
MODEL 7
REMARK VINA RESULT:      -7.8      2.941      6.285
REMARK  4 active torsions:
REMARK  status: ('A' for Active; 'I' for Inactive)
REMARK    1  A    between atoms: C3_4  and  N1_5 
REMARK       I    between atoms: N1_5  and  C4_6 
REMARK    2  A    between atoms: C4_6  and  C5_8 
REMARK    3  A    between atoms: C9_12  and  N2_13 
REMARK    4  A    between atoms: N2_13  and  C10_14 
ROOT
HETATM    1  C1  UNL     1      21.268   0.353  50.825  1.00  0.00     0.010 A 
HETATM    2  S1  UNL     1      21.676   1.660  51.267  1.00  0.00    -0.214 SA
HETATM    3  C2  UNL     1      21.780   1.970  51.369  1.00  0.00     0.167 A 
HETATM    4  C3  UNL     1      23.297   1.570  51.763  1.00  0.00     0.052 A 
HETATM    5  C7  UNL     1      24.233   2.834  51.622  1.00  0.00     0.018 C 
HETATM    6  C8  UNL     1      23.410   3.763  51.254  1.00  0.00    -0.003 C 
HETATM    7  C9  UNL     1      23.433   5.195  50.866  1.00  0.00     0.063 C 
HETATM    8  C16 UNL     1      22.405   5.984  50.713  1.00  0.00     0.089 C 
HETATM    9  C17 UNL     1      22.602   7.316  50.326  1.00  0.00     0.103 C 
HETATM   10  N3  UNL     1      22.776   8.410  50.015  1.00  0.00    -0.191 NA
HETATM   11  C18 UNL     1      21.173   5.359  51.096  1.00  0.00     0.136 C 
HETATM   12  N4  UNL     1      21.009   4.202  51.550  1.00  0.00    -0.286 NA
HETATM   13  C19 UNL     1      22.127   3.263  51.781  1.00  0.00     0.150 A 
HETATM   14  H2  UNL     1      22.507   4.207  52.188  1.00  0.00     0.127 HD
ENDROOT
BRANCH   7  15
HETATM   15  N2  UNL     1      24.758   5.595  50.662  1.00  0.00    -0.354 N 
HETATM   16  H9  UNL     1      25.270   5.832  51.536  1.00  0.00     0.166 HD
BRANCH  15  17
HETATM   17  C10 UNL     1      25.869   5.870  49.850  1.00  0.00     0.033 A 
HETATM   18  C11 UNL     1      26.520   4.706  49.405  1.00  0.00     0.029 A 
HETATM   19  C12 UNL     1      27.653   4.778  48.585  1.00  0.00     0.004 A 
HETATM   20  C13 UNL     1      28.048   6.060  48.273  1.00  0.00     0.019 A 
HETATM   21  C14 UNL     1      27.454   7.240  48.676  1.00  0.00     0.013 A 
HETATM   22 BR1  UNL     1      28.102   8.960  48.172  1.00  0.00    -0.051 Br
HETATM   23  C15 UNL     1      26.345   7.120  49.478  1.00  0.00     0.048 A 
ENDBRANCH  15  17
ENDBRANCH   7  15
BRANCH   4  24
HETATM   24  N1  UNL     1      24.665   0.771  52.028  1.00  0.00    -0.344 N 
HETATM   25  C4  UNL     1      24.670  -0.070  53.198  1.00  0.00     0.241 C 
HETATM   26  O1  UNL     1      23.550   0.063  53.739  1.00  0.00    -0.269 OA
HETATM   27  H4  UNL     1      25.512   0.857  51.387  1.00  0.00     0.164 HD
BRANCH  25  28
HETATM   28  C5  UNL     1      25.898  -0.775  53.378  1.00  0.00     0.064 C 
HETATM   29  C6  UNL     1      26.609  -0.311  52.377  1.00  0.00     0.017 C 
ENDBRANCH  25  28
ENDBRANCH   4  24
TORSDOF 4
ENDMDL
MODEL 8
REMARK VINA RESULT:      -7.7      3.174      5.556
REMARK  4 active torsions:
REMARK  status: ('A' for Active; 'I' for Inactive)
REMARK    1  A    between atoms: C3_4  and  N1_5 
REMARK       I    between atoms: N1_5  and  C4_6 
REMARK    2  A    between atoms: C4_6  and  C5_8 
REMARK    3  A    between atoms: C9_12  and  N2_13 
REMARK    4  A    between atoms: N2_13  and  C10_14 
ROOT
HETATM    1  C1  UNL     1      26.082   3.084  50.000  1.00  0.00     0.010 A 
HETATM    2  S1  UNL     1      25.389   2.718  51.207  1.00  0.00    -0.214 SA
HETATM    3  C2  UNL     1      25.218   2.632  51.490  1.00  0.00     0.167 A 
HETATM    4  C3  UNL     1      23.935   3.593  51.269  1.00  0.00     0.052 A 
HETATM    5  C7  UNL     1      22.675   2.972  51.991  1.00  0.00     0.018 C 
HETATM    6  C8  UNL     1      23.154   1.899  52.533  1.00  0.00    -0.003 C 
HETATM    7  C9  UNL     1      22.685   0.738  53.329  1.00  0.00     0.063 C 
HETATM    8  C16 UNL     1      23.424  -0.149  53.937  1.00  0.00     0.089 C 
HETATM    9  C17 UNL     1      22.818  -1.200  54.638  1.00  0.00     0.103 C 
HETATM   10  N3  UNL     1      22.309  -2.053  55.217  1.00  0.00    -0.191 NA
HETATM   11  C18 UNL     1      24.821   0.174  53.883  1.00  0.00     0.136 C 
HETATM   12  N4  UNL     1      25.356   1.175  53.352  1.00  0.00    -0.286 NA
HETATM   13  C19 UNL     1      24.582   2.237  52.674  1.00  0.00     0.150 A 
HETATM   14  H2  UNL     1      24.012   2.061  53.593  1.00  0.00     0.127 HD
ENDROOT
BRANCH   7  15
HETATM   15  N2  UNL     1      21.286   0.711  53.325  1.00  0.00    -0.354 N 
HETATM   16  H9  UNL     1      20.849   1.193  54.137  1.00  0.00     0.166 HD
BRANCH  15  17
HETATM   17  C10 UNL     1      20.044   0.364  52.770  1.00  0.00     0.033 A 
HETATM   18  C11 UNL     1      19.415  -0.687  53.458  1.00  0.00     0.029 A 
HETATM   19  C12 UNL     1      18.167  -1.176  53.049  1.00  0.00     0.004 A 
HETATM   20  C13 UNL     1      17.643  -0.542  51.945  1.00  0.00     0.019 A 
HETATM   21  C14 UNL     1      18.208   0.493  51.227  1.00  0.00     0.013 A 
HETATM   22 BR1  UNL     1      17.375   1.287  49.708  1.00  0.00    -0.051 Br
HETATM   23  C15 UNL     1      19.432   0.939  51.665  1.00  0.00     0.048 A 
ENDBRANCH  15  17
ENDBRANCH   7  15
BRANCH   4  24
HETATM   24  N1  UNL     1      22.889   4.663  50.686  1.00  0.00    -0.344 N 
HETATM   25  C4  UNL     1      23.206   6.043  50.953  1.00  0.00     0.241 C 
HETATM   26  O1  UNL     1      24.264   6.044  51.620  1.00  0.00    -0.269 OA
HETATM   27  H4  UNL     1      22.019   4.376  50.141  1.00  0.00     0.164 HD
BRANCH  25  28
HETATM   28  C5  UNL     1      22.260   6.955  50.397  1.00  0.00     0.064 C 
HETATM   29  C6  UNL     1      21.158   6.242  50.443  1.00  0.00     0.017 C 
ENDBRANCH  25  28
ENDBRANCH   4  24
TORSDOF 4
ENDMDL
MODEL 9
REMARK VINA RESULT:      -7.7      3.033      5.916
REMARK  4 active torsions:
REMARK  status: ('A' for Active; 'I' for Inactive)
REMARK    1  A    between atoms: C3_4  and  N1_5 
REMARK       I    between atoms: N1_5  and  C4_6 
REMARK    2  A    between atoms: C4_6  and  C5_8 
REMARK    3  A    between atoms: C9_12  and  N2_13 
REMARK    4  A    between atoms: N2_13  and  C10_14 
ROOT
HETATM    1  C1  UNL     1      26.723  -2.092  52.472  1.00  0.00     0.010 A 
HETATM    2  S1  UNL     1      25.681  -1.243  52.987  1.00  0.00    -0.214 SA
HETATM    3  C2  UNL     1      25.437  -1.035  53.106  1.00  0.00     0.167 A 
HETATM    4  C3  UNL     1      26.375   0.247  53.414  1.00  0.00     0.052 A 
HETATM    5  C7  UNL     1      25.515   1.568  53.325  1.00  0.00     0.018 C 
HETATM    6  C8  UNL     1      24.330   1.123  53.053  1.00  0.00    -0.003 C 
HETATM    7  C9  UNL     1      22.972   1.647  52.765  1.00  0.00     0.063 C 
HETATM    8  C16 UNL     1      21.862   0.964  52.706  1.00  0.00     0.089 C 
HETATM    9  C17 UNL     1      20.659   1.615  52.404  1.00  0.00     0.103 C 
HETATM   10  N3  UNL     1      19.676   2.161  52.164  1.00  0.00    -0.191 NA
HETATM   11  C18 UNL     1      22.042  -0.406  53.091  1.00  0.00     0.136 C 
HETATM   12  N4  UNL     1      23.098  -0.963  53.470  1.00  0.00    -0.286 NA
HETATM   13  C19 UNL     1      24.386  -0.248  53.593  1.00  0.00     0.150 A 
HETATM   14  H2  UNL     1      23.671   0.446  54.050  1.00  0.00     0.127 HD
ENDROOT
BRANCH   7  15
HETATM   15  N2  UNL     1      23.050   3.026  52.539  1.00  0.00    -0.354 N 
HETATM   16  H9  UNL     1      22.822   3.606  53.371  1.00  0.00     0.166 HD
BRANCH  15  17
HETATM   17  C10 UNL     1      23.293   4.148  51.731  1.00  0.00     0.033 A 
HETATM   18  C11 UNL     1      22.260   5.098  51.793  1.00  0.00     0.029 A 
HETATM   19  C12 UNL     1      22.322   6.285  51.052  1.00  0.00     0.004 A 
HETATM   20  C13 UNL     1      23.459   6.418  50.287  1.00  0.00     0.019 A 
HETATM   21  C14 UNL     1      24.507   5.526  50.184  1.00  0.00     0.013 A 
HETATM   22 BR1  UNL     1      26.033   5.829  49.082  1.00  0.00    -0.051 Br
HETATM   23  C15 UNL     1      24.403   4.375  50.928  1.00  0.00     0.048 A 
ENDBRANCH  15  17
ENDBRANCH   7  15
BRANCH   4  24
HETATM   24  N1  UNL     1      27.623   1.246  53.571  1.00  0.00    -0.344 N 
HETATM   25  C4  UNL     1      28.586   0.874  54.576  1.00  0.00     0.241 C 
HETATM   26  O1  UNL     1      28.165  -0.180  55.102  1.00  0.00    -0.269 OA
HETATM   27  H4  UNL     1      27.732   2.124  52.977  1.00  0.00     0.164 HD
BRANCH  25  28
HETATM   28  C5  UNL     1      29.686   1.780  54.662  1.00  0.00     0.064 C 
HETATM   29  C6  UNL     1      29.373   2.653  53.732  1.00  0.00     0.017 C 
ENDBRANCH  25  28
ENDBRANCH   4  24
TORSDOF 4
ENDMDL
