MODEL 1
REMARK VINA RESULT:      -9.1      0.000      0.000
REMARK  1 active torsions:
REMARK  status: ('A' for Active; 'I' for Inactive)
REMARK    1  A    between atoms: O1_2  and  C2_3 
ROOT
HETATM    1  C2  UNL     1      18.621  -0.957  53.190  1.00  0.00     0.072 A 
HETATM    2  C3  UNL     1      19.713  -1.332  53.819  1.00  0.00     0.069 A 
HETATM    3  C4  UNL     1      20.802  -0.524  53.329  1.00  0.00     0.093 A 
HETATM    4  N1  UNL     1      21.994  -0.399  53.785  1.00  0.00    -0.240 NA
HETATM    5  C5  UNL     1      22.399  -1.091  54.919  1.00  0.00     0.230 C 
HETATM    6  N2  UNL     1      23.599  -1.038  54.790  1.00  0.00    -0.249 NA
HETATM    7  C6  UNL     1      24.572  -0.558  53.954  1.00  0.00     0.283 A 
HETATM    8  N3  UNL     1      25.887  -0.488  54.520  1.00  0.00    -0.254 NA
HETATM    9  C7  UNL     1      26.859   0.246  54.268  1.00  0.00     0.082 A 
HETATM   10  C8  UNL     1      28.082   0.201  54.884  1.00  0.00     0.034 A 
HETATM   11  C9  UNL     1      29.092   1.084  54.582  1.00  0.00     0.002 A 
HETATM   12  C10 UNL     1      28.864   2.039  53.633  1.00  0.00     0.002 A 
HETATM   13  C11 UNL     1      27.638   2.086  53.016  1.00  0.00     0.034 A 
HETATM   14  C12 UNL     1      26.600   1.186  53.323  1.00  0.00     0.085 A 
HETATM   15  N4  UNL     1      25.466   1.299  52.769  1.00  0.00    -0.247 NA
HETATM   16  C13 UNL     1      24.307   0.527  53.014  1.00  0.00     0.081 A 
HETATM   17  C14 UNL     1      23.275   1.055  52.356  1.00  0.00     0.034 C 
HETATM   18  C15 UNL     1      21.898   1.211  51.933  1.00  0.00     0.041 C 
HETATM   19  C16 UNL     1      20.821   0.533  52.335  1.00  0.00     0.098 A 
HETATM   20  O2  UNL     1      19.572   0.751  51.831  1.00  0.00    -0.342 OA
HETATM   21  C17 UNL     1      18.407   0.066  52.166  1.00  0.00     0.240 A 
ENDROOT
BRANCH   1  22
HETATM   22  O1  UNL     1      17.541  -1.709  53.628  1.00  0.00    -0.358 OA
HETATM   23  C1  UNL     1      17.549  -3.101  53.577  1.00  0.00     0.209 C 
ENDBRANCH   1  22
TORSDOF 1
ENDMDL
MODEL 2
REMARK VINA RESULT:      -8.9      2.042      3.203
REMARK  1 active torsions:
REMARK  status: ('A' for Active; 'I' for Inactive)
REMARK    1  A    between atoms: O1_2  and  C2_3 
ROOT
HETATM    1  C2  UNL     1      19.612   2.561  52.099  1.00  0.00     0.072 A 
HETATM    2  C3  UNL     1      20.811   3.036  52.355  1.00  0.00     0.069 A 
HETATM    3  C4  UNL     1      21.705   1.914  52.501  1.00  0.00     0.093 A 
HETATM    4  N1  UNL     1      22.986   1.895  52.558  1.00  0.00    -0.240 NA
HETATM    5  C5  UNL     1      23.721   3.070  52.467  1.00  0.00     0.230 C 
HETATM    6  N2  UNL     1      24.770   2.709  52.945  1.00  0.00    -0.249 NA
HETATM    7  C6  UNL     1      25.383   1.612  53.492  1.00  0.00     0.283 A 
HETATM    8  N3  UNL     1      26.813   1.682  53.563  1.00  0.00    -0.254 NA
HETATM    9  C7  UNL     1      27.686   0.797  53.568  1.00  0.00     0.082 A 
HETATM   10  C8  UNL     1      29.038   0.999  53.652  1.00  0.00     0.034 A 
HETATM   11  C9  UNL     1      29.943  -0.034  53.600  1.00  0.00     0.002 A 
HETATM   12  C10 UNL     1      29.474  -1.309  53.458  1.00  0.00     0.002 A 
HETATM   13  C11 UNL     1      28.119  -1.513  53.371  1.00  0.00     0.034 A 
HETATM   14  C12 UNL     1      27.187  -0.459  53.423  1.00  0.00     0.085 A 
HETATM   15  N4  UNL     1      25.949  -0.687  53.283  1.00  0.00    -0.247 NA
HETATM   16  C13 UNL     1      24.899   0.259  53.242  1.00  0.00     0.081 A 
HETATM   17  C14 UNL     1      23.761  -0.356  52.920  1.00  0.00     0.034 C 
HETATM   18  C15 UNL     1      22.357  -0.479  52.582  1.00  0.00     0.041 C 
HETATM   19  C16 UNL     1      21.454   0.488  52.406  1.00  0.00     0.098 A 
HETATM   20  O2  UNL     1      20.144   0.241  52.122  1.00  0.00    -0.342 OA
HETATM   21  C17 UNL     1      19.133   1.185  51.962  1.00  0.00     0.240 A 
ENDROOT
BRANCH   1  22
HETATM   22  O1  UNL     1      18.712   3.606  51.950  1.00  0.00    -0.358 OA
HETATM   23  C1  UNL     1      17.386   3.385  51.583  1.00  0.00     0.209 C 
ENDBRANCH   1  22
TORSDOF 1
ENDMDL
MODEL 3
REMARK VINA RESULT:      -8.7      2.627      7.642
REMARK  1 active torsions:
REMARK  status: ('A' for Active; 'I' for Inactive)
REMARK    1  A    between atoms: O1_2  and  C2_3 
ROOT
HETATM    1  C2  UNL     1      26.351   0.029  54.093  1.00  0.00     0.072 A 
HETATM    2  C3  UNL     1      25.210  -0.471  54.514  1.00  0.00     0.069 A 
HETATM    3  C4  UNL     1      24.189  -0.091  53.568  1.00  0.00     0.093 A 
HETATM    4  N1  UNL     1      22.981  -0.510  53.462  1.00  0.00    -0.240 NA
HETATM    5  C5  UNL     1      22.483  -1.476  54.326  1.00  0.00     0.230 C 
HETATM    6  N2  UNL     1      21.296  -1.306  54.183  1.00  0.00    -0.249 NA
HETATM    7  C6  UNL     1      20.393  -0.531  53.502  1.00  0.00     0.283 A 
HETATM    8  N3  UNL     1      19.055  -1.042  53.463  1.00  0.00    -0.254 NA
HETATM    9  C7  UNL     1      18.134  -0.888  52.641  1.00  0.00     0.082 A 
HETATM   10  C8  UNL     1      16.879  -1.430  52.728  1.00  0.00     0.034 A 
HETATM   11  C9  UNL     1      15.930  -1.253  51.749  1.00  0.00     0.002 A 
HETATM   12  C10 UNL     1      16.254  -0.509  50.651  1.00  0.00     0.002 A 
HETATM   13  C11 UNL     1      17.512   0.034  50.561  1.00  0.00     0.034 A 
HETATM   14  C12 UNL     1      18.488  -0.146  51.560  1.00  0.00     0.085 A 
HETATM   15  N4  UNL     1      19.655   0.326  51.412  1.00  0.00    -0.247 NA
HETATM   16  C13 UNL     1      20.760   0.178  52.280  1.00  0.00     0.081 A 
HETATM   17  C14 UNL     1      21.851   0.679  51.700  1.00  0.00     0.034 C 
HETATM   18  C15 UNL     1      23.254   1.005  51.548  1.00  0.00     0.041 C 
HETATM   19  C16 UNL     1      24.275   0.689  52.348  1.00  0.00     0.098 A 
HETATM   20  O2  UNL     1      25.557   1.087  52.112  1.00  0.00    -0.342 OA
HETATM   21  C17 UNL     1      26.668   0.834  52.912  1.00  0.00     0.240 A 
ENDROOT
BRANCH   1  22
HETATM   22  O1  UNL     1      27.369  -0.309  54.972  1.00  0.00    -0.358 OA
HETATM   23  C1  UNL     1      28.632   0.273  54.890  1.00  0.00     0.209 C 
ENDBRANCH   1  22
TORSDOF 1
ENDMDL
MODEL 4
REMARK VINA RESULT:      -8.5      2.775      7.878
REMARK  1 active torsions:
REMARK  status: ('A' for Active; 'I' for Inactive)
REMARK    1  A    between atoms: O1_2  and  C2_3 
ROOT
HETATM    1  C2  UNL     1      27.292   0.797  53.564  1.00  0.00     0.072 A 
HETATM    2  C3  UNL     1      26.329   1.086  52.717  1.00  0.00     0.069 A 
HETATM    3  C4  UNL     1      25.121   0.461  53.196  1.00  0.00     0.093 A 
HETATM    4  N1  UNL     1      23.909   0.627  52.810  1.00  0.00    -0.240 NA
HETATM    5  C5  UNL     1      23.601   1.524  51.795  1.00  0.00     0.230 C 
HETATM    6  N2  UNL     1      22.513   1.116  51.467  1.00  0.00    -0.249 NA
HETATM    7  C6  UNL     1      21.594   0.143  51.760  1.00  0.00     0.283 A 
HETATM    8  N3  UNL     1      20.272   0.377  51.259  1.00  0.00    -0.254 NA
HETATM    9  C7  UNL     1      19.156  -0.000  51.658  1.00  0.00     0.082 A 
HETATM   10  C8  UNL     1      17.952   0.289  51.073  1.00  0.00     0.034 A 
HETATM   11  C9  UNL     1      16.755  -0.126  51.606  1.00  0.00     0.002 A 
HETATM   12  C10 UNL     1      16.770  -0.852  52.762  1.00  0.00     0.002 A 
HETATM   13  C11 UNL     1      17.976  -1.141  53.351  1.00  0.00     0.034 A 
HETATM   14  C12 UNL     1      19.205  -0.718  52.810  1.00  0.00     0.085 A 
HETATM   15  N4  UNL     1      20.292  -0.959  53.415  1.00  0.00    -0.247 NA
HETATM   16  C13 UNL     1      21.593  -0.548  53.046  1.00  0.00     0.081 A 
HETATM   17  C14 UNL     1      22.450  -0.857  54.019  1.00  0.00     0.034 C 
HETATM   18  C15 UNL     1      23.718  -0.909  54.717  1.00  0.00     0.041 C 
HETATM   19  C16 UNL     1      24.882  -0.354  54.372  1.00  0.00     0.098 A 
HETATM   20  O2  UNL     1      26.024  -0.505  55.102  1.00  0.00    -0.342 OA
HETATM   21  C17 UNL     1      27.283   0.005  54.794  1.00  0.00     0.240 A 
ENDROOT
BRANCH   1  22
HETATM   22  O1  UNL     1      28.480   1.378  53.144  1.00  0.00    -0.358 OA
HETATM   23  C1  UNL     1      29.051   2.451  53.825  1.00  0.00     0.209 C 
ENDBRANCH   1  22
TORSDOF 1
ENDMDL
MODEL 5
REMARK VINA RESULT:      -8.5      1.260      2.584
REMARK  1 active torsions:
REMARK  status: ('A' for Active; 'I' for Inactive)
REMARK    1  A    between atoms: O1_2  and  C2_3 
ROOT
HETATM    1  C2  UNL     1      18.184  -0.508  52.213  1.00  0.00     0.072 A 
HETATM    2  C3  UNL     1      19.194   0.228  51.805  1.00  0.00     0.069 A 
HETATM    3  C4  UNL     1      20.347  -0.133  52.592  1.00  0.00     0.093 A 
HETATM    4  N1  UNL     1      21.581   0.174  52.419  1.00  0.00    -0.240 NA
HETATM    5  C5  UNL     1      21.976   0.957  51.343  1.00  0.00     0.230 C 
HETATM    6  N2  UNL     1      23.053   1.338  51.734  1.00  0.00    -0.249 NA
HETATM    7  C6  UNL     1      23.906   1.244  52.802  1.00  0.00     0.283 A 
HETATM    8  N3  UNL     1      25.258   1.645  52.545  1.00  0.00    -0.254 NA
HETATM    9  C7  UNL     1      26.335   1.310  53.067  1.00  0.00     0.082 A 
HETATM   10  C8  UNL     1      27.575   1.785  52.731  1.00  0.00     0.034 A 
HETATM   11  C9  UNL     1      28.727   1.324  53.325  1.00  0.00     0.002 A 
HETATM   12  C10 UNL     1      28.627   0.358  54.284  1.00  0.00     0.002 A 
HETATM   13  C11 UNL     1      27.384  -0.120  54.621  1.00  0.00     0.034 A 
HETATM   14  C12 UNL     1      26.202   0.346  54.015  1.00  0.00     0.085 A 
HETATM   15  N4  UNL     1      25.081  -0.162  54.317  1.00  0.00    -0.247 NA
HETATM   16  C13 UNL     1      23.820   0.143  53.756  1.00  0.00     0.081 A 
HETATM   17  C14 UNL     1      22.910  -0.715  54.219  1.00  0.00     0.034 C 
HETATM   18  C15 UNL     1      21.614  -1.351  54.344  1.00  0.00     0.041 C 
HETATM   19  C16 UNL     1      20.496  -1.106  53.658  1.00  0.00     0.098 A 
HETATM   20  O2  UNL     1      19.319  -1.753  53.895  1.00  0.00    -0.342 OA
HETATM   21  C17 UNL     1      18.103  -1.533  53.255  1.00  0.00     0.240 A 
ENDROOT
BRANCH   1  22
HETATM   22  O1  UNL     1      17.046  -0.196  51.484  1.00  0.00    -0.358 OA
HETATM   23  C1  UNL     1      17.043  -0.212  50.091  1.00  0.00     0.209 C 
ENDBRANCH   1  22
TORSDOF 1
ENDMDL
MODEL 6
REMARK VINA RESULT:      -8.4      4.686      7.943
REMARK  1 active torsions:
REMARK  status: ('A' for Active; 'I' for Inactive)
REMARK    1  A    between atoms: O1_2  and  C2_3 
ROOT
HETATM    1  C2  UNL     1      26.475   6.350  48.461  1.00  0.00     0.072 A 
HETATM    2  C3  UNL     1      25.318   6.086  49.026  1.00  0.00     0.069 A 
HETATM    3  C4  UNL     1      25.433   4.809  49.687  1.00  0.00     0.093 A 
HETATM    4  N1  UNL     1      24.635   4.248  50.519  1.00  0.00    -0.240 NA
HETATM    5  C5  UNL     1      23.464   4.878  50.920  1.00  0.00     0.230 C 
HETATM    6  N2  UNL     1      22.840   3.933  51.340  1.00  0.00    -0.249 NA
HETATM    7  C6  UNL     1      22.929   2.577  51.517  1.00  0.00     0.283 A 
HETATM    8  N3  UNL     1      21.976   2.015  52.429  1.00  0.00    -0.254 NA
HETATM    9  C7  UNL     1      22.015   0.998  53.144  1.00  0.00     0.082 A 
HETATM   10  C8  UNL     1      21.017   0.560  53.974  1.00  0.00     0.034 A 
HETATM   11  C9  UNL     1      21.158  -0.551  54.773  1.00  0.00     0.002 A 
HETATM   12  C10 UNL     1      22.336  -1.239  54.735  1.00  0.00     0.002 A 
HETATM   13  C11 UNL     1      23.338  -0.800  53.904  1.00  0.00     0.034 A 
HETATM   14  C12 UNL     1      23.200   0.337  53.086  1.00  0.00     0.085 A 
HETATM   15  N4  UNL     1      24.169   0.740  52.376  1.00  0.00    -0.247 NA
HETATM   16  C13 UNL     1      24.217   1.893  51.558  1.00  0.00     0.081 A 
HETATM   17  C14 UNL     1      25.458   2.062  51.102  1.00  0.00     0.034 C 
HETATM   18  C15 UNL     1      26.550   2.714  50.409  1.00  0.00     0.041 C 
HETATM   19  C16 UNL     1      26.554   3.894  49.784  1.00  0.00     0.098 A 
HETATM   20  O2  UNL     1      27.645   4.388  49.133  1.00  0.00    -0.342 OA
HETATM   21  C17 UNL     1      27.723   5.586  48.428  1.00  0.00     0.240 A 
ENDROOT
BRANCH   1  22
HETATM   22  O1  UNL     1      26.415   7.573  47.809  1.00  0.00    -0.358 OA
HETATM   23  C1  UNL     1      25.315   7.938  47.037  1.00  0.00     0.209 C 
ENDBRANCH   1  22
TORSDOF 1
ENDMDL
MODEL 7
REMARK VINA RESULT:      -8.1      1.727      2.165
REMARK  1 active torsions:
REMARK  status: ('A' for Active; 'I' for Inactive)
REMARK    1  A    between atoms: O1_2  and  C2_3 
ROOT
HETATM    1  C2  UNL     1      18.894   1.811  51.813  1.00  0.00     0.072 A 
HETATM    2  C3  UNL     1      19.814   0.910  52.075  1.00  0.00     0.069 A 
HETATM    3  C4  UNL     1      21.076   1.597  52.211  1.00  0.00     0.093 A 
HETATM    4  N1  UNL     1      22.198   1.161  52.653  1.00  0.00    -0.240 NA
HETATM    5  C5  UNL     1      22.326  -0.147  53.102  1.00  0.00     0.230 C 
HETATM    6  N2  UNL     1      23.526  -0.281  53.044  1.00  0.00    -0.249 NA
HETATM    7  C6  UNL     1      24.669   0.393  52.704  1.00  0.00     0.283 A 
HETATM    8  N3  UNL     1      25.887  -0.178  53.198  1.00  0.00    -0.254 NA
HETATM    9  C7  UNL     1      26.988   0.330  53.471  1.00  0.00     0.082 A 
HETATM   10  C8  UNL     1      28.092  -0.339  53.931  1.00  0.00     0.034 A 
HETATM   11  C9  UNL     1      29.261   0.305  54.259  1.00  0.00     0.002 A 
HETATM   12  C10 UNL     1      29.322   1.662  54.120  1.00  0.00     0.002 A 
HETATM   13  C11 UNL     1      28.216   2.335  53.660  1.00  0.00     0.034 A 
HETATM   14  C12 UNL     1      27.016   1.680  53.325  1.00  0.00     0.085 A 
HETATM   15  N4  UNL     1      26.002   2.345  52.957  1.00  0.00    -0.247 NA
HETATM   16  C13 UNL     1      24.713   1.851  52.653  1.00  0.00     0.081 A 
HETATM   17  C14 UNL     1      23.878   2.874  52.466  1.00  0.00     0.034 C 
HETATM   18  C15 UNL     1      22.616   3.542  52.225  1.00  0.00     0.041 C 
HETATM   19  C16 UNL     1      21.399   3.007  52.102  1.00  0.00     0.098 A 
HETATM   20  O2  UNL     1      20.284   3.745  51.839  1.00  0.00    -0.342 OA
HETATM   21  C17 UNL     1      18.989   3.264  51.659  1.00  0.00     0.240 A 
ENDROOT
BRANCH   1  22
HETATM   22  O1  UNL     1      17.658   1.198  51.673  1.00  0.00    -0.358 OA
HETATM   23  C1  UNL     1      17.505  -0.180  51.808  1.00  0.00     0.209 C 
ENDBRANCH   1  22
TORSDOF 1
ENDMDL
MODEL 8
REMARK VINA RESULT:      -7.8      6.363      9.294
REMARK  1 active torsions:
REMARK  status: ('A' for Active; 'I' for Inactive)
REMARK    1  A    between atoms: O1_2  and  C2_3 
ROOT
HETATM    1  C2  UNL     1      26.726   9.144  47.590  1.00  0.00     0.072 A 
HETATM    2  C3  UNL     1      25.880   8.548  48.400  1.00  0.00     0.069 A 
HETATM    3  C4  UNL     1      26.380   7.219  48.658  1.00  0.00     0.093 A 
HETATM    4  N1  UNL     1      25.999   6.360  49.530  1.00  0.00    -0.240 NA
HETATM    5  C5  UNL     1      24.968   6.651  50.414  1.00  0.00     0.230 C 
HETATM    6  N2  UNL     1      24.655   5.537  50.759  1.00  0.00    -0.249 NA
HETATM    7  C6  UNL     1      24.974   4.219  50.561  1.00  0.00     0.283 A 
HETATM    8  N3  UNL     1      24.476   3.312  51.554  1.00  0.00    -0.254 NA
HETATM    9  C7  UNL     1      24.890   2.208  51.948  1.00  0.00     0.082 A 
HETATM   10  C8  UNL     1      24.307   1.426  52.910  1.00  0.00     0.034 A 
HETATM   11  C9  UNL     1      24.857   0.237  53.327  1.00  0.00     0.002 A 
HETATM   12  C10 UNL     1      26.028  -0.177  52.760  1.00  0.00     0.002 A 
HETATM   13  C11 UNL     1      26.615   0.607  51.796  1.00  0.00     0.034 A 
HETATM   14  C12 UNL     1      26.057   1.826  51.367  1.00  0.00     0.085 A 
HETATM   15  N4  UNL     1      26.660   2.544  50.515  1.00  0.00    -0.247 NA
HETATM   16  C13 UNL     1      26.274   3.816  50.033  1.00  0.00     0.081 A 
HETATM   17  C14 UNL     1      27.247   4.318  49.274  1.00  0.00     0.034 C 
HETATM   18  C15 UNL     1      27.938   5.298  48.461  1.00  0.00     0.041 C 
HETATM   19  C16 UNL     1      27.574   6.550  48.177  1.00  0.00     0.098 A 
HETATM   20  O2  UNL     1      28.299   7.370  47.364  1.00  0.00    -0.342 OA
HETATM   21  C17 UNL     1      27.973   8.671  46.987  1.00  0.00     0.240 A 
ENDROOT
BRANCH   1  22
HETATM   22  O1  UNL     1      26.288  10.430  47.311  1.00  0.00    -0.358 OA
HETATM   23  C1  UNL     1      26.407  11.462  48.239  1.00  0.00     0.209 C 
ENDBRANCH   1  22
TORSDOF 1
ENDMDL
MODEL 9
REMARK VINA RESULT:      -7.7      4.610      7.891
REMARK  1 active torsions:
REMARK  status: ('A' for Active; 'I' for Inactive)
REMARK    1  A    between atoms: O1_2  and  C2_3 
ROOT
HETATM    1  C2  UNL     1      26.687   6.455  48.359  1.00  0.00     0.072 A 
HETATM    2  C3  UNL     1      26.923   5.382  49.080  1.00  0.00     0.069 A 
HETATM    3  C4  UNL     1      25.676   4.968  49.674  1.00  0.00     0.093 A 
HETATM    4  N1  UNL     1      25.386   3.879  50.286  1.00  0.00    -0.240 NA
HETATM    5  C5  UNL     1      26.335   2.877  50.446  1.00  0.00     0.230 C 
HETATM    6  N2  UNL     1      25.843   2.254  51.356  1.00  0.00    -0.249 NA
HETATM    7  C6  UNL     1      24.753   2.241  52.187  1.00  0.00     0.283 A 
HETATM    8  N3  UNL     1      24.518   1.002  52.869  1.00  0.00    -0.254 NA
HETATM    9  C7  UNL     1      23.477   0.486  53.311  1.00  0.00     0.082 A 
HETATM   10  C8  UNL     1      23.389  -0.716  53.963  1.00  0.00     0.034 A 
HETATM   11  C9  UNL     1      22.189  -1.243  54.379  1.00  0.00     0.002 A 
HETATM   12  C10 UNL     1      21.045  -0.540  54.131  1.00  0.00     0.002 A 
HETATM   13  C11 UNL     1      21.131   0.664  53.476  1.00  0.00     0.034 A 
HETATM   14  C12 UNL     1      22.357   1.207  53.047  1.00  0.00     0.085 A 
HETATM   15  N4  UNL     1      22.386   2.295  52.398  1.00  0.00    -0.247 NA
HETATM   16  C13 UNL     1      23.517   2.934  51.840  1.00  0.00     0.081 A 
HETATM   17  C14 UNL     1      23.121   3.967  51.096  1.00  0.00     0.034 C 
HETATM   18  C15 UNL     1      23.251   5.089  50.189  1.00  0.00     0.041 C 
HETATM   19  C16 UNL     1      24.347   5.541  49.575  1.00  0.00     0.098 A 
HETATM   20  O2  UNL     1      24.348   6.638  48.765  1.00  0.00    -0.342 OA
HETATM   21  C17 UNL     1      25.447   7.196  48.119  1.00  0.00     0.240 A 
ENDROOT
BRANCH   1  22
HETATM   22  O1  UNL     1      27.861   6.893  47.764  1.00  0.00    -0.358 OA
HETATM   23  C1  UNL     1      29.066   6.216  47.937  1.00  0.00     0.209 C 
ENDBRANCH   1  22
TORSDOF 1
ENDMDL
