MODEL 1
REMARK VINA RESULT:      -7.6      0.000      0.000
REMARK  4 active torsions:
REMARK  status: ('A' for Active; 'I' for Inactive)
REMARK    1  A    between atoms: C5_5  and  S1_6 
REMARK    2  A    between atoms: S1_6  and  N1_9 
REMARK       I    between atoms: N1_9  and  C6_10 
REMARK    3  A    between atoms: C6_10  and  C7_12 
REMARK    4  A    between atoms: C7_12  and  C8_13 
ROOT
HETATM    1  N1  UNL     1      25.327   3.588  51.562  1.00  0.00    -0.250 N 
HETATM    2  C6  UNL     1      26.184   2.454  51.587  1.00  0.00     0.231 C 
HETATM    3  O3  UNL     1      26.648   1.872  50.578  1.00  0.00    -0.273 OA
HETATM    4  H6  UNL     1      24.970   4.032  52.443  1.00  0.00     0.181 HD
ENDROOT
BRANCH   1   5
HETATM    5  S1  UNL     1      24.838   4.282  50.045  1.00  0.00     0.265 S 
HETATM    6  O1  UNL     1      24.213   3.210  49.170  1.00  0.00    -0.200 OA
HETATM    7  O2  UNL     1      23.746   5.283  50.335  1.00  0.00    -0.200 OA
BRANCH   5   8
HETATM    8  C5  UNL     1      26.148   5.079  49.238  1.00  0.00     0.080 A 
HETATM    9  C4  UNL     1      25.933   6.392  48.822  1.00  0.00     0.026 A 
HETATM   10  C3  UNL     1      26.890   7.157  48.162  1.00  0.00     0.008 A 
HETATM   11  C2  UNL     1      28.122   6.592  47.901  1.00  0.00    -0.062 A 
HETATM   12  C1  UNL     1      29.105   7.451  47.194  1.00  0.00     0.048 C 
HETATM   13  C14 UNL     1      28.341   5.309  48.303  1.00  0.00     0.008 A 
HETATM   14  C13 UNL     1      27.397   4.565  48.950  1.00  0.00     0.026 A 
ENDBRANCH   5   8
ENDBRANCH   1   5
BRANCH   2  15
HETATM   15  C7  UNL     1      26.543   1.935  52.916  1.00  0.00     0.114 C 
BRANCH  15  16
HETATM   16  C8  UNL     1      27.998   1.516  53.009  1.00  0.00     0.039 A 
HETATM   17  C9  UNL     1      28.877   2.405  53.742  1.00  0.00    -0.022 A 
HETATM   18  C10 UNL     1      29.139   1.541  54.681  1.00  0.00    -0.009 A 
HETATM   19  C11 UNL     1      28.286   0.525  54.066  1.00  0.00     0.039 A 
HETATM   20  C12 UNL     1      27.132   0.187  54.990  1.00  0.00     0.032 C 
HETATM   21 BR1  UNL     1      29.240  -1.037  53.440  1.00  0.00    -0.081 Br
ENDBRANCH  15  16
ENDBRANCH   2  15
TORSDOF 4
ENDMDL
MODEL 2
REMARK VINA RESULT:      -7.4      2.889      6.937
REMARK  4 active torsions:
REMARK  status: ('A' for Active; 'I' for Inactive)
REMARK    1  A    between atoms: C5_5  and  S1_6 
REMARK    2  A    between atoms: S1_6  and  N1_9 
REMARK       I    between atoms: N1_9  and  C6_10 
REMARK    3  A    between atoms: C6_10  and  C7_12 
REMARK    4  A    between atoms: C7_12  and  C8_13 
ROOT
HETATM    1  N1  UNL     1      25.651   3.469  50.806  1.00  0.00    -0.250 N 
HETATM    2  C6  UNL     1      24.607   4.194  50.170  1.00  0.00     0.231 C 
HETATM    3  O3  UNL     1      23.391   4.124  50.465  1.00  0.00    -0.273 OA
HETATM    4  H6  UNL     1      26.654   3.570  50.514  1.00  0.00     0.181 HD
ENDROOT
BRANCH   1   5
HETATM    5  S1  UNL     1      25.290   2.375  52.108  1.00  0.00     0.265 S 
HETATM    6  O1  UNL     1      24.642   3.137  53.251  1.00  0.00    -0.200 OA
HETATM    7  O2  UNL     1      24.254   1.399  51.607  1.00  0.00    -0.200 OA
BRANCH   5   8
HETATM    8  C5  UNL     1      26.691   1.505  52.639  1.00  0.00     0.080 A 
HETATM    9  C4  UNL     1      26.654   0.115  52.531  1.00  0.00     0.026 A 
HETATM   10  C3  UNL     1      27.702  -0.715  52.917  1.00  0.00     0.008 A 
HETATM   11  C2  UNL     1      28.845  -0.140  53.435  1.00  0.00    -0.062 A 
HETATM   12  C1  UNL     1      29.931  -1.071  53.831  1.00  0.00     0.048 C 
HETATM   13  C14 UNL     1      28.889   1.218  53.545  1.00  0.00     0.008 A 
HETATM   14  C13 UNL     1      27.858   2.026  53.164  1.00  0.00     0.026 A 
ENDBRANCH   5   8
ENDBRANCH   1   5
BRANCH   2  15
HETATM   15  C7  UNL     1      25.008   5.096  49.078  1.00  0.00     0.114 C 
BRANCH  15  16
HETATM   16  C8  UNL     1      26.288   5.850  49.380  1.00  0.00     0.039 A 
HETATM   17  C9  UNL     1      27.449   5.486  48.593  1.00  0.00    -0.022 A 
HETATM   18  C10 UNL     1      27.550   6.647  48.012  1.00  0.00    -0.009 A 
HETATM   19  C11 UNL     1      26.389   7.173  48.729  1.00  0.00     0.039 A 
HETATM   20  C12 UNL     1      25.284   7.516  47.749  1.00  0.00     0.032 C 
HETATM   21 BR1  UNL     1      26.800   8.619  49.947  1.00  0.00    -0.081 Br
ENDBRANCH  15  16
ENDBRANCH   2  15
TORSDOF 4
ENDMDL
MODEL 3
REMARK VINA RESULT:      -7.2      1.675      2.229
REMARK  4 active torsions:
REMARK  status: ('A' for Active; 'I' for Inactive)
REMARK    1  A    between atoms: C5_5  and  S1_6 
REMARK    2  A    between atoms: S1_6  and  N1_9 
REMARK       I    between atoms: N1_9  and  C6_10 
REMARK    3  A    between atoms: C6_10  and  C7_12 
REMARK    4  A    between atoms: C7_12  and  C8_13 
ROOT
HETATM    1  N1  UNL     1      23.913   2.217  50.780  1.00  0.00    -0.250 N 
HETATM    2  C6  UNL     1      24.261   2.371  52.149  1.00  0.00     0.231 C 
HETATM    3  O3  UNL     1      24.272   3.455  52.777  1.00  0.00    -0.273 OA
HETATM    4  H6  UNL     1      23.922   1.279  50.307  1.00  0.00     0.181 HD
ENDROOT
BRANCH   1   5
HETATM    5  S1  UNL     1      23.455   3.600  49.832  1.00  0.00     0.265 S 
HETATM    6  O1  UNL     1      22.617   3.152  48.646  1.00  0.00    -0.200 OA
HETATM    7  O2  UNL     1      22.555   4.459  50.686  1.00  0.00    -0.200 OA
BRANCH   5   8
HETATM    8  C5  UNL     1      24.826   4.530  49.326  1.00  0.00     0.080 A 
HETATM    9  C4  UNL     1      26.065   3.889  49.331  1.00  0.00     0.026 A 
HETATM   10  C3  UNL     1      27.252   4.507  48.952  1.00  0.00     0.008 A 
HETATM   11  C2  UNL     1      27.211   5.827  48.547  1.00  0.00    -0.062 A 
HETATM   12  C1  UNL     1      28.506   6.437  48.155  1.00  0.00     0.048 C 
HETATM   13  C14 UNL     1      26.005   6.461  48.540  1.00  0.00     0.008 A 
HETATM   14  C13 UNL     1      24.844   5.848  48.913  1.00  0.00     0.026 A 
ENDBRANCH   5   8
ENDBRANCH   1   5
BRANCH   2  15
HETATM   15  C7  UNL     1      24.636   1.144  52.871  1.00  0.00     0.114 C 
BRANCH  15  16
HETATM   16  C8  UNL     1      25.871   0.479  52.294  1.00  0.00     0.039 A 
HETATM   17  C9  UNL     1      27.056   1.306  52.189  1.00  0.00    -0.022 A 
HETATM   18  C10 UNL     1      27.748   0.604  53.041  1.00  0.00    -0.009 A 
HETATM   19  C11 UNL     1      26.643  -0.327  53.262  1.00  0.00     0.039 A 
HETATM   20  C12 UNL     1      26.182  -0.251  54.705  1.00  0.00     0.032 C 
HETATM   21 BR1  UNL     1      27.001  -2.134  52.673  1.00  0.00    -0.081 Br
ENDBRANCH  15  16
ENDBRANCH   2  15
TORSDOF 4
ENDMDL
MODEL 4
REMARK VINA RESULT:      -7.2      1.535      1.895
REMARK  4 active torsions:
REMARK  status: ('A' for Active; 'I' for Inactive)
REMARK    1  A    between atoms: C5_5  and  S1_6 
REMARK    2  A    between atoms: S1_6  and  N1_9 
REMARK       I    between atoms: N1_9  and  C6_10 
REMARK    3  A    between atoms: C6_10  and  C7_12 
REMARK    4  A    between atoms: C7_12  and  C8_13 
ROOT
HETATM    1  N1  UNL     1      24.410   3.883  51.861  1.00  0.00    -0.250 N 
HETATM    2  C6  UNL     1      24.171   2.552  51.424  1.00  0.00     0.231 C 
HETATM    3  O3  UNL     1      23.855   2.217  50.259  1.00  0.00    -0.273 OA
HETATM    4  H6  UNL     1      24.672   4.102  52.854  1.00  0.00     0.181 HD
ENDROOT
BRANCH   1   5
HETATM    5  S1  UNL     1      24.273   5.209  50.746  1.00  0.00     0.265 S 
HETATM    6  O1  UNL     1      23.065   4.999  49.849  1.00  0.00    -0.200 OA
HETATM    7  O2  UNL     1      23.992   6.454  51.552  1.00  0.00    -0.200 OA
BRANCH   5   8
HETATM    8  C5  UNL     1      25.719   5.438  49.820  1.00  0.00     0.080 A 
HETATM    9  C4  UNL     1      26.074   6.751  49.511  1.00  0.00     0.026 A 
HETATM   10  C3  UNL     1      27.206   7.088  48.775  1.00  0.00     0.008 A 
HETATM   11  C2  UNL     1      28.028   6.075  48.324  1.00  0.00    -0.062 A 
HETATM   12  C1  UNL     1      29.220   6.492  47.544  1.00  0.00     0.048 C 
HETATM   13  C14 UNL     1      27.688   4.790  48.620  1.00  0.00     0.008 A 
HETATM   14  C13 UNL     1      26.577   4.466  49.343  1.00  0.00     0.026 A 
ENDBRANCH   5   8
ENDBRANCH   1   5
BRANCH   2  15
HETATM   15  C7  UNL     1      24.309   1.495  52.439  1.00  0.00     0.114 C 
BRANCH  15  16
HETATM   16  C8  UNL     1      25.745   1.039  52.619  1.00  0.00     0.039 A 
HETATM   17  C9  UNL     1      26.515   1.729  53.633  1.00  0.00    -0.022 A 
HETATM   18  C10 UNL     1      26.665   0.676  54.385  1.00  0.00    -0.009 A 
HETATM   19  C11 UNL     1      25.906  -0.164  53.461  1.00  0.00     0.039 A 
HETATM   20  C12 UNL     1      24.648  -0.674  54.136  1.00  0.00     0.032 C 
HETATM   21 BR1  UNL     1      26.946  -1.570  52.632  1.00  0.00    -0.081 Br
ENDBRANCH  15  16
ENDBRANCH   2  15
TORSDOF 4
ENDMDL
MODEL 5
REMARK VINA RESULT:      -7.2      4.171      7.619
REMARK  4 active torsions:
REMARK  status: ('A' for Active; 'I' for Inactive)
REMARK    1  A    between atoms: C5_5  and  S1_6 
REMARK    2  A    between atoms: S1_6  and  N1_9 
REMARK       I    between atoms: N1_9  and  C6_10 
REMARK    3  A    between atoms: C6_10  and  C7_12 
REMARK    4  A    between atoms: C7_12  and  C8_13 
ROOT
HETATM    1  N1  UNL     1      25.160   1.892  51.255  1.00  0.00    -0.250 N 
HETATM    2  C6  UNL     1      26.331   2.609  50.885  1.00  0.00     0.231 C 
HETATM    3  O3  UNL     1      27.398   2.643  51.541  1.00  0.00    -0.273 OA
HETATM    4  H6  UNL     1      24.294   1.902  50.662  1.00  0.00     0.181 HD
ENDROOT
BRANCH   1   5
HETATM    5  S1  UNL     1      25.130   0.963  52.724  1.00  0.00     0.265 S 
HETATM    6  O1  UNL     1      26.167  -0.144  52.650  1.00  0.00    -0.200 OA
HETATM    7  O2  UNL     1      25.562   1.874  53.847  1.00  0.00    -0.200 OA
BRANCH   5   8
HETATM    8  C5  UNL     1      23.552   0.335  53.068  1.00  0.00     0.080 A 
HETATM    9  C4  UNL     1      22.500   0.791  52.274  1.00  0.00     0.026 A 
HETATM   10  C3  UNL     1      21.182   0.377  52.433  1.00  0.00     0.008 A 
HETATM   11  C2  UNL     1      20.890  -0.536  53.427  1.00  0.00    -0.062 A 
HETATM   12  C1  UNL     1      19.468  -0.943  53.552  1.00  0.00     0.048 C 
HETATM   13  C14 UNL     1      21.911  -0.986  54.207  1.00  0.00     0.008 A 
HETATM   14  C13 UNL     1      23.203  -0.576  54.046  1.00  0.00     0.026 A 
ENDBRANCH   5   8
ENDBRANCH   1   5
BRANCH   2  15
HETATM   15  C7  UNL     1      26.263   3.367  49.626  1.00  0.00     0.114 C 
BRANCH  15  16
HETATM   16  C8  UNL     1      26.165   4.864  49.847  1.00  0.00     0.039 A 
HETATM   17  C9  UNL     1      26.672   5.706  48.782  1.00  0.00    -0.022 A 
HETATM   18  C10 UNL     1      25.511   6.226  48.499  1.00  0.00    -0.009 A 
HETATM   19  C11 UNL     1      24.842   5.445  49.539  1.00  0.00     0.039 A 
HETATM   20  C12 UNL     1      23.834   4.502  48.913  1.00  0.00     0.032 C 
HETATM   21 BR1  UNL     1      24.099   6.510  50.973  1.00  0.00    -0.081 Br
ENDBRANCH  15  16
ENDBRANCH   2  15
TORSDOF 4
ENDMDL
MODEL 6
REMARK VINA RESULT:      -7.0      4.531      6.858
REMARK  4 active torsions:
REMARK  status: ('A' for Active; 'I' for Inactive)
REMARK    1  A    between atoms: C5_5  and  S1_6 
REMARK    2  A    between atoms: S1_6  and  N1_9 
REMARK       I    between atoms: N1_9  and  C6_10 
REMARK    3  A    between atoms: C6_10  and  C7_12 
REMARK    4  A    between atoms: C7_12  and  C8_13 
ROOT
HETATM    1  N1  UNL     1      24.072   1.147  51.708  1.00  0.00    -0.250 N 
HETATM    2  C6  UNL     1      25.273   1.888  51.535  1.00  0.00     0.231 C 
HETATM    3  O3  UNL     1      25.345   3.131  51.399  1.00  0.00    -0.273 OA
HETATM    4  H6  UNL     1      24.076   0.103  51.817  1.00  0.00     0.181 HD
ENDROOT
BRANCH   1   5
HETATM    5  S1  UNL     1      22.538   1.962  51.746  1.00  0.00     0.265 S 
HETATM    6  O1  UNL     1      22.646   3.216  52.597  1.00  0.00    -0.200 OA
HETATM    7  O2  UNL     1      22.236   2.429  50.342  1.00  0.00    -0.200 OA
BRANCH   5   8
HETATM    8  C5  UNL     1      21.260   0.929  52.295  1.00  0.00     0.080 A 
HETATM    9  C4  UNL     1      20.100   0.887  51.522  1.00  0.00     0.026 A 
HETATM   10  C3  UNL     1      18.993   0.106  51.837  1.00  0.00     0.008 A 
HETATM   11  C2  UNL     1      19.037  -0.674  52.976  1.00  0.00    -0.062 A 
HETATM   12  C1  UNL     1      17.830  -1.488  53.265  1.00  0.00     0.048 C 
HETATM   13  C14 UNL     1      20.166  -0.639  53.738  1.00  0.00     0.008 A 
HETATM   14  C13 UNL     1      21.249   0.130  53.422  1.00  0.00     0.026 A 
ENDBRANCH   5   8
ENDBRANCH   1   5
BRANCH   2  15
HETATM   15  C7  UNL     1      26.523   1.112  51.515  1.00  0.00     0.114 C 
BRANCH  15  16
HETATM   16  C8  UNL     1      27.256   1.146  52.843  1.00  0.00     0.039 A 
HETATM   17  C9  UNL     1      26.442   1.373  54.020  1.00  0.00    -0.022 A 
HETATM   18  C10 UNL     1      26.685   0.204  54.541  1.00  0.00    -0.009 A 
HETATM   19  C11 UNL     1      27.541  -0.183  53.421  1.00  0.00     0.039 A 
HETATM   20  C12 UNL     1      26.937  -1.367  52.691  1.00  0.00     0.032 C 
HETATM   21 BR1  UNL     1      29.396  -0.451  53.899  1.00  0.00    -0.081 Br
ENDBRANCH  15  16
ENDBRANCH   2  15
TORSDOF 4
ENDMDL
MODEL 7
REMARK VINA RESULT:      -6.9      4.146      4.854
REMARK  4 active torsions:
REMARK  status: ('A' for Active; 'I' for Inactive)
REMARK    1  A    between atoms: C5_5  and  S1_6 
REMARK    2  A    between atoms: S1_6  and  N1_9 
REMARK       I    between atoms: N1_9  and  C6_10 
REMARK    3  A    between atoms: C6_10  and  C7_12 
REMARK    4  A    between atoms: C7_12  and  C8_13 
ROOT
HETATM    1  N1  UNL     1      22.819   3.221  52.096  1.00  0.00    -0.250 N 
HETATM    2  C6  UNL     1      22.828   1.822  51.844  1.00  0.00     0.231 C 
HETATM    3  O3  UNL     1      22.887   1.289  50.711  1.00  0.00    -0.273 OA
HETATM    4  H6  UNL     1      22.768   3.608  53.070  1.00  0.00     0.181 HD
ENDROOT
BRANCH   1   5
HETATM    5  S1  UNL     1      22.895   4.349  50.776  1.00  0.00     0.265 S 
HETATM    6  O1  UNL     1      21.877   3.964  49.716  1.00  0.00    -0.200 OA
HETATM    7  O2  UNL     1      22.468   5.697  51.304  1.00  0.00    -0.200 OA
BRANCH   5   8
HETATM    8  C5  UNL     1      24.490   4.471  50.110  1.00  0.00     0.080 A 
HETATM    9  C4  UNL     1      24.846   5.692  49.536  1.00  0.00     0.026 A 
HETATM   10  C3  UNL     1      26.090   5.938  48.962  1.00  0.00     0.008 A 
HETATM   11  C2  UNL     1      27.028   4.925  48.958  1.00  0.00    -0.062 A 
HETATM   12  C1  UNL     1      28.337   5.242  48.333  1.00  0.00     0.048 C 
HETATM   13  C14 UNL     1      26.688   3.730  49.516  1.00  0.00     0.008 A 
HETATM   14  C13 UNL     1      25.466   3.495  50.077  1.00  0.00     0.026 A 
ENDBRANCH   5   8
ENDBRANCH   1   5
BRANCH   2  15
HETATM   15  C7  UNL     1      22.760   0.944  53.023  1.00  0.00     0.114 C 
BRANCH  15  16
HETATM   16  C8  UNL     1      21.869  -0.264  52.804  1.00  0.00     0.039 A 
HETATM   17  C9  UNL     1      22.313  -1.506  53.401  1.00  0.00    -0.022 A 
HETATM   18  C10 UNL     1      21.303  -1.597  54.219  1.00  0.00    -0.009 A 
HETATM   19  C11 UNL     1      20.717  -0.351  53.726  1.00  0.00     0.039 A 
HETATM   20  C12 UNL     1      20.676   0.680  54.836  1.00  0.00     0.032 C 
HETATM   21 BR1  UNL     1      19.014  -0.577  52.836  1.00  0.00    -0.081 Br
ENDBRANCH  15  16
ENDBRANCH   2  15
TORSDOF 4
ENDMDL
MODEL 8
REMARK VINA RESULT:      -6.9      3.036      6.950
REMARK  4 active torsions:
REMARK  status: ('A' for Active; 'I' for Inactive)
REMARK    1  A    between atoms: C5_5  and  S1_6 
REMARK    2  A    between atoms: S1_6  and  N1_9 
REMARK       I    between atoms: N1_9  and  C6_10 
REMARK    3  A    between atoms: C6_10  and  C7_12 
REMARK    4  A    between atoms: C7_12  and  C8_13 
ROOT
HETATM    1  N1  UNL     1      25.029   5.288  50.907  1.00  0.00    -0.250 N 
HETATM    2  C6  UNL     1      24.686   6.653  50.708  1.00  0.00     0.231 C 
HETATM    3  O3  UNL     1      23.583   7.173  50.995  1.00  0.00    -0.273 OA
HETATM    4  H6  UNL     1      25.973   4.910  50.646  1.00  0.00     0.181 HD
ENDROOT
BRANCH   1   5
HETATM    5  S1  UNL     1      23.877   4.188  51.603  1.00  0.00     0.265 S 
HETATM    6  O1  UNL     1      23.259   4.812  52.843  1.00  0.00    -0.200 OA
HETATM    7  O2  UNL     1      22.754   4.018  50.609  1.00  0.00    -0.200 OA
BRANCH   5   8
HETATM    8  C5  UNL     1      24.576   2.641  51.950  1.00  0.00     0.080 A 
HETATM    9  C4  UNL     1      25.865   2.406  51.473  1.00  0.00     0.026 A 
HETATM   10  C3  UNL     1      26.553   1.213  51.673  1.00  0.00     0.008 A 
HETATM   11  C2  UNL     1      25.934   0.203  52.382  1.00  0.00    -0.062 A 
HETATM   12  C1  UNL     1      26.713  -1.047  52.566  1.00  0.00     0.048 C 
HETATM   13  C14 UNL     1      24.674   0.424  52.851  1.00  0.00     0.008 A 
HETATM   14  C13 UNL     1      24.005   1.597  52.651  1.00  0.00     0.026 A 
ENDBRANCH   5   8
ENDBRANCH   1   5
BRANCH   2  15
HETATM   15  C7  UNL     1      25.725   7.509  50.113  1.00  0.00     0.114 C 
BRANCH  15  16
HETATM   16  C8  UNL     1      26.300   6.930  48.834  1.00  0.00     0.039 A 
HETATM   17  C9  UNL     1      25.799   7.489  47.594  1.00  0.00    -0.022 A 
HETATM   18  C10 UNL     1      26.946   7.990  47.234  1.00  0.00    -0.009 A 
HETATM   19  C11 UNL     1      27.608   7.493  48.439  1.00  0.00     0.039 A 
HETATM   20  C12 UNL     1      28.109   8.655  49.274  1.00  0.00     0.032 C 
HETATM   21 BR1  UNL     1      28.967   6.158  48.102  1.00  0.00    -0.081 Br
ENDBRANCH  15  16
ENDBRANCH   2  15
TORSDOF 4
ENDMDL
MODEL 9
REMARK VINA RESULT:      -6.7      5.127      7.053
REMARK  4 active torsions:
REMARK  status: ('A' for Active; 'I' for Inactive)
REMARK    1  A    between atoms: C5_5  and  S1_6 
REMARK    2  A    between atoms: S1_6  and  N1_9 
REMARK       I    between atoms: N1_9  and  C6_10 
REMARK    3  A    between atoms: C6_10  and  C7_12 
REMARK    4  A    between atoms: C7_12  and  C8_13 
ROOT
HETATM    1  N1  UNL     1      30.808   6.680  47.186  1.00  0.00    -0.250 N 
HETATM    2  C6  UNL     1      31.711   6.395  48.246  1.00  0.00     0.231 C 
HETATM    3  O3  UNL     1      31.524   6.674  49.453  1.00  0.00    -0.273 OA
HETATM    4  H6  UNL     1      31.022   6.421  46.191  1.00  0.00     0.181 HD
ENDROOT
BRANCH   1   5
HETATM    5  S1  UNL     1      29.300   7.480  47.512  1.00  0.00     0.265 S 
HETATM    6  O1  UNL     1      29.534   8.646  48.457  1.00  0.00    -0.200 OA
HETATM    7  O2  UNL     1      28.813   8.078  46.215  1.00  0.00    -0.200 OA
BRANCH   5   8
HETATM    8  C5  UNL     1      28.102   6.392  48.129  1.00  0.00     0.080 A 
HETATM    9  C4  UNL     1      26.805   6.886  48.265  1.00  0.00     0.026 A 
HETATM   10  C3  UNL     1      25.740   6.131  48.747  1.00  0.00     0.008 A 
HETATM   11  C2  UNL     1      25.972   4.819  49.112  1.00  0.00    -0.062 A 
HETATM   12  C1  UNL     1      24.802   4.060  49.619  1.00  0.00     0.048 C 
HETATM   13  C14 UNL     1      27.236   4.329  48.984  1.00  0.00     0.008 A 
HETATM   14  C13 UNL     1      28.276   5.075  48.510  1.00  0.00     0.026 A 
ENDBRANCH   5   8
ENDBRANCH   1   5
BRANCH   2  15
HETATM   15  C7  UNL     1      32.963   5.716  47.875  1.00  0.00     0.114 C 
BRANCH  15  16
HETATM   16  C8  UNL     1      32.758   4.638  46.828  1.00  0.00     0.039 A 
HETATM   17  C9  UNL     1      33.394   4.859  45.545  1.00  0.00    -0.022 A 
HETATM   18  C10 UNL     1      34.195   3.837  45.648  1.00  0.00    -0.009 A 
HETATM   19  C11 UNL     1      33.659   3.475  46.960  1.00  0.00     0.039 A 
HETATM   20  C12 UNL     1      34.743   3.592  48.014  1.00  0.00     0.032 C 
HETATM   21 BR1  UNL     1      32.743   1.772  46.998  1.00  0.00    -0.081 Br
ENDBRANCH  15  16
ENDBRANCH   2  15
TORSDOF 4
ENDMDL
