MODEL 1
REMARK VINA RESULT:      -8.8      0.000      0.000
REMARK  3 active torsions:
REMARK  status: ('A' for Active; 'I' for Inactive)
REMARK    1  A    between atoms: O1_2  and  C2_3 
REMARK    2  A    between atoms: C10_13  and  C12_15 
REMARK    3  A    between atoms: C12_15  and  C14_17 
REMARK       I    between atoms: C14_17  and  N3_18 
ROOT
HETATM    1  C2  UNL     1      23.352  -0.029  53.223  1.00  0.00     0.077 A 
HETATM    2  C3  UNL     1      24.481  -0.476  53.922  1.00  0.00     0.070 A 
HETATM    3  C4  UNL     1      25.725   0.137  53.732  1.00  0.00     0.074 A 
HETATM    4  N1  UNL     1      26.863  -0.261  54.356  1.00  0.00    -0.241 NA
HETATM    5  C5  UNL     1      28.002   0.425  54.043  1.00  0.00     0.235 A 
HETATM    6  N2  UNL     1      28.110   1.474  53.162  1.00  0.00    -0.224 NA
HETATM    7  C6  UNL     1      27.013   1.897  52.526  1.00  0.00     0.138 A 
HETATM    8  C7  UNL     1      25.916   1.189  52.872  1.00  0.00     0.039 A 
HETATM    9  C8  UNL     1      24.709   1.415  52.349  1.00  0.00     0.028 A 
HETATM   10  C9  UNL     1      23.401   1.032  52.317  1.00  0.00    -0.008 A 
HETATM   11  C10 UNL     1      22.250   1.520  51.465  1.00  0.00     0.051 C 
HETATM   12  C11 UNL     1      21.495   0.309  50.932  1.00  0.00     0.029 C 
HETATM   13  C15 UNL     1      22.870   2.225  50.316  1.00  0.00     0.104 C 
HETATM   14  F1  UNL     1      21.719   2.363  49.617  1.00  0.00    -0.210 F 
HETATM   15  C16 UNL     1      23.794   2.849  49.543  1.00  0.00     0.015 C 
HETATM   16  C17 UNL     1      25.262   3.247  49.635  1.00  0.00     0.024 C 
HETATM   17  C18 UNL     1      26.505   3.354  50.245  1.00  0.00     0.141 C 
HETATM   18  N4  UNL     1      26.973   2.935  51.548  1.00  0.00    -0.367 N 
HETATM   19  H19 UNL     1      27.546   3.697  52.022  1.00  0.00     0.161 HD
ENDROOT
BRANCH  11  20
HETATM   20  C12 UNL     1      21.387   2.360  52.319  1.00  0.00     0.093 C 
HETATM   21  C13 UNL     1      19.908   2.124  52.140  1.00  0.00     0.021 C 
BRANCH  20  22
HETATM   22  C14 UNL     1      21.640   3.816  52.157  1.00  0.00     0.220 C 
HETATM   23  N3  UNL     1      20.715   4.650  51.433  1.00  0.00    -0.370 N 
HETATM   24  H14 UNL     1      19.732   5.026  51.569  1.00  0.00     0.159 HD
HETATM   25  H15 UNL     1      21.105   4.980  50.525  1.00  0.00     0.159 HD
HETATM   26  O2  UNL     1      22.623   4.422  52.608  1.00  0.00    -0.273 OA
ENDBRANCH  20  22
ENDBRANCH  11  20
BRANCH   1  27
HETATM   27  O1  UNL     1      22.099  -0.623  53.392  1.00  0.00    -0.355 OA
HETATM   28  C1  UNL     1      21.425  -0.675  54.606  1.00  0.00     0.210 C 
ENDBRANCH   1  27
TORSDOF 3
ENDMDL
MODEL 2
REMARK VINA RESULT:      -7.9      1.802      2.876
REMARK  3 active torsions:
REMARK  status: ('A' for Active; 'I' for Inactive)
REMARK    1  A    between atoms: O1_2  and  C2_3 
REMARK    2  A    between atoms: C10_13  and  C12_15 
REMARK    3  A    between atoms: C12_15  and  C14_17 
REMARK       I    between atoms: C14_17  and  N3_18 
ROOT
HETATM    1  C2  UNL     1      21.912   1.173  52.128  1.00  0.00     0.077 A 
HETATM    2  C3  UNL     1      21.909   0.140  53.074  1.00  0.00     0.070 A 
HETATM    3  C4  UNL     1      23.075  -0.185  53.777  1.00  0.00     0.074 A 
HETATM    4  N1  UNL     1      23.150  -1.188  54.688  1.00  0.00    -0.241 NA
HETATM    5  C5  UNL     1      24.369  -1.394  55.270  1.00  0.00     0.235 A 
HETATM    6  N2  UNL     1      25.522  -0.688  55.026  1.00  0.00    -0.224 NA
HETATM    7  C6  UNL     1      25.491   0.309  54.137  1.00  0.00     0.138 A 
HETATM    8  C7  UNL     1      24.266   0.472  53.593  1.00  0.00     0.039 A 
HETATM    9  C8  UNL     1      23.999   1.392  52.663  1.00  0.00     0.028 A 
HETATM   10  C9  UNL     1      23.053   1.925  51.840  1.00  0.00    -0.008 A 
HETATM   11  C10 UNL     1      23.158   2.997  50.778  1.00  0.00     0.051 C 
HETATM   12  C11 UNL     1      22.423   2.521  49.532  1.00  0.00     0.029 C 
HETATM   13  C15 UNL     1      24.602   3.103  50.454  1.00  0.00     0.104 C 
HETATM   14  F1  UNL     1      24.434   3.911  49.382  1.00  0.00    -0.210 F 
HETATM   15  C16 UNL     1      25.949   2.967  50.546  1.00  0.00     0.015 C 
HETATM   16  C17 UNL     1      26.961   2.346  51.503  1.00  0.00     0.024 C 
HETATM   17  C18 UNL     1      27.366   1.665  52.643  1.00  0.00     0.141 C 
HETATM   18  N4  UNL     1      26.613   1.096  53.740  1.00  0.00    -0.367 N 
HETATM   19  H19 UNL     1      27.047   1.340  54.680  1.00  0.00     0.161 HD
ENDROOT
BRANCH  11  20
HETATM   20  C12 UNL     1      22.552   4.228  51.324  1.00  0.00     0.093 C 
HETATM   21  C13 UNL     1      22.019   5.180  50.282  1.00  0.00     0.021 C 
BRANCH  20  22
HETATM   22  C14 UNL     1      23.469   4.990  52.213  1.00  0.00     0.220 C 
HETATM   23  N3  UNL     1      24.097   6.204  51.758  1.00  0.00    -0.370 N 
HETATM   24  H14 UNL     1      23.800   7.197  51.525  1.00  0.00     0.159 HD
HETATM   25  H15 UNL     1      25.122   6.091  51.614  1.00  0.00     0.159 HD
HETATM   26  O2  UNL     1      23.766   4.669  53.372  1.00  0.00    -0.273 OA
ENDBRANCH  20  22
ENDBRANCH  11  20
BRANCH   1  27
HETATM   27  O1  UNL     1      20.764   1.516  51.410  1.00  0.00    -0.355 OA
HETATM   28  C1  UNL     1      19.603   2.008  51.995  1.00  0.00     0.210 C 
ENDBRANCH   1  27
TORSDOF 3
ENDMDL
MODEL 3
REMARK VINA RESULT:      -7.8      2.604      5.379
REMARK  3 active torsions:
REMARK  status: ('A' for Active; 'I' for Inactive)
REMARK    1  A    between atoms: O1_2  and  C2_3 
REMARK    2  A    between atoms: C10_13  and  C12_15 
REMARK    3  A    between atoms: C12_15  and  C14_17 
REMARK       I    between atoms: C14_17  and  N3_18 
ROOT
HETATM    1  C2  UNL     1      24.271   0.173  53.686  1.00  0.00     0.077 A 
HETATM    2  C3  UNL     1      22.909  -0.155  53.651  1.00  0.00     0.070 A 
HETATM    3  C4  UNL     1      22.118   0.208  52.555  1.00  0.00     0.074 A 
HETATM    4  N1  UNL     1      20.789  -0.055  52.466  1.00  0.00    -0.241 NA
HETATM    5  C5  UNL     1      20.153   0.388  51.341  1.00  0.00     0.235 A 
HETATM    6  N2  UNL     1      20.723   1.071  50.295  1.00  0.00    -0.224 NA
HETATM    7  C6  UNL     1      22.029   1.350  50.342  1.00  0.00     0.138 A 
HETATM    8  C7  UNL     1      22.611   0.890  51.471  1.00  0.00     0.039 A 
HETATM    9  C8  UNL     1      23.903   1.070  51.749  1.00  0.00     0.028 A 
HETATM   10  C9  UNL     1      24.904   0.864  52.651  1.00  0.00    -0.008 A 
HETATM   11  C10 UNL     1      26.345   1.326  52.650  1.00  0.00     0.051 C 
HETATM   12  C11 UNL     1      26.679   1.874  54.032  1.00  0.00     0.029 C 
HETATM   13  C15 UNL     1      26.408   2.445  51.678  1.00  0.00     0.104 C 
HETATM   14  F1  UNL     1      27.667   2.823  52.001  1.00  0.00    -0.210 F 
HETATM   15  C16 UNL     1      26.066   3.289  50.672  1.00  0.00     0.015 C 
HETATM   16  C17 UNL     1      24.914   3.472  49.691  1.00  0.00     0.024 C 
HETATM   17  C18 UNL     1      23.696   3.158  49.102  1.00  0.00     0.141 C 
HETATM   18  N4  UNL     1      22.751   2.094  49.361  1.00  0.00    -0.367 N 
HETATM   19  H19 UNL     1      22.416   1.639  48.459  1.00  0.00     0.161 HD
ENDROOT
BRANCH  11  20
HETATM   20  C12 UNL     1      27.188   0.161  52.314  1.00  0.00     0.093 C 
HETATM   21  C13 UNL     1      26.424  -1.116  52.073  1.00  0.00     0.021 C 
BRANCH  20  22
HETATM   22  C14 UNL     1      28.236  -0.118  53.331  1.00  0.00     0.220 C 
HETATM   23  N3  UNL     1      29.480   0.607  53.325  1.00  0.00    -0.370 N 
HETATM   24  H14 UNL     1      29.810   1.596  53.529  1.00  0.00     0.159 HD
HETATM   25  H15 UNL     1      30.287   0.010  53.043  1.00  0.00     0.159 HD
HETATM   26  O2  UNL     1      28.143  -0.960  54.236  1.00  0.00    -0.273 OA
ENDBRANCH  20  22
ENDBRANCH  11  20
BRANCH   1  27
HETATM   27  O1  UNL     1      25.084  -0.174  54.768  1.00  0.00    -0.355 OA
HETATM   28  C1  UNL     1      24.779  -1.186  55.671  1.00  0.00     0.210 C 
ENDBRANCH   1  27
TORSDOF 3
ENDMDL
MODEL 4
REMARK VINA RESULT:      -7.8      2.047      4.267
REMARK  3 active torsions:
REMARK  status: ('A' for Active; 'I' for Inactive)
REMARK    1  A    between atoms: O1_2  and  C2_3 
REMARK    2  A    between atoms: C10_13  and  C12_15 
REMARK    3  A    between atoms: C12_15  and  C14_17 
REMARK       I    between atoms: C14_17  and  N3_18 
ROOT
HETATM    1  C2  UNL     1      25.467   2.864  50.731  1.00  0.00     0.077 A 
HETATM    2  C3  UNL     1      26.583   2.227  51.290  1.00  0.00     0.070 A 
HETATM    3  C4  UNL     1      26.423   1.133  52.149  1.00  0.00     0.074 A 
HETATM    4  N1  UNL     1      27.456   0.486  52.744  1.00  0.00    -0.241 NA
HETATM    5  C5  UNL     1      27.131  -0.548  53.576  1.00  0.00     0.235 A 
HETATM    6  N2  UNL     1      25.866  -0.995  53.870  1.00  0.00    -0.224 NA
HETATM    7  C6  UNL     1      24.820  -0.385  53.304  1.00  0.00     0.138 A 
HETATM    8  C7  UNL     1      25.194   0.626  52.491  1.00  0.00     0.039 A 
HETATM    9  C8  UNL     1      24.321   1.394  51.835  1.00  0.00     0.028 A 
HETATM   10  C9  UNL     1      24.159   2.453  50.993  1.00  0.00    -0.008 A 
HETATM   11  C10 UNL     1      22.903   3.136  50.497  1.00  0.00     0.051 C 
HETATM   12  C11 UNL     1      23.093   4.643  50.612  1.00  0.00     0.029 C 
HETATM   13  C15 UNL     1      21.827   2.730  51.434  1.00  0.00     0.104 C 
HETATM   14  F1  UNL     1      20.905   3.596  50.952  1.00  0.00    -0.210 F 
HETATM   15  C16 UNL     1      21.157   2.050  52.399  1.00  0.00     0.015 C 
HETATM   16  C17 UNL     1      21.400   0.861  53.321  1.00  0.00     0.024 C 
HETATM   17  C18 UNL     1      22.127  -0.196  53.852  1.00  0.00     0.141 C 
HETATM   18  N4  UNL     1      23.449  -0.699  53.549  1.00  0.00    -0.367 N 
HETATM   19  H19 UNL     1      23.456  -1.760  53.468  1.00  0.00     0.161 HD
ENDROOT
BRANCH  11  20
HETATM   20  C12 UNL     1      22.694   2.724  49.094  1.00  0.00     0.093 C 
HETATM   21  C13 UNL     1      22.408   3.860  48.144  1.00  0.00     0.021 C 
BRANCH  20  22
HETATM   22  C14 UNL     1      21.618   1.711  48.933  1.00  0.00     0.220 C 
HETATM   23  N3  UNL     1      20.392   2.039  48.251  1.00  0.00    -0.370 N 
HETATM   24  H14 UNL     1      20.084   2.251  47.257  1.00  0.00     0.159 HD
HETATM   25  H15 UNL     1      19.577   2.086  48.899  1.00  0.00     0.159 HD
HETATM   26  O2  UNL     1      21.669   0.545  49.351  1.00  0.00    -0.273 OA
ENDBRANCH  20  22
ENDBRANCH  11  20
BRANCH   1  27
HETATM   27  O1  UNL     1      25.597   3.958  49.873  1.00  0.00    -0.355 OA
HETATM   28  C1  UNL     1      26.758   4.254  49.168  1.00  0.00     0.210 C 
ENDBRANCH   1  27
TORSDOF 3
ENDMDL
MODEL 5
REMARK VINA RESULT:      -7.4      2.866      5.264
REMARK  3 active torsions:
REMARK  status: ('A' for Active; 'I' for Inactive)
REMARK    1  A    between atoms: O1_2  and  C2_3 
REMARK    2  A    between atoms: C10_13  and  C12_15 
REMARK    3  A    between atoms: C12_15  and  C14_17 
REMARK       I    between atoms: C14_17  and  N3_18 
ROOT
HETATM    1  C2  UNL     1      23.360   0.445  53.334  1.00  0.00     0.077 A 
HETATM    2  C3  UNL     1      22.626  -0.648  53.813  1.00  0.00     0.070 A 
HETATM    3  C4  UNL     1      21.253  -0.750  53.560  1.00  0.00     0.074 A 
HETATM    4  N1  UNL     1      20.477  -1.766  54.014  1.00  0.00    -0.241 NA
HETATM    5  C5  UNL     1      19.148  -1.706  53.702  1.00  0.00     0.235 A 
HETATM    6  N2  UNL     1      18.522  -0.722  52.977  1.00  0.00    -0.224 NA
HETATM    7  C6  UNL     1      19.250   0.297  52.511  1.00  0.00     0.138 A 
HETATM    8  C7  UNL     1      20.554   0.190  52.844  1.00  0.00     0.039 A 
HETATM    9  C8  UNL     1      21.469   1.102  52.508  1.00  0.00     0.028 A 
HETATM   10  C9  UNL     1      22.778   1.473  52.592  1.00  0.00    -0.008 A 
HETATM   11  C10 UNL     1      23.481   2.723  52.111  1.00  0.00     0.051 C 
HETATM   12  C11 UNL     1      24.389   3.227  53.226  1.00  0.00     0.029 C 
HETATM   13  C15 UNL     1      22.412   3.728  51.891  1.00  0.00     0.104 C 
HETATM   14  F1  UNL     1      23.255   4.770  51.699  1.00  0.00    -0.210 F 
HETATM   15  C16 UNL     1      21.182   4.272  51.714  1.00  0.00     0.015 C 
HETATM   16  C17 UNL     1      19.735   3.796  51.635  1.00  0.00     0.024 C 
HETATM   17  C18 UNL     1      18.715   2.855  51.643  1.00  0.00     0.141 C 
HETATM   18  N4  UNL     1      18.737   1.416  51.789  1.00  0.00    -0.367 N 
HETATM   19  H19 UNL     1      18.111   0.940  51.072  1.00  0.00     0.161 HD
ENDROOT
BRANCH  11  20
HETATM   20  C12 UNL     1      24.256   2.365  50.906  1.00  0.00     0.093 C 
HETATM   21  C13 UNL     1      25.654   2.928  50.869  1.00  0.00     0.021 C 
BRANCH  20  22
HETATM   22  C14 UNL     1      23.577   2.743  49.638  1.00  0.00     0.220 C 
HETATM   23  N3  UNL     1      22.491   1.953  49.119  1.00  0.00    -0.370 N 
HETATM   24  H14 UNL     1      21.482   1.746  49.378  1.00  0.00     0.159 HD
HETATM   25  H15 UNL     1      22.753   1.438  48.252  1.00  0.00     0.159 HD
HETATM   26  O2  UNL     1      23.868   3.727  48.941  1.00  0.00    -0.273 OA
ENDBRANCH  20  22
ENDBRANCH  11  20
BRANCH   1  27
HETATM   27  O1  UNL     1      24.730   0.573  53.574  1.00  0.00    -0.355 OA
HETATM   28  C1  UNL     1      25.680  -0.347  53.145  1.00  0.00     0.210 C 
ENDBRANCH   1  27
TORSDOF 3
ENDMDL
MODEL 6
REMARK VINA RESULT:      -7.4      2.882      4.079
REMARK  3 active torsions:
REMARK  status: ('A' for Active; 'I' for Inactive)
REMARK    1  A    between atoms: O1_2  and  C2_3 
REMARK    2  A    between atoms: C10_13  and  C12_15 
REMARK    3  A    between atoms: C12_15  and  C14_17 
REMARK       I    between atoms: C14_17  and  N3_18 
ROOT
HETATM    1  C2  UNL     1      18.868  -0.688  52.925  1.00  0.00     0.077 A 
HETATM    2  C3  UNL     1      19.587  -1.363  53.921  1.00  0.00     0.070 A 
HETATM    3  C4  UNL     1      20.948  -1.102  54.118  1.00  0.00     0.074 A 
HETATM    4  N1  UNL     1      21.709  -1.736  55.045  1.00  0.00    -0.241 NA
HETATM    5  C5  UNL     1      23.029  -1.386  55.094  1.00  0.00     0.235 A 
HETATM    6  N2  UNL     1      23.659  -0.459  54.301  1.00  0.00    -0.224 NA
HETATM    7  C6  UNL     1      22.946   0.189  53.375  1.00  0.00     0.138 A 
HETATM    8  C7  UNL     1      21.650  -0.191  53.368  1.00  0.00     0.039 A 
HETATM    9  C8  UNL     1      20.750   0.302  52.514  1.00  0.00     0.028 A 
HETATM   10  C9  UNL     1      19.456   0.264  52.091  1.00  0.00    -0.008 A 
HETATM   11  C10 UNL     1      18.772   0.974  50.942  1.00  0.00     0.051 C 
HETATM   12  C11 UNL     1      17.913  -0.035  50.191  1.00  0.00     0.029 C 
HETATM   13  C15 UNL     1      19.861   1.422  50.040  1.00  0.00     0.104 C 
HETATM   14  F1  UNL     1      19.042   1.804  49.032  1.00  0.00    -0.210 F 
HETATM   15  C16 UNL     1      21.100   1.737  49.585  1.00  0.00     0.015 C 
HETATM   16  C17 UNL     1      22.529   1.752  50.114  1.00  0.00     0.024 C 
HETATM   17  C18 UNL     1      23.524   1.577  51.067  1.00  0.00     0.141 C 
HETATM   18  N4  UNL     1      23.466   1.137  52.444  1.00  0.00    -0.367 N 
HETATM   19  H19 UNL     1      24.056   1.756  53.078  1.00  0.00     0.161 HD
ENDROOT
BRANCH  11  20
HETATM   20  C12 UNL     1      17.951   2.061  51.514  1.00  0.00     0.093 C 
HETATM   21  C13 UNL     1      16.613   2.253  50.845  1.00  0.00     0.021 C 
BRANCH  20  22
HETATM   22  C14 UNL     1      18.646   3.375  51.531  1.00  0.00     0.220 C 
HETATM   23  N3  UNL     1      18.252   4.430  50.634  1.00  0.00    -0.370 N 
HETATM   24  H14 UNL     1      17.422   5.082  50.512  1.00  0.00     0.159 HD
HETATM   25  H15 UNL     1      18.966   4.614  49.899  1.00  0.00     0.159 HD
HETATM   26  O2  UNL     1      19.587   3.672  52.283  1.00  0.00    -0.273 OA
ENDBRANCH  20  22
ENDBRANCH  11  20
BRANCH   1  27
HETATM   27  O1  UNL     1      17.510  -0.930  52.705  1.00  0.00    -0.355 OA
HETATM   28  C1  UNL     1      16.863  -2.102  53.078  1.00  0.00     0.210 C 
ENDBRANCH   1  27
TORSDOF 3
ENDMDL
MODEL 7
REMARK VINA RESULT:      -7.2      3.987      5.942
REMARK  3 active torsions:
REMARK  status: ('A' for Active; 'I' for Inactive)
REMARK    1  A    between atoms: O1_2  and  C2_3 
REMARK    2  A    between atoms: C10_13  and  C12_15 
REMARK    3  A    between atoms: C12_15  and  C14_17 
REMARK       I    between atoms: C14_17  and  N3_18 
ROOT
HETATM    1  C2  UNL     1      25.670   4.039  49.478  1.00  0.00     0.077 A 
HETATM    2  C3  UNL     1      27.057   4.005  49.284  1.00  0.00     0.070 A 
HETATM    3  C4  UNL     1      27.722   5.091  48.704  1.00  0.00     0.074 A 
HETATM    4  N1  UNL     1      29.058   5.115  48.463  1.00  0.00    -0.241 NA
HETATM    5  C5  UNL     1      29.551   6.242  47.868  1.00  0.00     0.235 A 
HETATM    6  N2  UNL     1      28.831   7.348  47.489  1.00  0.00    -0.224 NA
HETATM    7  C6  UNL     1      27.513   7.366  47.709  1.00  0.00     0.138 A 
HETATM    8  C7  UNL     1      27.077   6.233  48.300  1.00  0.00     0.039 A 
HETATM    9  C8  UNL     1      25.794   6.013  48.596  1.00  0.00     0.028 A 
HETATM   10  C9  UNL     1      24.888   5.137  49.115  1.00  0.00    -0.008 A 
HETATM   11  C10 UNL     1      23.381   5.219  49.215  1.00  0.00     0.051 C 
HETATM   12  C11 UNL     1      22.792   3.887  48.768  1.00  0.00     0.029 C 
HETATM   13  C15 UNL     1      22.968   6.261  48.243  1.00  0.00     0.104 C 
HETATM   14  F1  UNL     1      21.642   6.007  48.340  1.00  0.00    -0.210 F 
HETATM   15  C16 UNL     1      23.035   7.304  47.378  1.00  0.00     0.015 C 
HETATM   16  C17 UNL     1      24.094   8.252  46.827  1.00  0.00     0.024 C 
HETATM   17  C18 UNL     1      25.373   8.775  46.698  1.00  0.00     0.141 C 
HETATM   18  N4  UNL     1      26.625   8.417  47.327  1.00  0.00    -0.367 N 
HETATM   19  H19 UNL     1      27.154   9.276  47.666  1.00  0.00     0.161 HD
ENDROOT
BRANCH  11  20
HETATM   20  C12 UNL     1      23.042   5.513  50.622  1.00  0.00     0.093 C 
HETATM   21  C13 UNL     1      21.797   4.825  51.124  1.00  0.00     0.021 C 
BRANCH  20  22
HETATM   22  C14 UNL     1      22.906   6.966  50.903  1.00  0.00     0.220 C 
HETATM   23  N3  UNL     1      24.046   7.750  51.304  1.00  0.00    -0.370 N 
HETATM   24  H14 UNL     1      24.942   8.109  50.862  1.00  0.00     0.159 HD
HETATM   25  H15 UNL     1      23.989   8.052  52.300  1.00  0.00     0.159 HD
HETATM   26  O2  UNL     1      21.850   7.611  50.822  1.00  0.00    -0.273 OA
ENDBRANCH  20  22
ENDBRANCH  11  20
BRANCH   1  27
HETATM   27  O1  UNL     1      24.981   2.968  50.052  1.00  0.00    -0.355 OA
HETATM   28  C1  UNL     1      25.207   2.504  51.342  1.00  0.00     0.210 C 
ENDBRANCH   1  27
TORSDOF 3
ENDMDL
MODEL 8
REMARK VINA RESULT:      -7.2      2.106      4.469
REMARK  3 active torsions:
REMARK  status: ('A' for Active; 'I' for Inactive)
REMARK    1  A    between atoms: O1_2  and  C2_3 
REMARK    2  A    between atoms: C10_13  and  C12_15 
REMARK    3  A    between atoms: C12_15  and  C14_17 
REMARK       I    between atoms: C14_17  and  N3_18 
ROOT
HETATM    1  C2  UNL     1      22.027   3.508  50.558  1.00  0.00     0.077 A 
HETATM    2  C3  UNL     1      22.827   4.473  49.931  1.00  0.00     0.070 A 
HETATM    3  C4  UNL     1      24.213   4.300  49.842  1.00  0.00     0.074 A 
HETATM    4  N1  UNL     1      25.049   5.204  49.273  1.00  0.00    -0.241 NA
HETATM    5  C5  UNL     1      26.381   4.899  49.288  1.00  0.00     0.235 A 
HETATM    6  N2  UNL     1      26.955   3.771  49.822  1.00  0.00    -0.224 NA
HETATM    7  C6  UNL     1      26.167   2.854  50.392  1.00  0.00     0.138 A 
HETATM    8  C7  UNL     1      24.863   3.202  50.349  1.00  0.00     0.039 A 
HETATM    9  C8  UNL     1      23.892   2.453  50.876  1.00  0.00     0.028 A 
HETATM   10  C9  UNL     1      22.555   2.343  51.116  1.00  0.00    -0.008 A 
HETATM   11  C10 UNL     1      21.772   1.296  51.879  1.00  0.00     0.051 C 
HETATM   12  C11 UNL     1      20.779   2.003  52.792  1.00  0.00     0.029 C 
HETATM   13  C15 UNL     1      22.764   0.590  52.727  1.00  0.00     0.104 C 
HETATM   14  F1  UNL     1      21.848  -0.102  53.444  1.00  0.00    -0.210 F 
HETATM   15  C16 UNL     1      23.952   0.155  53.216  1.00  0.00     0.015 C 
HETATM   16  C17 UNL     1      25.435   0.322  52.902  1.00  0.00     0.024 C 
HETATM   17  C18 UNL     1      26.528   0.802  52.193  1.00  0.00     0.141 C 
HETATM   18  N4  UNL     1      26.617   1.661  51.032  1.00  0.00    -0.367 N 
HETATM   19  H19 UNL     1      27.310   1.284  50.318  1.00  0.00     0.161 HD
ENDROOT
BRANCH  11  20
HETATM   20  C12 UNL     1      21.082   0.444  50.889  1.00  0.00     0.093 C 
HETATM   21  C13 UNL     1      21.431   0.744  49.453  1.00  0.00     0.021 C 
BRANCH  20  22
HETATM   22  C14 UNL     1      19.601   0.479  51.016  1.00  0.00     0.220 C 
HETATM   23  N3  UNL     1      18.809   1.343  50.179  1.00  0.00    -0.370 N 
HETATM   24  H14 UNL     1      18.535   1.401  49.154  1.00  0.00     0.159 HD
HETATM   25  H15 UNL     1      18.383   2.131  50.711  1.00  0.00     0.159 HD
HETATM   26  O2  UNL     1      18.939  -0.199  51.816  1.00  0.00    -0.273 OA
ENDBRANCH  20  22
ENDBRANCH  11  20
BRANCH   1  27
HETATM   27  O1  UNL     1      20.642   3.656  50.663  1.00  0.00    -0.355 OA
HETATM   28  C1  UNL     1      19.968   4.842  50.396  1.00  0.00     0.210 C 
ENDBRANCH   1  27
TORSDOF 3
ENDMDL
MODEL 9
REMARK VINA RESULT:      -6.8     10.470     12.900
REMARK  3 active torsions:
REMARK  status: ('A' for Active; 'I' for Inactive)
REMARK    1  A    between atoms: O1_2  and  C2_3 
REMARK    2  A    between atoms: C10_13  and  C12_15 
REMARK    3  A    between atoms: C12_15  and  C14_17 
REMARK       I    between atoms: C14_17  and  N3_18 
ROOT
HETATM    1  C2  UNL     1      32.875   6.081  44.529  1.00  0.00     0.077 A 
HETATM    2  C3  UNL     1      32.556   7.206  43.757  1.00  0.00     0.070 A 
HETATM    3  C4  UNL     1      32.128   8.391  44.367  1.00  0.00     0.074 A 
HETATM    4  N1  UNL     1      31.780   9.508  43.681  1.00  0.00    -0.241 NA
HETATM    5  C5  UNL     1      31.359  10.575  44.423  1.00  0.00     0.235 A 
HETATM    6  N2  UNL     1      31.254  10.628  45.791  1.00  0.00    -0.224 NA
HETATM    7  C6  UNL     1      31.587   9.549  46.506  1.00  0.00     0.138 A 
HETATM    8  C7  UNL     1      31.998   8.525  45.727  1.00  0.00     0.039 A 
HETATM    9  C8  UNL     1      32.360   7.337  46.216  1.00  0.00     0.028 A 
HETATM   10  C9  UNL     1      32.788   6.077  45.922  1.00  0.00    -0.008 A 
HETATM   11  C10 UNL     1      33.033   4.884  46.819  1.00  0.00     0.051 C 
HETATM   12  C11 UNL     1      32.404   3.655  46.175  1.00  0.00     0.029 C 
HETATM   13  C15 UNL     1      32.307   5.171  48.080  1.00  0.00     0.104 C 
HETATM   14  F1  UNL     1      32.473   3.936  48.607  1.00  0.00    -0.210 F 
HETATM   15  C16 UNL     1      31.644   5.849  49.051  1.00  0.00     0.015 C 
HETATM   16  C17 UNL     1      31.185   7.278  49.322  1.00  0.00     0.024 C 
HETATM   17  C18 UNL     1      31.042   8.630  49.045  1.00  0.00     0.141 C 
HETATM   18  N4  UNL     1      31.483   9.433  47.925  1.00  0.00    -0.367 N 
HETATM   19  H19 UNL     1      31.925  10.346  48.247  1.00  0.00     0.161 HD
ENDROOT
BRANCH  11  20
HETATM   20  C12 UNL     1      34.495   4.727  46.964  1.00  0.00     0.093 C 
HETATM   21  C13 UNL     1      34.969   3.297  47.026  1.00  0.00     0.021 C 
BRANCH  20  22
HETATM   22  C14 UNL     1      35.047   5.443  48.144  1.00  0.00     0.220 C 
HETATM   23  N3  UNL     1      35.417   4.725  49.336  1.00  0.00    -0.370 N 
HETATM   24  H14 UNL     1      36.173   4.040  49.633  1.00  0.00     0.159 HD
HETATM   25  H15 UNL     1      34.776   4.920  50.134  1.00  0.00     0.159 HD
HETATM   26  O2  UNL     1      35.233   6.667  48.211  1.00  0.00    -0.273 OA
ENDBRANCH  20  22
ENDBRANCH  11  20
BRANCH   1  27
HETATM   27  O1  UNL     1      33.302   4.885  43.946  1.00  0.00    -0.355 OA
HETATM   28  C1  UNL     1      33.565   4.737  42.589  1.00  0.00     0.210 C 
ENDBRANCH   1  27
TORSDOF 3
ENDMDL
