MODEL 1
REMARK VINA RESULT:     -10.3      0.000      0.000
REMARK  2 active torsions:
REMARK  status: ('A' for Active; 'I' for Inactive)
REMARK    1  A    between atoms: C6_8  and  C7_9 
REMARK    2  A    between atoms: C17_20  and  O4_21 
ROOT
HETATM    1  O1  UNL     1      19.616   3.747  49.313  1.00  0.00    -0.274 OA
HETATM    2  C1  UNL     1      19.692   2.638  48.697  1.00  0.00     0.217 C 
HETATM    3  C2  UNL     1      21.130   3.033  48.473  1.00  0.00     0.106 C 
HETATM    4  C3  UNL     1      21.498   4.183  49.380  1.00  0.00     0.039 C 
HETATM    5  C4  UNL     1      22.941   4.432  49.279  1.00  0.00     0.012 C 
HETATM    6  C5  UNL     1      24.117   3.980  49.742  1.00  0.00     0.086 A 
HETATM    7  O2  UNL     1      25.048   4.695  49.201  1.00  0.00    -0.309 OA
HETATM    8  C6  UNL     1      26.323   4.667  49.312  1.00  0.00     0.090 A 
HETATM    9  C13 UNL     1      26.800   3.714  50.156  1.00  0.00     0.093 A 
HETATM   10  C14 UNL     1      25.856   2.892  50.784  1.00  0.00     0.187 A 
HETATM   11  O3  UNL     1      26.559   2.083  51.519  1.00  0.00    -0.287 OA
HETATM   12  C15 UNL     1      24.444   2.980  50.612  1.00  0.00     0.046 A 
HETATM   13  C16 UNL     1      24.063   1.964  51.402  1.00  0.00     0.023 C 
HETATM   14  C17 UNL     1      22.706   1.452  51.641  1.00  0.00     0.142 C 
HETATM   15  C18 UNL     1      22.755   0.168  52.458  1.00  0.00     0.036 C 
HETATM   16  C19 UNL     1      21.438  -0.489  52.650  1.00  0.00     0.003 C 
HETATM   17  C20 UNL     1      20.419   0.195  53.484  1.00  0.00     0.000 C 
HETATM   18  C21 UNL     1      19.085  -0.586  53.318  1.00  0.00     0.000 C 
HETATM   19  C22 UNL     1      18.556  -0.219  51.981  1.00  0.00     0.000 C 
HETATM   20  C23 UNL     1      17.316  -0.935  51.519  1.00  0.00     0.000 C 
HETATM   21  C24 UNL     1      16.914  -0.142  50.232  1.00  0.00     0.000 C 
HETATM   22  C25 UNL     1      16.257   1.105  50.679  1.00  0.00     0.002 C 
HETATM   23  C26 UNL     1      16.146   2.251  49.711  1.00  0.00     0.020 C 
HETATM   24  C27 UNL     1      17.473   2.939  49.514  1.00  0.00     0.122 C 
HETATM   25  N1  UNL     1      18.389   2.095  48.801  1.00  0.00    -0.361 N 
HETATM   26  H35 UNL     1      18.962   1.410  48.278  1.00  0.00     0.162 HD
ENDROOT
BRANCH   8  27
HETATM   27  C7  UNL     1      27.204   5.578  48.592  1.00  0.00    -0.002 A 
HETATM   28  C8  UNL     1      26.788   6.794  48.082  1.00  0.00     0.014 A 
HETATM   29  C9  UNL     1      27.638   7.666  47.419  1.00  0.00     0.001 A 
HETATM   30  C10 UNL     1      28.977   7.298  47.260  1.00  0.00     0.000 A 
HETATM   31  C11 UNL     1      29.400   6.107  47.755  1.00  0.00     0.001 A 
HETATM   32  C12 UNL     1      28.518   5.266  48.410  1.00  0.00     0.014 A 
ENDBRANCH   8  27
BRANCH  14  33
HETATM   33  O4  UNL     1      22.022   2.387  52.388  1.00  0.00    -0.392 OA
HETATM   34  H14 UNL     1      21.072   2.148  52.444  1.00  0.00     0.210 HD
ENDBRANCH  14  33
TORSDOF 2
ENDMDL
MODEL 2
REMARK VINA RESULT:     -10.3      3.782      5.542
REMARK  2 active torsions:
REMARK  status: ('A' for Active; 'I' for Inactive)
REMARK    1  A    between atoms: C6_8  and  C7_9 
REMARK    2  A    between atoms: C17_20  and  O4_21 
ROOT
HETATM    1  O1  UNL     1      21.147   3.358  48.865  1.00  0.00    -0.274 OA
HETATM    2  C1  UNL     1      20.851   2.328  48.182  1.00  0.00     0.217 C 
HETATM    3  C2  UNL     1      21.905   1.652  49.024  1.00  0.00     0.106 C 
HETATM    4  C3  UNL     1      22.252   2.519  50.211  1.00  0.00     0.039 C 
HETATM    5  C4  UNL     1      23.139   1.770  51.110  1.00  0.00     0.012 C 
HETATM    6  C5  UNL     1      23.108   0.841  52.078  1.00  0.00     0.086 A 
HETATM    7  O2  UNL     1      24.327   0.623  52.446  1.00  0.00    -0.309 OA
HETATM    8  C6  UNL     1      24.829  -0.161  53.326  1.00  0.00     0.090 A 
HETATM    9  C13 UNL     1      23.921  -0.909  54.007  1.00  0.00     0.093 A 
HETATM   10  C14 UNL     1      22.573  -0.736  53.666  1.00  0.00     0.187 A 
HETATM   11  O3  UNL     1      21.928  -1.551  54.446  1.00  0.00    -0.287 OA
HETATM   12  C15 UNL     1      22.084   0.160  52.671  1.00  0.00     0.046 A 
HETATM   13  C16 UNL     1      20.773  -0.113  52.756  1.00  0.00     0.023 C 
HETATM   14  C17 UNL     1      19.672   0.432  51.947  1.00  0.00     0.142 C 
HETATM   15  C18 UNL     1      18.371  -0.297  52.255  1.00  0.00     0.036 C 
HETATM   16  C19 UNL     1      17.226   0.103  51.401  1.00  0.00     0.003 C 
HETATM   17  C20 UNL     1      16.680   1.476  51.542  1.00  0.00     0.000 C 
HETATM   18  C21 UNL     1      15.668   1.694  50.383  1.00  0.00     0.000 C 
HETATM   19  C22 UNL     1      16.480   1.906  49.160  1.00  0.00     0.000 C 
HETATM   20  C23 UNL     1      15.735   2.028  47.859  1.00  0.00     0.000 C 
HETATM   21  C24 UNL     1      16.848   2.484  46.860  1.00  0.00     0.000 C 
HETATM   22  C25 UNL     1      17.068   3.929  47.087  1.00  0.00     0.002 C 
HETATM   23  C26 UNL     1      18.344   4.552  46.594  1.00  0.00     0.020 C 
HETATM   24  C27 UNL     1      19.518   4.167  47.459  1.00  0.00     0.122 C 
HETATM   25  N1  UNL     1      19.840   2.777  47.301  1.00  0.00    -0.361 N 
HETATM   26  H35 UNL     1      19.986   1.771  47.106  1.00  0.00     0.162 HD
ENDROOT
BRANCH   8  27
HETATM   27  C7  UNL     1      26.261  -0.257  53.581  1.00  0.00    -0.002 A 
HETATM   28  C8  UNL     1      26.905   0.463  54.572  1.00  0.00     0.014 A 
HETATM   29  C9  UNL     1      28.264   0.348  54.825  1.00  0.00     0.001 A 
HETATM   30  C10 UNL     1      29.015  -0.535  54.043  1.00  0.00     0.000 A 
HETATM   31  C11 UNL     1      28.396  -1.246  53.067  1.00  0.00     0.001 A 
HETATM   32  C12 UNL     1      27.038  -1.102  52.847  1.00  0.00     0.014 A 
ENDBRANCH   8  27
BRANCH  14  33
HETATM   33  O4  UNL     1      19.496   1.752  52.300  1.00  0.00    -0.392 OA
HETATM   34  H14 UNL     1      19.887   2.341  51.618  1.00  0.00     0.210 HD
ENDBRANCH  14  33
TORSDOF 2
ENDMDL
MODEL 3
REMARK VINA RESULT:     -10.2      3.157      5.804
REMARK  2 active torsions:
REMARK  status: ('A' for Active; 'I' for Inactive)
REMARK    1  A    between atoms: C6_8  and  C7_9 
REMARK    2  A    between atoms: C17_20  and  O4_21 
ROOT
HETATM    1  O1  UNL     1      23.057   4.702  48.991  1.00  0.00    -0.274 OA
HETATM    2  C1  UNL     1      22.535   3.841  48.216  1.00  0.00     0.217 C 
HETATM    3  C2  UNL     1      23.412   2.863  48.957  1.00  0.00     0.106 C 
HETATM    4  C3  UNL     1      23.949   3.501  50.215  1.00  0.00     0.039 C 
HETATM    5  C4  UNL     1      24.648   2.483  51.010  1.00  0.00     0.012 C 
HETATM    6  C5  UNL     1      24.410   1.488  51.879  1.00  0.00     0.086 A 
HETATM    7  O2  UNL     1      25.551   0.966  52.191  1.00  0.00    -0.309 OA
HETATM    8  C6  UNL     1      25.866   0.002  52.973  1.00  0.00     0.090 A 
HETATM    9  C13 UNL     1      24.814  -0.590  53.599  1.00  0.00     0.093 A 
HETATM   10  C14 UNL     1      23.539  -0.086  53.314  1.00  0.00     0.187 A 
HETATM   11  O3  UNL     1      22.730  -0.812  54.024  1.00  0.00    -0.287 OA
HETATM   12  C15 UNL     1      23.261   0.996  52.428  1.00  0.00     0.046 A 
HETATM   13  C16 UNL     1      21.923   1.016  52.520  1.00  0.00     0.023 C 
HETATM   14  C17 UNL     1      20.971   1.875  51.800  1.00  0.00     0.142 C 
HETATM   15  C18 UNL     1      19.540   1.428  52.067  1.00  0.00     0.036 C 
HETATM   16  C19 UNL     1      18.511   2.161  51.288  1.00  0.00     0.003 C 
HETATM   17  C20 UNL     1      18.290   3.599  51.583  1.00  0.00     0.000 C 
HETATM   18  C21 UNL     1      17.349   4.157  50.479  1.00  0.00     0.000 C 
HETATM   19  C22 UNL     1      18.185   4.309  49.263  1.00  0.00     0.000 C 
HETATM   20  C23 UNL     1      17.481   4.730  48.000  1.00  0.00     0.000 C 
HETATM   21  C24 UNL     1      18.666   5.027  47.023  1.00  0.00     0.000 C 
HETATM   22  C25 UNL     1      19.206   6.354  47.389  1.00  0.00     0.002 C 
HETATM   23  C26 UNL     1      20.589   6.723  46.928  1.00  0.00     0.020 C 
HETATM   24  C27 UNL     1      21.648   5.997  47.718  1.00  0.00     0.122 C 
HETATM   25  N1  UNL     1      21.647   4.595  47.412  1.00  0.00    -0.361 N 
HETATM   26  H35 UNL     1      21.563   3.608  47.112  1.00  0.00     0.162 HD
ENDROOT
BRANCH   8  27
HETATM   27  C7  UNL     1      27.240  -0.438  53.180  1.00  0.00    -0.002 A 
HETATM   28  C8  UNL     1      27.677  -1.722  52.904  1.00  0.00     0.014 A 
HETATM   29  C9  UNL     1      28.991  -2.126  53.081  1.00  0.00     0.001 A 
HETATM   30  C10 UNL     1      29.916  -1.193  53.559  1.00  0.00     0.000 A 
HETATM   31  C11 UNL     1      29.502   0.070  53.835  1.00  0.00     0.001 A 
HETATM   32  C12 UNL     1      28.180   0.432  53.645  1.00  0.00     0.014 A 
ENDBRANCH   8  27
BRANCH  14  33
HETATM   33  O4  UNL     1      21.098   3.157  52.289  1.00  0.00    -0.392 OA
HETATM   34  H14 UNL     1      21.428   3.136  53.213  1.00  0.00     0.210 HD
ENDBRANCH  14  33
TORSDOF 2
ENDMDL
MODEL 4
REMARK VINA RESULT:      -9.6      2.168      3.866
REMARK  2 active torsions:
REMARK  status: ('A' for Active; 'I' for Inactive)
REMARK    1  A    between atoms: C6_8  and  C7_9 
REMARK    2  A    between atoms: C17_20  and  O4_21 
ROOT
HETATM    1  O1  UNL     1      21.568   5.077  49.885  1.00  0.00    -0.274 OA
HETATM    2  C1  UNL     1      21.589   4.044  49.145  1.00  0.00     0.217 C 
HETATM    3  C2  UNL     1      22.662   4.790  48.392  1.00  0.00     0.106 C 
HETATM    4  C3  UNL     1      23.149   5.962  49.211  1.00  0.00     0.039 C 
HETATM    5  C4  UNL     1      24.311   6.564  48.547  1.00  0.00     0.012 C 
HETATM    6  C5  UNL     1      25.635   6.400  48.400  1.00  0.00     0.086 A 
HETATM    7  O2  UNL     1      26.058   7.342  47.623  1.00  0.00    -0.309 OA
HETATM    8  C6  UNL     1      27.226   7.627  47.179  1.00  0.00     0.090 A 
HETATM    9  C13 UNL     1      28.213   6.792  47.599  1.00  0.00     0.093 A 
HETATM   10  C14 UNL     1      27.839   5.739  48.444  1.00  0.00     0.187 A 
HETATM   11  O3  UNL     1      28.944   5.104  48.691  1.00  0.00    -0.287 OA
HETATM   12  C15 UNL     1      26.512   5.481  48.899  1.00  0.00     0.046 A 
HETATM   13  C16 UNL     1      26.741   4.376  49.624  1.00  0.00     0.023 C 
HETATM   14  C17 UNL     1      25.769   3.536  50.340  1.00  0.00     0.142 C 
HETATM   15  C18 UNL     1      26.439   2.275  50.869  1.00  0.00     0.036 C 
HETATM   16  C19 UNL     1      25.512   1.306  51.505  1.00  0.00     0.003 C 
HETATM   17  C20 UNL     1      24.853   1.687  52.779  1.00  0.00     0.000 C 
HETATM   18  C21 UNL     1      23.777   0.607  53.083  1.00  0.00     0.000 C 
HETATM   19  C22 UNL     1      22.647   0.879  52.162  1.00  0.00     0.000 C 
HETATM   20  C23 UNL     1      21.507  -0.104  52.172  1.00  0.00     0.000 C 
HETATM   21  C24 UNL     1      20.422   0.610  51.301  1.00  0.00     0.000 C 
HETATM   22  C25 UNL     1      19.791   1.639  52.155  1.00  0.00     0.002 C 
HETATM   23  C26 UNL     1      19.028   2.756  51.497  1.00  0.00     0.020 C 
HETATM   24  C27 UNL     1      19.955   3.757  50.857  1.00  0.00     0.122 C 
HETATM   25  N1  UNL     1      20.612   3.193  49.712  1.00  0.00    -0.361 N 
HETATM   26  H35 UNL     1      21.020   2.689  48.905  1.00  0.00     0.162 HD
ENDROOT
BRANCH   8  27
HETATM   27  C7  UNL     1      27.487   8.752  46.291  1.00  0.00    -0.002 A 
HETATM   28  C8  UNL     1      27.524  10.067  46.721  1.00  0.00     0.014 A 
HETATM   29  C9  UNL     1      27.797  11.130  45.874  1.00  0.00     0.001 A 
HETATM   30  C10 UNL     1      28.045  10.860  44.525  1.00  0.00     0.000 A 
HETATM   31  C11 UNL     1      28.010   9.576  44.089  1.00  0.00     0.001 A 
HETATM   32  C12 UNL     1      27.734   8.543  44.968  1.00  0.00     0.014 A 
ENDBRANCH   8  27
BRANCH  14  33
HETATM   33  O4  UNL     1      25.312   4.245  51.430  1.00  0.00    -0.392 OA
HETATM   34  H14 UNL     1      24.367   4.480  51.309  1.00  0.00     0.210 HD
ENDBRANCH  14  33
TORSDOF 2
ENDMDL
MODEL 5
REMARK VINA RESULT:      -9.6      2.120      4.473
REMARK  2 active torsions:
REMARK  status: ('A' for Active; 'I' for Inactive)
REMARK    1  A    between atoms: C6_8  and  C7_9 
REMARK    2  A    between atoms: C17_20  and  O4_21 
ROOT
HETATM    1  O1  UNL     1      24.751   1.051  52.234  1.00  0.00    -0.274 OA
HETATM    2  C1  UNL     1      24.056   1.748  53.039  1.00  0.00     0.217 C 
HETATM    3  C2  UNL     1      24.741   2.919  52.379  1.00  0.00     0.106 C 
HETATM    4  C3  UNL     1      25.417   2.472  51.105  1.00  0.00     0.039 C 
HETATM    5  C4  UNL     1      25.919   3.650  50.389  1.00  0.00     0.012 C 
HETATM    6  C5  UNL     1      25.511   4.630  49.568  1.00  0.00     0.086 A 
HETATM    7  O2  UNL     1      26.534   5.380  49.320  1.00  0.00    -0.309 OA
HETATM    8  C6  UNL     1      26.671   6.432  48.601  1.00  0.00     0.090 A 
HETATM    9  C13 UNL     1      25.538   6.846  47.976  1.00  0.00     0.093 A 
HETATM   10  C14 UNL     1      24.379   6.089  48.194  1.00  0.00     0.187 A 
HETATM   11  O3  UNL     1      23.458   6.686  47.500  1.00  0.00    -0.287 OA
HETATM   12  C15 UNL     1      24.299   4.923  49.011  1.00  0.00     0.046 A 
HETATM   13  C16 UNL     1      22.993   4.651  48.877  1.00  0.00     0.023 C 
HETATM   14  C17 UNL     1      22.211   3.584  49.520  1.00  0.00     0.142 C 
HETATM   15  C18 UNL     1      20.726   3.762  49.233  1.00  0.00     0.036 C 
HETATM   16  C19 UNL     1      19.844   2.799  49.939  1.00  0.00     0.003 C 
HETATM   17  C20 UNL     1      19.912   1.366  49.561  1.00  0.00     0.000 C 
HETATM   18  C21 UNL     1      19.076   0.572  50.603  1.00  0.00     0.000 C 
HETATM   19  C22 UNL     1      19.901   0.513  51.835  1.00  0.00     0.000 C 
HETATM   20  C23 UNL     1      19.268  -0.110  53.050  1.00  0.00     0.000 C 
HETATM   21  C24 UNL     1      20.468  -0.230  54.046  1.00  0.00     0.000 C 
HETATM   22  C25 UNL     1      21.263  -1.404  53.625  1.00  0.00     0.002 C 
HETATM   23  C26 UNL     1      22.681  -1.527  54.108  1.00  0.00     0.020 C 
HETATM   24  C27 UNL     1      23.595  -0.564  53.392  1.00  0.00     0.122 C 
HETATM   25  N1  UNL     1      23.316   0.791  53.773  1.00  0.00    -0.361 N 
HETATM   26  H35 UNL     1      23.036   1.724  54.123  1.00  0.00     0.162 HD
ENDROOT
BRANCH   8  27
HETATM   27  C7  UNL     1      27.937   7.139  48.461  1.00  0.00    -0.002 A 
HETATM   28  C8  UNL     1      28.160   8.407  48.969  1.00  0.00     0.014 A 
HETATM   29  C9  UNL     1      29.375   9.065  48.852  1.00  0.00     0.001 A 
HETATM   30  C10 UNL     1      30.422   8.415  48.192  1.00  0.00     0.000 A 
HETATM   31  C11 UNL     1      30.219   7.172  47.688  1.00  0.00     0.001 A 
HETATM   32  C12 UNL     1      28.990   6.551  47.826  1.00  0.00     0.014 A 
ENDBRANCH   8  27
BRANCH  14  33
HETATM   33  O4  UNL     1      22.594   2.382  48.967  1.00  0.00    -0.392 OA
HETATM   34  H14 UNL     1      21.897   1.705  49.110  1.00  0.00     0.210 HD
ENDBRANCH  14  33
TORSDOF 2
ENDMDL
MODEL 6
REMARK VINA RESULT:      -9.5      3.235      9.037
REMARK  2 active torsions:
REMARK  status: ('A' for Active; 'I' for Inactive)
REMARK    1  A    between atoms: C6_8  and  C7_9 
REMARK    2  A    between atoms: C17_20  and  O4_21 
ROOT
HETATM    1  O1  UNL     1      25.740   6.767  49.579  1.00  0.00    -0.274 OA
HETATM    2  C1  UNL     1      26.346   6.167  48.637  1.00  0.00     0.217 C 
HETATM    3  C2  UNL     1      25.883   4.915  49.340  1.00  0.00     0.106 C 
HETATM    4  C3  UNL     1      24.819   5.256  50.356  1.00  0.00     0.039 C 
HETATM    5  C4  UNL     1      24.255   4.013  50.897  1.00  0.00     0.012 C 
HETATM    6  C5  UNL     1      23.360   3.056  50.608  1.00  0.00     0.086 A 
HETATM    7  O2  UNL     1      23.380   2.201  51.577  1.00  0.00    -0.309 OA
HETATM    8  C6  UNL     1      22.722   1.121  51.781  1.00  0.00     0.090 A 
HETATM    9  C13 UNL     1      21.833   0.804  50.803  1.00  0.00     0.093 A 
HETATM   10  C14 UNL     1      21.750   1.678  49.711  1.00  0.00     0.187 A 
HETATM   11  O3  UNL     1      20.848   1.155  48.937  1.00  0.00    -0.287 OA
HETATM   12  C15 UNL     1      22.518   2.869  49.550  1.00  0.00     0.046 A 
HETATM   13  C16 UNL     1      22.058   3.265  48.354  1.00  0.00     0.023 C 
HETATM   14  C17 UNL     1      22.481   4.423  47.551  1.00  0.00     0.142 C 
HETATM   15  C18 UNL     1      21.830   4.385  46.175  1.00  0.00     0.036 C 
HETATM   16  C19 UNL     1      22.289   5.450  45.249  1.00  0.00     0.003 C 
HETATM   17  C20 UNL     1      21.935   6.858  45.557  1.00  0.00     0.000 C 
HETATM   18  C21 UNL     1      22.732   7.761  44.573  1.00  0.00     0.000 C 
HETATM   19  C22 UNL     1      24.131   7.773  45.066  1.00  0.00     0.000 C 
HETATM   20  C23 UNL     1      25.146   8.490  44.216  1.00  0.00     0.000 C 
HETATM   21  C24 UNL     1      26.411   8.519  45.135  1.00  0.00     0.000 C 
HETATM   22  C25 UNL     1      26.201   9.596  46.127  1.00  0.00     0.002 C 
HETATM   23  C26 UNL     1      27.025   9.591  47.385  1.00  0.00     0.020 C 
HETATM   24  C27 UNL     1      26.565   8.522  48.344  1.00  0.00     0.122 C 
HETATM   25  N1  UNL     1      26.867   7.213  47.840  1.00  0.00    -0.361 N 
HETATM   26  H35 UNL     1      27.138   6.323  47.386  1.00  0.00     0.162 HD
ENDROOT
BRANCH   8  27
HETATM   27  C7  UNL     1      22.907   0.287  52.961  1.00  0.00    -0.002 A 
HETATM   28  C8  UNL     1      24.148  -0.127  53.413  1.00  0.00     0.014 A 
HETATM   29  C9  UNL     1      24.318  -0.900  54.551  1.00  0.00     0.001 A 
HETATM   30  C10 UNL     1      23.182  -1.278  55.274  1.00  0.00     0.000 A 
HETATM   31  C11 UNL     1      21.959  -0.880  54.843  1.00  0.00     0.001 A 
HETATM   32  C12 UNL     1      21.834  -0.108  53.702  1.00  0.00     0.014 A 
ENDBRANCH   8  27
BRANCH  14  33
HETATM   33  O4  UNL     1      22.038   5.565  48.183  1.00  0.00    -0.392 OA
HETATM   34  H14 UNL     1      22.779   6.199  48.294  1.00  0.00     0.210 HD
ENDBRANCH  14  33
TORSDOF 2
ENDMDL
MODEL 7
REMARK VINA RESULT:      -9.5      3.739      5.633
REMARK  2 active torsions:
REMARK  status: ('A' for Active; 'I' for Inactive)
REMARK    1  A    between atoms: C6_8  and  C7_9 
REMARK    2  A    between atoms: C17_20  and  O4_21 
ROOT
HETATM    1  O1  UNL     1      19.400  -1.536  52.870  1.00  0.00    -0.274 OA
HETATM    2  C1  UNL     1      18.865  -0.889  53.824  1.00  0.00     0.217 C 
HETATM    3  C2  UNL     1      20.260  -0.364  54.051  1.00  0.00     0.106 C 
HETATM    4  C3  UNL     1      21.130  -0.675  52.856  1.00  0.00     0.039 C 
HETATM    5  C4  UNL     1      22.426  -0.002  53.016  1.00  0.00     0.012 C 
HETATM    6  C5  UNL     1      23.012   1.194  52.853  1.00  0.00     0.086 A 
HETATM    7  O2  UNL     1      24.245   1.075  53.220  1.00  0.00    -0.309 OA
HETATM    8  C6  UNL     1      25.213   1.913  53.256  1.00  0.00     0.090 A 
HETATM    9  C13 UNL     1      24.898   3.165  52.830  1.00  0.00     0.093 A 
HETATM   10  C14 UNL     1      23.577   3.382  52.417  1.00  0.00     0.187 A 
HETATM   11  O3  UNL     1      23.541   4.633  52.068  1.00  0.00    -0.287 OA
HETATM   12  C15 UNL     1      22.547   2.397  52.404  1.00  0.00     0.046 A 
HETATM   13  C16 UNL     1      21.529   3.150  51.961  1.00  0.00     0.023 C 
HETATM   14  C17 UNL     1      20.123   2.764  51.766  1.00  0.00     0.142 C 
HETATM   15  C18 UNL     1      19.275   3.984  51.432  1.00  0.00     0.036 C 
HETATM   16  C19 UNL     1      17.820   3.712  51.334  1.00  0.00     0.003 C 
HETATM   17  C20 UNL     1      17.329   2.862  50.220  1.00  0.00     0.000 C 
HETATM   18  C21 UNL     1      15.832   2.554  50.498  1.00  0.00     0.000 C 
HETATM   19  C22 UNL     1      15.813   1.534  51.575  1.00  0.00     0.000 C 
HETATM   20  C23 UNL     1      14.466   1.140  52.118  1.00  0.00     0.000 C 
HETATM   21  C24 UNL     1      14.800  -0.093  53.020  1.00  0.00     0.000 C 
HETATM   22  C25 UNL     1      14.986  -1.250  52.119  1.00  0.00     0.002 C 
HETATM   23  C26 UNL     1      15.721  -2.456  52.635  1.00  0.00     0.020 C 
HETATM   24  C27 UNL     1      17.205  -2.203  52.729  1.00  0.00     0.122 C 
HETATM   25  N1  UNL     1      17.501  -1.263  53.772  1.00  0.00    -0.361 N 
HETATM   26  H35 UNL     1      17.600  -0.586  54.549  1.00  0.00     0.162 HD
ENDROOT
BRANCH   8  27
HETATM   27  C7  UNL     1      26.550   1.565  53.720  1.00  0.00    -0.002 A 
HETATM   28  C8  UNL     1      26.827   0.424  54.452  1.00  0.00     0.014 A 
HETATM   29  C9  UNL     1      28.106   0.087  54.869  1.00  0.00     0.001 A 
HETATM   30  C10 UNL     1      29.162   0.940  54.533  1.00  0.00     0.000 A 
HETATM   31  C11 UNL     1      28.905   2.062  53.816  1.00  0.00     0.001 A 
HETATM   32  C12 UNL     1      27.614   2.362  53.419  1.00  0.00     0.014 A 
ENDBRANCH   8  27
BRANCH  14  33
HETATM   33  O4  UNL     1      20.060   1.912  50.685  1.00  0.00    -0.392 OA
HETATM   34  H14 UNL     1      20.462   2.335  49.895  1.00  0.00     0.210 HD
ENDBRANCH  14  33
TORSDOF 2
ENDMDL
MODEL 8
REMARK VINA RESULT:      -9.4      3.438     10.670
REMARK  2 active torsions:
REMARK  status: ('A' for Active; 'I' for Inactive)
REMARK    1  A    between atoms: C6_8  and  C7_9 
REMARK    2  A    between atoms: C17_20  and  O4_21 
ROOT
HETATM    1  O1  UNL     1      23.465  -0.545  54.364  1.00  0.00    -0.274 OA
HETATM    2  C1  UNL     1      23.904  -0.895  53.224  1.00  0.00     0.217 C 
HETATM    3  C2  UNL     1      22.533  -1.500  53.050  1.00  0.00     0.106 C 
HETATM    4  C3  UNL     1      21.597  -0.977  54.113  1.00  0.00     0.039 C 
HETATM    5  C4  UNL     1      20.233  -1.433  53.820  1.00  0.00     0.012 C 
HETATM    6  C5  UNL     1      19.172  -1.138  53.053  1.00  0.00     0.086 A 
HETATM    7  O2  UNL     1      18.254  -2.011  53.308  1.00  0.00    -0.309 OA
HETATM    8  C6  UNL     1      17.069  -2.168  52.848  1.00  0.00     0.090 A 
HETATM    9  C13 UNL     1      16.693  -1.250  51.919  1.00  0.00     0.093 A 
HETATM   10  C14 UNL     1      17.632  -0.266  51.581  1.00  0.00     0.187 A 
HETATM   11  O3  UNL     1      17.037   0.468  50.691  1.00  0.00    -0.287 OA
HETATM   12  C15 UNL     1      18.941  -0.153  52.137  1.00  0.00     0.046 A 
HETATM   13  C16 UNL     1      19.381   0.909  51.445  1.00  0.00     0.023 C 
HETATM   14  C17 UNL     1      20.709   1.539  51.485  1.00  0.00     0.142 C 
HETATM   15  C18 UNL     1      20.832   2.597  50.396  1.00  0.00     0.036 C 
HETATM   16  C19 UNL     1      22.180   3.206  50.281  1.00  0.00     0.003 C 
HETATM   17  C20 UNL     1      22.671   4.059  51.392  1.00  0.00     0.000 C 
HETATM   18  C21 UNL     1      24.171   4.359  51.117  1.00  0.00     0.000 C 
HETATM   19  C22 UNL     1      24.908   3.116  51.452  1.00  0.00     0.000 C 
HETATM   20  C23 UNL     1      26.385   3.101  51.162  1.00  0.00     0.000 C 
HETATM   21  C24 UNL     1      26.863   1.782  51.854  1.00  0.00     0.000 C 
HETATM   22  C25 UNL     1      26.958   2.062  53.302  1.00  0.00     0.002 C 
HETATM   23  C26 UNL     1      26.975   0.905  54.262  1.00  0.00     0.020 C 
HETATM   24  C27 UNL     1      25.610   0.281  54.402  1.00  0.00     0.122 C 
HETATM   25  N1  UNL     1      25.228  -0.398  53.197  1.00  0.00    -0.361 N 
HETATM   26  H35 UNL     1      25.060  -0.860  52.286  1.00  0.00     0.162 HD
ENDROOT
BRANCH   8  27
HETATM   27  C7  UNL     1      16.186  -3.245  53.276  1.00  0.00    -0.002 A 
HETATM   28  C8  UNL     1      14.831  -3.272  52.999  1.00  0.00     0.014 A 
HETATM   29  C9  UNL     1      14.001  -4.312  53.389  1.00  0.00     0.001 A 
HETATM   30  C10 UNL     1      14.561  -5.381  54.095  1.00  0.00     0.000 A 
HETATM   31  C11 UNL     1      15.888  -5.368  54.375  1.00  0.00     0.001 A 
HETATM   32  C12 UNL     1      16.681  -4.310  53.967  1.00  0.00     0.014 A 
ENDBRANCH   8  27
BRANCH  14  33
HETATM   33  O4  UNL     1      20.841   2.181  52.697  1.00  0.00    -0.392 OA
HETATM   34  H14 UNL     1      20.303   3.003  52.706  1.00  0.00     0.210 HD
ENDBRANCH  14  33
TORSDOF 2
ENDMDL
MODEL 9
REMARK VINA RESULT:      -9.4      2.332      5.107
REMARK  2 active torsions:
REMARK  status: ('A' for Active; 'I' for Inactive)
REMARK    1  A    between atoms: C6_8  and  C7_9 
REMARK    2  A    between atoms: C17_20  and  O4_21 
ROOT
HETATM    1  O1  UNL     1      24.334   1.737  50.786  1.00  0.00    -0.274 OA
HETATM    2  C1  UNL     1      24.070   2.491  51.775  1.00  0.00     0.217 C 
HETATM    3  C2  UNL     1      25.313   3.231  51.349  1.00  0.00     0.106 C 
HETATM    4  C3  UNL     1      25.724   2.797  49.962  1.00  0.00     0.039 C 
HETATM    5  C4  UNL     1      26.822   3.653  49.496  1.00  0.00     0.012 C 
HETATM    6  C5  UNL     1      27.052   4.856  48.947  1.00  0.00     0.086 A 
HETATM    7  O2  UNL     1      28.330   4.979  48.803  1.00  0.00    -0.309 OA
HETATM    8  C6  UNL     1      29.052   5.926  48.332  1.00  0.00     0.090 A 
HETATM    9  C13 UNL     1      28.356   7.010  47.898  1.00  0.00     0.093 A 
HETATM   10  C14 UNL     1      26.961   6.961  48.022  1.00  0.00     0.187 A 
HETATM   11  O3  UNL     1      26.547   8.097  47.547  1.00  0.00    -0.287 OA
HETATM   12  C15 UNL     1      26.221   5.867  48.559  1.00  0.00     0.046 A 
HETATM   13  C16 UNL     1      24.982   6.372  48.460  1.00  0.00     0.023 C 
HETATM   14  C17 UNL     1      23.713   5.772  48.900  1.00  0.00     0.142 C 
HETATM   15  C18 UNL     1      22.574   6.774  48.767  1.00  0.00     0.036 C 
HETATM   16  C19 UNL     1      21.272   6.298  49.299  1.00  0.00     0.003 C 
HETATM   17  C20 UNL     1      20.588   5.180  48.603  1.00  0.00     0.000 C 
HETATM   18  C21 UNL     1      19.394   4.741  49.497  1.00  0.00     0.000 C 
HETATM   19  C22 UNL     1      19.982   3.973  50.621  1.00  0.00     0.000 C 
HETATM   20  C23 UNL     1      19.040   3.526  51.707  1.00  0.00     0.000 C 
HETATM   21  C24 UNL     1      19.925   2.561  52.562  1.00  0.00     0.000 C 
HETATM   22  C25 UNL     1      19.995   1.277  51.832  1.00  0.00     0.002 C 
HETATM   23  C26 UNL     1      21.096   0.311  52.173  1.00  0.00     0.020 C 
HETATM   24  C27 UNL     1      22.425   0.772  51.629  1.00  0.00     0.122 C 
HETATM   25  N1  UNL     1      22.890   1.938  52.325  1.00  0.00    -0.361 N 
HETATM   26  H35 UNL     1      23.129   2.768  52.895  1.00  0.00     0.162 HD
ENDROOT
BRANCH   8  27
HETATM   27  C7  UNL     1      30.506   5.860  48.265  1.00  0.00    -0.002 A 
HETATM   28  C8  UNL     1      31.338   6.773  48.889  1.00  0.00     0.014 A 
HETATM   29  C9  UNL     1      32.721   6.691  48.841  1.00  0.00     0.001 A 
HETATM   30  C10 UNL     1      33.300   5.635  48.130  1.00  0.00     0.000 A 
HETATM   31  C11 UNL     1      32.497   4.732  47.512  1.00  0.00     0.001 A 
HETATM   32  C12 UNL     1      31.120   4.852  47.585  1.00  0.00     0.014 A 
ENDBRANCH   8  27
BRANCH  14  33
HETATM   33  O4  UNL     1      23.429   4.714  48.064  1.00  0.00    -0.392 OA
HETATM   34  H14 UNL     1      23.941   3.921  48.335  1.00  0.00     0.210 HD
ENDBRANCH  14  33
TORSDOF 2
ENDMDL
