MODEL 1
REMARK VINA RESULT:      -9.3      0.000      0.000
REMARK  7 active torsions:
REMARK  status: ('A' for Active; 'I' for Inactive)
REMARK    1  A    between atoms: N1_1  and  C1_2 
REMARK    2  A    between atoms: C2_4  and  N3_5 
REMARK    3  A    between atoms: N3_5  and  C3_6 
REMARK    4  A    between atoms: C7_10  and  C8_11 
REMARK    5  A    between atoms: C12_18  and  C13_19 
REMARK    6  A    between atoms: C13_19  and  C14_20 
REMARK    7  A    between atoms: C14_20  and  C15_21 
ROOT
HETATM    1  C1  UNL     1      24.470   2.904  52.157  1.00  0.00     0.724 C 
HETATM    2  N2  UNL     1      24.709   1.886  51.355  1.00  0.00    -0.045 NA
HETATM    3  C2  UNL     1      25.643   0.966  51.965  1.00  0.00     0.147 C 
HETATM    4  C10 UNL     1      26.667   1.663  51.503  1.00  0.00     0.053 C 
HETATM    5  C11 UNL     1      26.439   2.839  50.717  1.00  0.00     0.031 C 
HETATM    6  C12 UNL     1      25.567   3.659  50.156  1.00  0.00     0.037 C 
HETATM    7  N4  UNL     1      24.132   3.814  49.979  1.00  0.00    -0.230 NA
HETATM    8  C21 UNL     1      23.585   4.553  50.886  1.00  0.00     0.217 C 
HETATM    9  N5  UNL     1      23.671   4.076  52.084  1.00  0.00    -0.039 NA
ENDROOT
BRANCH   3  10
HETATM   10  N3  UNL     1      25.588  -0.218  52.743  1.00  0.00    -0.340 N 
HETATM   11  H3  UNL     1      26.406  -0.853  52.642  1.00  0.00     0.167 HD
BRANCH  10  12
HETATM   12  C3  UNL     1      24.519  -0.542  53.602  1.00  0.00     0.034 A 
HETATM   13  C4  UNL     1      24.697  -1.024  54.879  1.00  0.00     0.029 A 
HETATM   14  C5  UNL     1      23.618  -1.329  55.691  1.00  0.00     0.003 A 
HETATM   15  C6  UNL     1      22.339  -1.146  55.214  1.00  0.00     0.016 A 
HETATM   16  C7  UNL     1      22.127  -0.663  53.937  1.00  0.00     0.050 A 
HETATM   17  C9  UNL     1      23.223  -0.373  53.162  1.00  0.00     0.045 A 
BRANCH  16  18
HETATM   18  C8  UNL     1      20.724  -0.485  53.472  1.00  0.00     0.417 C 
HETATM   19  F1  UNL     1      20.009  -1.627  53.853  1.00  0.00    -0.166 F 
HETATM   20  F2  UNL     1      20.173   0.543  54.216  1.00  0.00    -0.166 F 
HETATM   21  F3  UNL     1      20.644  -0.255  52.129  1.00  0.00    -0.166 F 
ENDBRANCH  16  18
ENDBRANCH  10  12
ENDBRANCH   3  10
BRANCH   1  22
HETATM   22  N1  UNL     1      24.931   3.279  53.475  1.00  0.00    -0.231 N 
HETATM   23  H1  UNL     1      24.817   4.184  53.983  1.00  0.00     0.174 HD
HETATM   24  H2  UNL     1      25.476   2.648  54.137  1.00  0.00     0.174 HD
ENDBRANCH   1  22
BRANCH   6  25
HETATM   25  C13 UNL     1      26.022   4.865  49.366  1.00  0.00     0.064 C 
BRANCH  25  26
HETATM   26  C14 UNL     1      27.459   4.746  48.912  1.00  0.00     0.044 C 
BRANCH  26  27
HETATM   27  C15 UNL     1      27.856   6.034  48.225  1.00  0.00    -0.058 A 
HETATM   28  C16 UNL     1      26.922   7.022  48.004  1.00  0.00     0.007 A 
HETATM   29  C17 UNL     1      27.226   8.217  47.382  1.00  0.00     0.001 A 
HETATM   30  C18 UNL     1      28.538   8.433  46.958  1.00  0.00     0.000 A 
HETATM   31  C19 UNL     1      29.456   7.427  47.191  1.00  0.00     0.001 A 
HETATM   32  C20 UNL     1      29.178   6.226  47.810  1.00  0.00     0.007 A 
ENDBRANCH  26  27
ENDBRANCH  25  26
ENDBRANCH   6  25
TORSDOF 7
ENDMDL
MODEL 2
REMARK VINA RESULT:      -9.1      4.625      8.900
REMARK  7 active torsions:
REMARK  status: ('A' for Active; 'I' for Inactive)
REMARK    1  A    between atoms: N1_1  and  C1_2 
REMARK    2  A    between atoms: C2_4  and  N3_5 
REMARK    3  A    between atoms: N3_5  and  C3_6 
REMARK    4  A    between atoms: C7_10  and  C8_11 
REMARK    5  A    between atoms: C12_18  and  C13_19 
REMARK    6  A    between atoms: C13_19  and  C14_20 
REMARK    7  A    between atoms: C14_20  and  C15_21 
ROOT
HETATM    1  C1  UNL     1      24.010   3.394  50.673  1.00  0.00     0.724 C 
HETATM    2  N2  UNL     1      25.051   4.143  50.977  1.00  0.00    -0.045 NA
HETATM    3  C2  UNL     1      25.908   4.313  49.824  1.00  0.00     0.147 C 
HETATM    4  C10 UNL     1      26.545   3.189  50.103  1.00  0.00     0.053 C 
HETATM    5  C11 UNL     1      26.170   2.417  51.249  1.00  0.00     0.031 C 
HETATM    6  C12 UNL     1      25.385   2.289  52.305  1.00  0.00     0.037 C 
HETATM    7  N4  UNL     1      24.326   3.000  53.004  1.00  0.00    -0.230 NA
HETATM    8  C21 UNL     1      23.142   2.648  52.624  1.00  0.00     0.217 C 
HETATM    9  N5  UNL     1      22.884   2.903  51.385  1.00  0.00    -0.039 NA
ENDROOT
BRANCH   3  10
HETATM   10  N3  UNL     1      26.080   5.256  48.779  1.00  0.00    -0.340 N 
HETATM   11  H3  UNL     1      25.277   5.340  48.121  1.00  0.00     0.167 HD
BRANCH  10  12
HETATM   12  C3  UNL     1      27.240   6.038  48.613  1.00  0.00     0.034 A 
HETATM   13  C4  UNL     1      27.250   7.409  48.742  1.00  0.00     0.029 A 
HETATM   14  C5  UNL     1      28.413   8.140  48.573  1.00  0.00     0.003 A 
HETATM   15  C6  UNL     1      29.586   7.486  48.269  1.00  0.00     0.016 A 
HETATM   16  C7  UNL     1      29.609   6.111  48.134  1.00  0.00     0.050 A 
HETATM   17  C9  UNL     1      28.435   5.421  48.309  1.00  0.00     0.045 A 
BRANCH  16  18
HETATM   18  C8  UNL     1      30.904   5.454  47.804  1.00  0.00     0.417 C 
HETATM   19  F1  UNL     1      30.613   4.162  47.348  1.00  0.00    -0.166 F 
HETATM   20  F2  UNL     1      31.427   6.109  46.704  1.00  0.00    -0.166 F 
HETATM   21  F3  UNL     1      31.768   5.442  48.860  1.00  0.00    -0.166 F 
ENDBRANCH  16  18
ENDBRANCH  10  12
ENDBRANCH   3  10
BRANCH   1  22
HETATM   22  N1  UNL     1      23.561   2.731  49.469  1.00  0.00    -0.231 N 
HETATM   23  H1  UNL     1      22.881   1.947  49.360  1.00  0.00     0.174 HD
HETATM   24  H2  UNL     1      23.882   2.968  48.483  1.00  0.00     0.174 HD
ENDBRANCH   1  22
BRANCH   6  25
HETATM   25  C13 UNL     1      25.504   1.099  53.231  1.00  0.00     0.064 C 
BRANCH  25  26
HETATM   26  C14 UNL     1      25.919  -0.158  52.501  1.00  0.00     0.044 C 
BRANCH  26  27
HETATM   27  C15 UNL     1      27.319  -0.528  52.934  1.00  0.00    -0.058 A 
HETATM   28  C16 UNL     1      27.776  -1.820  52.790  1.00  0.00     0.007 A 
HETATM   29  C17 UNL     1      29.044  -2.215  53.168  1.00  0.00     0.001 A 
HETATM   30  C18 UNL     1      29.902  -1.264  53.722  1.00  0.00     0.000 A 
HETATM   31  C19 UNL     1      29.421   0.024  53.857  1.00  0.00     0.001 A 
HETATM   32  C20 UNL     1      28.160   0.444  53.487  1.00  0.00     0.007 A 
ENDBRANCH  26  27
ENDBRANCH  25  26
ENDBRANCH   6  25
TORSDOF 7
ENDMDL
MODEL 3
REMARK VINA RESULT:      -8.9      2.432      3.036
REMARK  7 active torsions:
REMARK  status: ('A' for Active; 'I' for Inactive)
REMARK    1  A    between atoms: N1_1  and  C1_2 
REMARK    2  A    between atoms: C2_4  and  N3_5 
REMARK    3  A    between atoms: N3_5  and  C3_6 
REMARK    4  A    between atoms: C7_10  and  C8_11 
REMARK    5  A    between atoms: C12_18  and  C13_19 
REMARK    6  A    between atoms: C13_19  and  C14_20 
REMARK    7  A    between atoms: C14_20  and  C15_21 
ROOT
HETATM    1  C1  UNL     1      23.259   4.225  52.002  1.00  0.00     0.724 C 
HETATM    2  N2  UNL     1      22.399   3.728  51.137  1.00  0.00    -0.045 NA
HETATM    3  C2  UNL     1      22.314   2.291  51.273  1.00  0.00     0.147 C 
HETATM    4  C10 UNL     1      23.339   2.130  50.454  1.00  0.00     0.053 C 
HETATM    5  C11 UNL     1      23.982   3.272  49.876  1.00  0.00     0.031 C 
HETATM    6  C12 UNL     1      24.032   4.588  49.755  1.00  0.00     0.037 C 
HETATM    7  N4  UNL     1      23.321   5.778  50.193  1.00  0.00    -0.230 NA
HETATM    8  C21 UNL     1      23.810   6.294  51.271  1.00  0.00     0.217 C 
HETATM    9  N5  UNL     1      23.739   5.526  52.308  1.00  0.00    -0.039 NA
ENDROOT
BRANCH   3  10
HETATM   10  N3  UNL     1      21.505   1.351  51.961  1.00  0.00    -0.340 N 
HETATM   11  H3  UNL     1      20.506   1.327  51.667  1.00  0.00     0.167 HD
BRANCH  10  12
HETATM   12  C3  UNL     1      21.986   0.496  52.972  1.00  0.00     0.034 A 
HETATM   13  C4  UNL     1      21.162  -0.274  53.763  1.00  0.00     0.029 A 
HETATM   14  C5  UNL     1      21.676  -1.102  54.746  1.00  0.00     0.003 A 
HETATM   15  C6  UNL     1      23.038  -1.159  54.939  1.00  0.00     0.016 A 
HETATM   16  C7  UNL     1      23.891  -0.400  54.162  1.00  0.00     0.050 A 
HETATM   17  C9  UNL     1      23.343   0.410  53.197  1.00  0.00     0.045 A 
BRANCH  16  18
HETATM   18  C8  UNL     1      25.355  -0.499  54.413  1.00  0.00     0.417 C 
HETATM   19  F1  UNL     1      25.893   0.785  54.262  1.00  0.00    -0.166 F 
HETATM   20  F2  UNL     1      25.522  -0.799  55.753  1.00  0.00    -0.166 F 
HETATM   21  F3  UNL     1      25.965  -1.408  53.598  1.00  0.00    -0.166 F 
ENDBRANCH  16  18
ENDBRANCH  10  12
ENDBRANCH   3  10
BRANCH   1  22
HETATM   22  N1  UNL     1      24.107   3.653  53.024  1.00  0.00    -0.231 N 
HETATM   23  H1  UNL     1      24.332   4.015  53.977  1.00  0.00     0.174 HD
HETATM   24  H2  UNL     1      24.641   2.736  52.935  1.00  0.00     0.174 HD
ENDBRANCH   1  22
BRANCH   6  25
HETATM   25  C13 UNL     1      25.078   5.256  48.892  1.00  0.00     0.064 C 
BRANCH  25  26
HETATM   26  C14 UNL     1      26.465   4.711  49.144  1.00  0.00     0.044 C 
BRANCH  26  27
HETATM   27  C15 UNL     1      27.472   5.639  48.501  1.00  0.00    -0.058 A 
HETATM   28  C16 UNL     1      28.789   5.256  48.372  1.00  0.00     0.007 A 
HETATM   29  C17 UNL     1      29.752   6.060  47.794  1.00  0.00     0.001 A 
HETATM   30  C18 UNL     1      29.373   7.317  47.319  1.00  0.00     0.000 A 
HETATM   31  C19 UNL     1      28.047   7.677  47.459  1.00  0.00     0.001 A 
HETATM   32  C20 UNL     1      27.068   6.893  48.032  1.00  0.00     0.007 A 
ENDBRANCH  26  27
ENDBRANCH  25  26
ENDBRANCH   6  25
TORSDOF 7
ENDMDL
MODEL 4
REMARK VINA RESULT:      -8.7      4.812      9.060
REMARK  7 active torsions:
REMARK  status: ('A' for Active; 'I' for Inactive)
REMARK    1  A    between atoms: N1_1  and  C1_2 
REMARK    2  A    between atoms: C2_4  and  N3_5 
REMARK    3  A    between atoms: N3_5  and  C3_6 
REMARK    4  A    between atoms: C7_10  and  C8_11 
REMARK    5  A    between atoms: C12_18  and  C13_19 
REMARK    6  A    between atoms: C13_19  and  C14_20 
REMARK    7  A    between atoms: C14_20  and  C15_21 
ROOT
HETATM    1  C1  UNL     1      24.013   3.754  50.415  1.00  0.00     0.724 C 
HETATM    2  N2  UNL     1      25.130   4.362  50.762  1.00  0.00    -0.045 NA
HETATM    3  C2  UNL     1      26.024   4.466  49.629  1.00  0.00     0.147 C 
HETATM    4  C10 UNL     1      26.517   3.266  49.879  1.00  0.00     0.053 C 
HETATM    5  C11 UNL     1      26.029   2.507  50.993  1.00  0.00     0.031 C 
HETATM    6  C12 UNL     1      25.213   2.440  52.031  1.00  0.00     0.037 C 
HETATM    7  N4  UNL     1      24.232   3.249  52.736  1.00  0.00    -0.230 NA
HETATM    8  C21 UNL     1      23.023   3.054  52.325  1.00  0.00     0.217 C 
HETATM    9  N5  UNL     1      22.822   3.379  51.091  1.00  0.00    -0.039 NA
ENDROOT
BRANCH   3  10
HETATM   10  N3  UNL     1      26.328   5.415  48.621  1.00  0.00    -0.340 N 
HETATM   11  H3  UNL     1      25.575   5.572  47.919  1.00  0.00     0.167 HD
BRANCH  10  12
HETATM   12  C3  UNL     1      27.550   6.112  48.544  1.00  0.00     0.034 A 
HETATM   13  C4  UNL     1      28.745   5.505  48.228  1.00  0.00     0.029 A 
HETATM   14  C5  UNL     1      29.924   6.228  48.162  1.00  0.00     0.003 A 
HETATM   15  C6  UNL     1      29.904   7.581  48.416  1.00  0.00     0.016 A 
HETATM   16  C7  UNL     1      28.721   8.219  48.735  1.00  0.00     0.050 A 
HETATM   17  C9  UNL     1      27.572   7.468  48.791  1.00  0.00     0.045 A 
BRANCH  16  18
HETATM   18  C8  UNL     1      28.755   9.683  49.001  1.00  0.00     0.417 C 
HETATM   19  F1  UNL     1      27.784   9.955  49.973  1.00  0.00    -0.166 F 
HETATM   20  F2  UNL     1      29.961   9.959  49.618  1.00  0.00    -0.166 F 
HETATM   21  F3  UNL     1      28.569  10.425  47.871  1.00  0.00    -0.166 F 
ENDBRANCH  16  18
ENDBRANCH  10  12
ENDBRANCH   3  10
BRANCH   1  22
HETATM   22  N1  UNL     1      23.513   3.188  49.182  1.00  0.00    -0.231 N 
HETATM   23  H1  UNL     1      22.558   2.830  48.958  1.00  0.00     0.174 HD
HETATM   24  H2  UNL     1      24.083   3.057  48.293  1.00  0.00     0.174 HD
ENDBRANCH   1  22
BRANCH   6  25
HETATM   25  C13 UNL     1      25.171   1.215  52.916  1.00  0.00     0.064 C 
BRANCH  25  26
HETATM   26  C14 UNL     1      26.230   1.249  53.995  1.00  0.00     0.044 C 
BRANCH  26  27
HETATM   27  C15 UNL     1      27.241   0.161  53.713  1.00  0.00    -0.058 A 
HETATM   28  C16 UNL     1      28.551   0.303  54.118  1.00  0.00     0.007 A 
HETATM   29  C17 UNL     1      29.517  -0.656  53.888  1.00  0.00     0.001 A 
HETATM   30  C18 UNL     1      29.151  -1.822  53.214  1.00  0.00     0.000 A 
HETATM   31  C19 UNL     1      27.833  -1.941  52.818  1.00  0.00     0.001 A 
HETATM   32  C20 UNL     1      26.850  -0.999  53.035  1.00  0.00     0.007 A 
ENDBRANCH  26  27
ENDBRANCH  25  26
ENDBRANCH   6  25
TORSDOF 7
ENDMDL
MODEL 5
REMARK VINA RESULT:      -8.7      1.483      2.587
REMARK  7 active torsions:
REMARK  status: ('A' for Active; 'I' for Inactive)
REMARK    1  A    between atoms: N1_1  and  C1_2 
REMARK    2  A    between atoms: C2_4  and  N3_5 
REMARK    3  A    between atoms: N3_5  and  C3_6 
REMARK    4  A    between atoms: C7_10  and  C8_11 
REMARK    5  A    between atoms: C12_18  and  C13_19 
REMARK    6  A    between atoms: C13_19  and  C14_20 
REMARK    7  A    between atoms: C14_20  and  C15_21 
ROOT
HETATM    1  C1  UNL     1      23.724   5.041  51.382  1.00  0.00     0.724 C 
HETATM    2  N2  UNL     1      23.685   4.296  50.296  1.00  0.00    -0.045 NA
HETATM    3  C2  UNL     1      24.128   2.950  50.587  1.00  0.00     0.147 C 
HETATM    4  C10 UNL     1      25.388   3.297  50.390  1.00  0.00     0.053 C 
HETATM    5  C11 UNL     1      25.713   4.644  50.026  1.00  0.00     0.031 C 
HETATM    6  C12 UNL     1      25.284   5.864  49.749  1.00  0.00     0.037 C 
HETATM    7  N4  UNL     1      24.043   6.608  49.612  1.00  0.00    -0.230 NA
HETATM    8  C21 UNL     1      23.682   7.199  50.703  1.00  0.00     0.217 C 
HETATM    9  N5  UNL     1      23.423   6.396  51.682  1.00  0.00    -0.039 NA
ENDROOT
BRANCH   3  10
HETATM   10  N3  UNL     1      23.540   1.708  50.938  1.00  0.00    -0.340 N 
HETATM   11  H3  UNL     1      22.750   1.405  50.331  1.00  0.00     0.167 HD
BRANCH  10  12
HETATM   12  C3  UNL     1      23.968   0.917  52.021  1.00  0.00     0.034 A 
HETATM   13  C4  UNL     1      25.295   0.686  52.309  1.00  0.00     0.029 A 
HETATM   14  C5  UNL     1      25.674  -0.097  53.385  1.00  0.00     0.003 A 
HETATM   15  C6  UNL     1      24.705  -0.659  54.187  1.00  0.00     0.016 A 
HETATM   16  C7  UNL     1      23.366  -0.446  53.926  1.00  0.00     0.050 A 
HETATM   17  C9  UNL     1      23.030   0.337  52.849  1.00  0.00     0.045 A 
BRANCH  16  18
HETATM   18  C8  UNL     1      22.360  -1.077  54.825  1.00  0.00     0.417 C 
HETATM   19  F1  UNL     1      21.418  -0.094  55.153  1.00  0.00    -0.166 F 
HETATM   20  F2  UNL     1      21.660  -2.002  54.072  1.00  0.00    -0.166 F 
HETATM   21  F3  UNL     1      22.927  -1.633  55.934  1.00  0.00    -0.166 F 
ENDBRANCH  16  18
ENDBRANCH  10  12
ENDBRANCH   3  10
BRANCH   1  22
HETATM   22  N1  UNL     1      24.103   4.802  52.756  1.00  0.00    -0.231 N 
HETATM   23  H1  UNL     1      24.467   3.931  53.201  1.00  0.00     0.174 HD
HETATM   24  H2  UNL     1      24.061   5.524  53.538  1.00  0.00     0.174 HD
ENDBRANCH   1  22
BRANCH   6  25
HETATM   25  C13 UNL     1      26.251   6.973  49.400  1.00  0.00     0.064 C 
BRANCH  25  26
HETATM   26  C14 UNL     1      26.551   7.029  47.919  1.00  0.00     0.044 C 
BRANCH  26  27
HETATM   27  C15 UNL     1      28.038   6.845  47.721  1.00  0.00    -0.058 A 
HETATM   28  C16 UNL     1      28.672   5.718  48.199  1.00  0.00     0.007 A 
HETATM   29  C17 UNL     1      30.026   5.496  48.048  1.00  0.00     0.001 A 
HETATM   30  C18 UNL     1      30.789   6.458  47.383  1.00  0.00     0.000 A 
HETATM   31  C19 UNL     1      30.132   7.578  46.914  1.00  0.00     0.001 A 
HETATM   32  C20 UNL     1      28.781   7.823  47.051  1.00  0.00     0.007 A 
ENDBRANCH  26  27
ENDBRANCH  25  26
ENDBRANCH   6  25
TORSDOF 7
ENDMDL
MODEL 6
REMARK VINA RESULT:      -8.5      3.556      4.351
REMARK  7 active torsions:
REMARK  status: ('A' for Active; 'I' for Inactive)
REMARK    1  A    between atoms: N1_1  and  C1_2 
REMARK    2  A    between atoms: C2_4  and  N3_5 
REMARK    3  A    between atoms: N3_5  and  C3_6 
REMARK    4  A    between atoms: C7_10  and  C8_11 
REMARK    5  A    between atoms: C12_18  and  C13_19 
REMARK    6  A    between atoms: C13_19  and  C14_20 
REMARK    7  A    between atoms: C14_20  and  C15_21 
ROOT
HETATM    1  C1  UNL     1      23.156   4.557  51.601  1.00  0.00     0.724 C 
HETATM    2  N2  UNL     1      23.300   3.418  50.955  1.00  0.00    -0.045 NA
HETATM    3  C2  UNL     1      24.311   2.599  51.587  1.00  0.00     0.147 C 
HETATM    4  C10 UNL     1      25.262   3.195  50.890  1.00  0.00     0.053 C 
HETATM    5  C11 UNL     1      24.927   4.228  49.955  1.00  0.00     0.031 C 
HETATM    6  C12 UNL     1      23.984   4.955  49.380  1.00  0.00     0.037 C 
HETATM    7  N4  UNL     1      22.537   5.098  49.362  1.00  0.00    -0.230 NA
HETATM    8  C21 UNL     1      22.104   5.985  50.196  1.00  0.00     0.217 C 
HETATM    9  N5  UNL     1      22.346   5.711  51.436  1.00  0.00    -0.039 NA
ENDROOT
BRANCH   3  10
HETATM   10  N3  UNL     1      24.364   1.561  52.551  1.00  0.00    -0.340 N 
HETATM   11  H3  UNL     1      23.494   1.428  53.108  1.00  0.00     0.167 HD
BRANCH  10  12
HETATM   12  C3  UNL     1      25.495   0.749  52.766  1.00  0.00     0.034 A 
HETATM   13  C4  UNL     1      25.517  -0.600  52.492  1.00  0.00     0.029 A 
HETATM   14  C5  UNL     1      26.651  -1.363  52.717  1.00  0.00     0.003 A 
HETATM   15  C6  UNL     1      27.781  -0.761  53.225  1.00  0.00     0.016 A 
HETATM   16  C7  UNL     1      27.790   0.591  53.510  1.00  0.00     0.050 A 
HETATM   17  C9  UNL     1      26.646   1.313  53.274  1.00  0.00     0.045 A 
BRANCH  16  18
HETATM   18  C8  UNL     1      29.038   1.190  54.058  1.00  0.00     0.417 C 
HETATM   19  F1  UNL     1      29.085   0.882  55.424  1.00  0.00    -0.166 F 
HETATM   20  F2  UNL     1      30.101   0.502  53.503  1.00  0.00    -0.166 F 
HETATM   21  F3  UNL     1      29.115   2.534  53.834  1.00  0.00    -0.166 F 
ENDBRANCH  16  18
ENDBRANCH  10  12
ENDBRANCH   3  10
BRANCH   1  22
HETATM   22  N1  UNL     1      23.778   5.140  52.769  1.00  0.00    -0.231 N 
HETATM   23  H1  UNL     1      23.864   6.144  53.042  1.00  0.00     0.174 HD
HETATM   24  H2  UNL     1      24.254   4.592  53.548  1.00  0.00     0.174 HD
ENDBRANCH   1  22
BRANCH   6  25
HETATM   25  C13 UNL     1      24.326   6.008  48.350  1.00  0.00     0.064 C 
BRANCH  25  26
HETATM   26  C14 UNL     1      25.138   7.141  48.933  1.00  0.00     0.044 C 
BRANCH  26  27
HETATM   27  C15 UNL     1      26.474   7.192  48.226  1.00  0.00    -0.058 A 
HETATM   28  C16 UNL     1      27.480   6.316  48.572  1.00  0.00     0.007 A 
HETATM   29  C17 UNL     1      28.718   6.315  47.961  1.00  0.00     0.001 A 
HETATM   30  C18 UNL     1      28.963   7.244  46.948  1.00  0.00     0.000 A 
HETATM   31  C19 UNL     1      27.939   8.111  46.619  1.00  0.00     0.001 A 
HETATM   32  C20 UNL     1      26.694   8.132  47.213  1.00  0.00     0.007 A 
ENDBRANCH  26  27
ENDBRANCH  25  26
ENDBRANCH   6  25
TORSDOF 7
ENDMDL
MODEL 7
REMARK VINA RESULT:      -8.4      4.027      8.170
REMARK  7 active torsions:
REMARK  status: ('A' for Active; 'I' for Inactive)
REMARK    1  A    between atoms: N1_1  and  C1_2 
REMARK    2  A    between atoms: C2_4  and  N3_5 
REMARK    3  A    between atoms: N3_5  and  C3_6 
REMARK    4  A    between atoms: C7_10  and  C8_11 
REMARK    5  A    between atoms: C12_18  and  C13_19 
REMARK    6  A    between atoms: C13_19  and  C14_20 
REMARK    7  A    between atoms: C14_20  and  C15_21 
ROOT
HETATM    1  C1  UNL     1      21.293   1.658  51.323  1.00  0.00     0.724 C 
HETATM    2  N2  UNL     1      22.110   2.541  51.862  1.00  0.00    -0.045 NA
HETATM    3  C2  UNL     1      22.858   3.233  50.837  1.00  0.00     0.147 C 
HETATM    4  C10 UNL     1      23.776   2.283  50.833  1.00  0.00     0.053 C 
HETATM    5  C11 UNL     1      23.650   1.159  51.712  1.00  0.00     0.031 C 
HETATM    6  C12 UNL     1      22.956   0.550  52.659  1.00  0.00     0.037 C 
HETATM    7  N4  UNL     1      21.768   0.744  53.474  1.00  0.00    -0.230 NA
HETATM    8  C21 UNL     1      20.708   0.212  52.961  1.00  0.00     0.217 C 
HETATM    9  N5  UNL     1      20.356   0.717  51.825  1.00  0.00    -0.039 NA
ENDROOT
BRANCH   3  10
HETATM   10  N3  UNL     1      22.747   4.435  50.092  1.00  0.00    -0.340 N 
HETATM   11  H3  UNL     1      21.916   4.494  49.468  1.00  0.00     0.167 HD
BRANCH  10  12
HETATM   12  C3  UNL     1      23.676   5.492  50.168  1.00  0.00     0.034 A 
HETATM   13  C4  UNL     1      23.541   6.553  51.035  1.00  0.00     0.029 A 
HETATM   14  C5  UNL     1      24.478   7.572  51.078  1.00  0.00     0.003 A 
HETATM   15  C6  UNL     1      25.568   7.524  50.238  1.00  0.00     0.016 A 
HETATM   16  C7  UNL     1      25.732   6.472  49.357  1.00  0.00     0.050 A 
HETATM   17  C9  UNL     1      24.781   5.482  49.344  1.00  0.00     0.045 A 
BRANCH  16  18
HETATM   18  C8  UNL     1      26.929   6.471  48.471  1.00  0.00     0.417 C 
HETATM   19  F1  UNL     1      26.572   7.126  47.286  1.00  0.00    -0.166 F 
HETATM   20  F2  UNL     1      27.875   7.291  49.059  1.00  0.00    -0.166 F 
HETATM   21  F3  UNL     1      27.405   5.214  48.238  1.00  0.00    -0.166 F 
ENDBRANCH  16  18
ENDBRANCH  10  12
ENDBRANCH   3  10
BRANCH   1  22
HETATM   22  N1  UNL     1      21.001   1.252  49.966  1.00  0.00    -0.231 N 
HETATM   23  H1  UNL     1      21.651   0.922  49.220  1.00  0.00     0.174 HD
HETATM   24  H2  UNL     1      20.031   1.233  49.528  1.00  0.00     0.174 HD
ENDBRANCH   1  22
BRANCH   6  25
HETATM   25  C13 UNL     1      23.410  -0.772  53.236  1.00  0.00     0.064 C 
BRANCH  25  26
HETATM   26  C14 UNL     1      24.174  -0.603  54.529  1.00  0.00     0.044 C 
BRANCH  26  27
HETATM   27  C15 UNL     1      25.648  -0.497  54.208  1.00  0.00    -0.058 A 
HETATM   28  C16 UNL     1      26.171  -1.144  53.109  1.00  0.00     0.007 A 
HETATM   29  C17 UNL     1      27.507  -1.084  52.767  1.00  0.00     0.001 A 
HETATM   30  C18 UNL     1      28.368  -0.335  53.571  1.00  0.00     0.000 A 
HETATM   31  C19 UNL     1      27.820   0.304  54.667  1.00  0.00     0.001 A 
HETATM   32  C20 UNL     1      26.490   0.260  55.029  1.00  0.00     0.007 A 
ENDBRANCH  26  27
ENDBRANCH  25  26
ENDBRANCH   6  25
TORSDOF 7
ENDMDL
MODEL 8
REMARK VINA RESULT:      -8.3      1.690      2.825
REMARK  7 active torsions:
REMARK  status: ('A' for Active; 'I' for Inactive)
REMARK    1  A    between atoms: N1_1  and  C1_2 
REMARK    2  A    between atoms: C2_4  and  N3_5 
REMARK    3  A    between atoms: N3_5  and  C3_6 
REMARK    4  A    between atoms: C7_10  and  C8_11 
REMARK    5  A    between atoms: C12_18  and  C13_19 
REMARK    6  A    between atoms: C13_19  and  C14_20 
REMARK    7  A    between atoms: C14_20  and  C15_21 
ROOT
HETATM    1  C1  UNL     1      24.252   5.368  50.390  1.00  0.00     0.724 C 
HETATM    2  N2  UNL     1      24.081   4.544  49.376  1.00  0.00    -0.045 NA
HETATM    3  C2  UNL     1      24.087   3.171  49.830  1.00  0.00     0.147 C 
HETATM    4  C10 UNL     1      25.404   3.122  49.739  1.00  0.00     0.053 C 
HETATM    5  C11 UNL     1      26.136   4.270  49.295  1.00  0.00     0.031 C 
HETATM    6  C12 UNL     1      26.106   5.522  48.868  1.00  0.00     0.037 C 
HETATM    7  N4  UNL     1      25.151   6.566  48.534  1.00  0.00    -0.230 NA
HETATM    8  C21 UNL     1      24.896   7.356  49.525  1.00  0.00     0.217 C 
HETATM    9  N5  UNL     1      24.339   6.777  50.536  1.00  0.00    -0.039 NA
ENDROOT
BRANCH   3  10
HETATM   10  N3  UNL     1      23.136   2.195  50.223  1.00  0.00    -0.340 N 
HETATM   11  H3  UNL     1      22.330   2.075  49.574  1.00  0.00     0.167 HD
BRANCH  10  12
HETATM   12  C3  UNL     1      23.243   1.426  51.398  1.00  0.00     0.034 A 
HETATM   13  C4  UNL     1      24.445   1.145  52.008  1.00  0.00     0.029 A 
HETATM   14  C5  UNL     1      24.506   0.385  53.165  1.00  0.00     0.003 A 
HETATM   15  C6  UNL     1      23.342  -0.098  53.718  1.00  0.00     0.016 A 
HETATM   16  C7  UNL     1      22.120   0.167  53.131  1.00  0.00     0.050 A 
HETATM   17  C9  UNL     1      22.100   0.923  51.985  1.00  0.00     0.045 A 
BRANCH  16  18
HETATM   18  C8  UNL     1      20.892  -0.381  53.771  1.00  0.00     0.417 C 
HETATM   19  F1  UNL     1      21.216  -1.644  54.284  1.00  0.00    -0.166 F 
HETATM   20  F2  UNL     1      20.628   0.396  54.884  1.00  0.00    -0.166 F 
HETATM   21  F3  UNL     1      19.834  -0.434  52.912  1.00  0.00    -0.166 F 
ENDBRANCH  16  18
ENDBRANCH  10  12
ENDBRANCH   3  10
BRANCH   1  22
HETATM   22  N1  UNL     1      24.438   5.191  51.813  1.00  0.00    -0.231 N 
HETATM   23  H1  UNL     1      24.846   5.848  52.514  1.00  0.00     0.174 HD
HETATM   24  H2  UNL     1      24.169   4.320  52.363  1.00  0.00     0.174 HD
ENDBRANCH   1  22
BRANCH   6  25
HETATM   25  C13 UNL     1      27.379   6.264  48.528  1.00  0.00     0.064 C 
BRANCH  25  26
HETATM   26  C14 UNL     1      28.556   5.334  48.347  1.00  0.00     0.044 C 
BRANCH  26  27
HETATM   27  C15 UNL     1      29.808   6.167  48.187  1.00  0.00    -0.058 A 
HETATM   28  C16 UNL     1      30.999   5.573  47.827  1.00  0.00     0.007 A 
HETATM   29  C17 UNL     1      32.173   6.282  47.666  1.00  0.00     0.001 A 
HETATM   30  C18 UNL     1      32.154   7.662  47.879  1.00  0.00     0.000 A 
HETATM   31  C19 UNL     1      30.949   8.233  48.239  1.00  0.00     0.001 A 
HETATM   32  C20 UNL     1      29.763   7.547  48.406  1.00  0.00     0.007 A 
ENDBRANCH  26  27
ENDBRANCH  25  26
ENDBRANCH   6  25
TORSDOF 7
ENDMDL
MODEL 9
REMARK VINA RESULT:      -8.2      1.722      2.643
REMARK  7 active torsions:
REMARK  status: ('A' for Active; 'I' for Inactive)
REMARK    1  A    between atoms: N1_1  and  C1_2 
REMARK    2  A    between atoms: C2_4  and  N3_5 
REMARK    3  A    between atoms: N3_5  and  C3_6 
REMARK    4  A    between atoms: C7_10  and  C8_11 
REMARK    5  A    between atoms: C12_18  and  C13_19 
REMARK    6  A    between atoms: C13_19  and  C14_20 
REMARK    7  A    between atoms: C14_20  and  C15_21 
ROOT
HETATM    1  C1  UNL     1      23.988   4.749  50.803  1.00  0.00     0.724 C 
HETATM    2  N2  UNL     1      24.268   3.704  50.050  1.00  0.00    -0.045 NA
HETATM    3  C2  UNL     1      24.921   2.676  50.830  1.00  0.00     0.147 C 
HETATM    4  C10 UNL     1      26.101   3.233  50.619  1.00  0.00     0.053 C 
HETATM    5  C11 UNL     1      26.201   4.423  49.828  1.00  0.00     0.031 C 
HETATM    6  C12 UNL     1      25.585   5.345  49.108  1.00  0.00     0.037 C 
HETATM    7  N4  UNL     1      24.256   5.681  48.624  1.00  0.00    -0.230 NA
HETATM    8  C21 UNL     1      23.620   6.489  49.406  1.00  0.00     0.217 C 
HETATM    9  N5  UNL     1      23.380   6.012  50.582  1.00  0.00    -0.039 NA
ENDROOT
BRANCH   3  10
HETATM   10  N3  UNL     1      24.547   1.513  51.550  1.00  0.00    -0.340 N 
HETATM   11  H3  UNL     1      25.330   1.009  52.016  1.00  0.00     0.167 HD
BRANCH  10  12
HETATM   12  C3  UNL     1      23.221   1.046  51.650  1.00  0.00     0.034 A 
HETATM   13  C4  UNL     1      22.276   1.247  50.669  1.00  0.00     0.029 A 
HETATM   14  C5  UNL     1      20.983   0.770  50.806  1.00  0.00     0.003 A 
HETATM   15  C6  UNL     1      20.634   0.080  51.946  1.00  0.00     0.016 A 
HETATM   16  C7  UNL     1      21.560  -0.138  52.947  1.00  0.00     0.050 A 
HETATM   17  C9  UNL     1      22.831   0.351  52.775  1.00  0.00     0.045 A 
BRANCH  16  18
HETATM   18  C8  UNL     1      21.129  -0.890  54.158  1.00  0.00     0.417 C 
HETATM   19  F1  UNL     1      19.842  -1.382  53.908  1.00  0.00    -0.166 F 
HETATM   20  F2  UNL     1      21.928  -2.015  54.248  1.00  0.00    -0.166 F 
HETATM   21  F3  UNL     1      21.175  -0.129  55.290  1.00  0.00    -0.166 F 
ENDBRANCH  16  18
ENDBRANCH  10  12
ENDBRANCH   3  10
BRANCH   1  22
HETATM   22  N1  UNL     1      24.191   5.070  52.198  1.00  0.00    -0.231 N 
HETATM   23  H1  UNL     1      23.571   4.886  53.017  1.00  0.00     0.174 HD
HETATM   24  H2  UNL     1      25.048   5.562  52.595  1.00  0.00     0.174 HD
ENDBRANCH   1  22
BRANCH   6  25
HETATM   25  C13 UNL     1      26.351   6.478  48.464  1.00  0.00     0.064 C 
BRANCH  25  26
HETATM   26  C14 UNL     1      27.781   6.101  48.151  1.00  0.00     0.044 C 
BRANCH  26  27
HETATM   27  C15 UNL     1      28.681   7.251  48.543  1.00  0.00    -0.058 A 
HETATM   28  C16 UNL     1      28.140   8.442  48.978  1.00  0.00     0.007 A 
HETATM   29  C17 UNL     1      28.911   9.526  49.348  1.00  0.00     0.001 A 
HETATM   30  C18 UNL     1      30.301   9.410  49.280  1.00  0.00     0.000 A 
HETATM   31  C19 UNL     1      30.818   8.207  48.842  1.00  0.00     0.001 A 
HETATM   32  C20 UNL     1      30.070   7.110  48.466  1.00  0.00     0.007 A 
ENDBRANCH  26  27
ENDBRANCH  25  26
ENDBRANCH   6  25
TORSDOF 7
ENDMDL
