MODEL 1
REMARK VINA RESULT:      -9.7      0.000      0.000
REMARK  5 active torsions:
REMARK  status: ('A' for Active; 'I' for Inactive)
REMARK    1  A    between atoms: C4_4  and  N1_5 
REMARK    2  A    between atoms: N1_5  and  C5_6 
REMARK    3  A    between atoms: C9_11  and  C10_12 
REMARK    4  A    between atoms: C19_26  and  C20_27 
REMARK    5  A    between atoms: C20_27  and  O2_28 
ROOT
HETATM    1  C5  UNL     1      21.284   1.523  51.972  1.00  0.00     0.728 A 
HETATM    2  N2  UNL     1      22.032   2.105  51.019  1.00  0.00    -0.074 NA
HETATM    3  C6  UNL     1      23.386   1.940  50.998  1.00  0.00     0.151 A 
HETATM    4  C7  UNL     1      23.933   1.164  51.985  1.00  0.00     0.030 A 
HETATM    5  C8  UNL     1      25.295   0.939  52.048  1.00  0.00     0.034 A 
HETATM    6  C9  UNL     1      25.879   0.160  53.032  1.00  0.00     0.047 A 
HETATM    7  C16 UNL     1      25.049  -0.416  53.993  1.00  0.00     0.260 A 
HETATM    8  O1  UNL     1      25.485  -1.148  54.936  1.00  0.00    -0.267 OA
HETATM    9  N3  UNL     1      23.718  -0.212  53.952  1.00  0.00    -0.301 N 
HETATM   10  C17 UNL     1      22.779  -0.780  54.921  1.00  0.00     0.161 C 
HETATM   11  C18 UNL     1      23.193   0.554  52.977  1.00  0.00     0.163 A 
HETATM   12  N4  UNL     1      21.845   0.765  52.931  1.00  0.00    -0.044 NA
ENDROOT
BRANCH   1  13
HETATM   13  N1  UNL     1      19.874   1.711  51.970  1.00  0.00    -0.188 N 
HETATM   14  H5  UNL     1      19.464   2.670  51.937  1.00  0.00     0.184 HD
BRANCH  13  15
HETATM   15  C4  UNL     1      18.994   0.594  52.012  1.00  0.00     0.054 A 
HETATM   16  C3  UNL     1      19.011  -0.435  53.071  1.00  0.00     0.033 A 
HETATM   17  C2  UNL     1      18.049  -1.325  52.783  1.00  0.00    -0.077 A 
HETATM   18  C1  UNL     1      17.796  -2.514  53.670  1.00  0.00     0.044 C 
HETATM   19  C21 UNL     1      17.336  -0.958  51.532  1.00  0.00     0.072 A 
HETATM   20  C19 UNL     1      18.042   0.293  51.141  1.00  0.00    -0.025 A 
BRANCH  20  21
HETATM   21  C20 UNL     1      17.699   1.076  49.928  1.00  0.00     0.201 C 
BRANCH  21  22
HETATM   22  O2  UNL     1      18.885   1.299  49.194  1.00  0.00    -0.397 OA
HETATM   23  H16 UNL     1      19.667   1.146  49.774  1.00  0.00     0.209 HD
ENDBRANCH  21  22
ENDBRANCH  20  21
ENDBRANCH  13  15
ENDBRANCH   1  13
BRANCH   6  24
HETATM   24  C10 UNL     1      27.270  -0.143  53.199  1.00  0.00     0.023 A 
HETATM   25  C11 UNL     1      28.169   0.785  53.703  1.00  0.00     0.046 A 
HETATM   26 CL1  UNL     1      27.498   2.368  54.129  1.00  0.00    -0.083 Cl
HETATM   27  C12 UNL     1      29.528   0.596  53.905  1.00  0.00     0.025 A 
HETATM   28  C13 UNL     1      30.030  -0.636  53.570  1.00  0.00     0.003 A 
HETATM   29  C14 UNL     1      29.198  -1.623  53.058  1.00  0.00     0.025 A 
HETATM   30  C15 UNL     1      27.851  -1.356  52.886  1.00  0.00     0.046 A 
HETATM   31 CL2  UNL     1      26.818  -2.629  52.233  1.00  0.00    -0.083 Cl
ENDBRANCH   6  24
TORSDOF 5
ENDMDL
MODEL 2
REMARK VINA RESULT:      -9.2      6.295      9.763
REMARK  5 active torsions:
REMARK  status: ('A' for Active; 'I' for Inactive)
REMARK    1  A    between atoms: C4_4  and  N1_5 
REMARK    2  A    between atoms: N1_5  and  C5_6 
REMARK    3  A    between atoms: C9_11  and  C10_12 
REMARK    4  A    between atoms: C19_26  and  C20_27 
REMARK    5  A    between atoms: C20_27  and  O2_28 
ROOT
HETATM    1  C5  UNL     1      27.187   6.403  48.621  1.00  0.00     0.728 A 
HETATM    2  N2  UNL     1      27.786   5.224  48.385  1.00  0.00    -0.074 NA
HETATM    3  C6  UNL     1      27.285   4.069  48.910  1.00  0.00     0.151 A 
HETATM    4  C7  UNL     1      26.156   4.174  49.679  1.00  0.00     0.030 A 
HETATM    5  C8  UNL     1      25.574   3.061  50.253  1.00  0.00     0.034 A 
HETATM    6  C9  UNL     1      24.433   3.134  51.035  1.00  0.00     0.047 A 
HETATM    7  C16 UNL     1      23.858   4.387  51.243  1.00  0.00     0.260 A 
HETATM    8  O1  UNL     1      22.811   4.561  51.943  1.00  0.00    -0.267 OA
HETATM    9  N3  UNL     1      24.407   5.487  50.693  1.00  0.00    -0.301 N 
HETATM   10  C17 UNL     1      23.866   6.836  50.861  1.00  0.00     0.161 C 
HETATM   11  C18 UNL     1      25.517   5.369  49.939  1.00  0.00     0.163 A 
HETATM   12  N4  UNL     1      26.079   6.480  49.380  1.00  0.00    -0.044 NA
ENDROOT
BRANCH   1  13
HETATM   13  N1  UNL     1      27.732   7.591  48.061  1.00  0.00    -0.188 N 
HETATM   14  H5  UNL     1      27.254   8.077  47.270  1.00  0.00     0.184 HD
BRANCH  13  15
HETATM   15  C4  UNL     1      28.942   8.142  48.569  1.00  0.00     0.054 A 
HETATM   16  C3  UNL     1      30.281   7.576  48.315  1.00  0.00     0.033 A 
HETATM   17  C2  UNL     1      31.174   8.353  48.946  1.00  0.00    -0.077 A 
HETATM   18  C1  UNL     1      32.647   8.052  48.891  1.00  0.00     0.044 C 
HETATM   19  C21 UNL     1      30.503   9.474  49.654  1.00  0.00     0.072 A 
HETATM   20  C19 UNL     1      29.072   9.219  49.329  1.00  0.00    -0.025 A 
BRANCH  20  21
HETATM   21  C20 UNL     1      27.963  10.080  49.810  1.00  0.00     0.201 C 
BRANCH  21  22
HETATM   22  O2  UNL     1      27.659   9.709  51.139  1.00  0.00    -0.397 OA
HETATM   23  H16 UNL     1      26.921  10.268  51.478  1.00  0.00     0.209 HD
ENDBRANCH  21  22
ENDBRANCH  20  21
ENDBRANCH  13  15
ENDBRANCH   1  13
BRANCH   6  24
HETATM   24  C10 UNL     1      23.743   2.056  51.680  1.00  0.00     0.023 A 
HETATM   25  C11 UNL     1      22.672   1.407  51.083  1.00  0.00     0.046 A 
HETATM   26 CL1  UNL     1      22.205   1.990  49.477  1.00  0.00    -0.083 Cl
HETATM   27  C12 UNL     1      21.938   0.358  51.615  1.00  0.00     0.025 A 
HETATM   28  C13 UNL     1      22.314  -0.081  52.860  1.00  0.00     0.003 A 
HETATM   29  C14 UNL     1      23.376   0.514  53.528  1.00  0.00     0.025 A 
HETATM   30  C15 UNL     1      24.059   1.557  52.929  1.00  0.00     0.046 A 
HETATM   31 CL2  UNL     1      25.405   2.293  53.801  1.00  0.00    -0.083 Cl
ENDBRANCH   6  24
TORSDOF 5
ENDMDL
MODEL 3
REMARK VINA RESULT:      -9.2      1.366      2.131
REMARK  5 active torsions:
REMARK  status: ('A' for Active; 'I' for Inactive)
REMARK    1  A    between atoms: C4_4  and  N1_5 
REMARK    2  A    between atoms: N1_5  and  C5_6 
REMARK    3  A    between atoms: C9_11  and  C10_12 
REMARK    4  A    between atoms: C19_26  and  C20_27 
REMARK    5  A    between atoms: C20_27  and  O2_28 
ROOT
HETATM    1  C5  UNL     1      21.120   1.333  52.734  1.00  0.00     0.728 A 
HETATM    2  N2  UNL     1      21.228   0.470  53.758  1.00  0.00    -0.074 NA
HETATM    3  C6  UNL     1      22.443  -0.039  54.116  1.00  0.00     0.151 A 
HETATM    4  C7  UNL     1      23.527   0.371  53.387  1.00  0.00     0.030 A 
HETATM    5  C8  UNL     1      24.798  -0.089  53.674  1.00  0.00     0.034 A 
HETATM    6  C9  UNL     1      25.915   0.306  52.956  1.00  0.00     0.047 A 
HETATM    7  C16 UNL     1      25.737   1.204  51.905  1.00  0.00     0.260 A 
HETATM    8  O1  UNL     1      26.696   1.629  51.186  1.00  0.00    -0.267 OA
HETATM    9  N3  UNL     1      24.508   1.667  51.607  1.00  0.00    -0.301 N 
HETATM   10  C17 UNL     1      24.235   2.610  50.521  1.00  0.00     0.161 C 
HETATM   11  C18 UNL     1      23.449   1.256  52.331  1.00  0.00     0.163 A 
HETATM   12  N4  UNL     1      22.201   1.721  52.033  1.00  0.00    -0.044 NA
ENDROOT
BRANCH   1  13
HETATM   13  N1  UNL     1      19.842   1.848  52.382  1.00  0.00    -0.188 N 
HETATM   14  H5  UNL     1      19.588   2.838  52.593  1.00  0.00     0.184 HD
BRANCH  13  15
HETATM   15  C4  UNL     1      18.881   1.020  51.737  1.00  0.00     0.054 A 
HETATM   16  C3  UNL     1      17.974   0.095  52.445  1.00  0.00     0.033 A 
HETATM   17  C2  UNL     1      17.216  -0.513  51.520  1.00  0.00    -0.077 A 
HETATM   18  C1  UNL     1      16.176  -1.529  51.909  1.00  0.00     0.044 C 
HETATM   19  C21 UNL     1      17.558  -0.043  50.152  1.00  0.00     0.072 A 
HETATM   20  C19 UNL     1      18.641   0.939  50.437  1.00  0.00    -0.025 A 
BRANCH  20  21
HETATM   21  C20 UNL     1      19.340   1.709  49.377  1.00  0.00     0.201 C 
BRANCH  21  22
HETATM   22  O2  UNL     1      20.706   1.352  49.398  1.00  0.00    -0.397 OA
HETATM   23  H16 UNL     1      20.830   0.545  49.951  1.00  0.00     0.209 HD
ENDBRANCH  21  22
ENDBRANCH  20  21
ENDBRANCH  13  15
ENDBRANCH   1  13
BRANCH   6  24
HETATM   24  C10 UNL     1      27.275  -0.100  53.159  1.00  0.00     0.023 A 
HETATM   25  C11 UNL     1      28.222   0.751  53.707  1.00  0.00     0.046 A 
HETATM   26 CL1  UNL     1      27.655   2.372  54.141  1.00  0.00    -0.083 Cl
HETATM   27  C12 UNL     1      29.557   0.461  53.945  1.00  0.00     0.025 A 
HETATM   28  C13 UNL     1      29.979  -0.800  53.603  1.00  0.00     0.003 A 
HETATM   29  C14 UNL     1      29.094  -1.714  53.048  1.00  0.00     0.025 A 
HETATM   30  C15 UNL     1      27.776  -1.348  52.841  1.00  0.00     0.046 A 
HETATM   31 CL2  UNL     1      26.674  -2.531  52.135  1.00  0.00    -0.083 Cl
ENDBRANCH   6  24
TORSDOF 5
ENDMDL
MODEL 4
REMARK VINA RESULT:      -9.2      4.267      8.909
REMARK  5 active torsions:
REMARK  status: ('A' for Active; 'I' for Inactive)
REMARK    1  A    between atoms: C4_4  and  N1_5 
REMARK    2  A    between atoms: N1_5  and  C5_6 
REMARK    3  A    between atoms: C9_11  and  C10_12 
REMARK    4  A    between atoms: C19_26  and  C20_27 
REMARK    5  A    between atoms: C20_27  and  O2_28 
ROOT
HETATM    1  C5  UNL     1      26.081   2.235  52.472  1.00  0.00     0.728 A 
HETATM    2  N2  UNL     1      26.968   2.497  51.496  1.00  0.00    -0.074 NA
HETATM    3  C6  UNL     1      26.579   3.130  50.352  1.00  0.00     0.151 A 
HETATM    4  C7  UNL     1      25.258   3.477  50.253  1.00  0.00     0.030 A 
HETATM    5  C8  UNL     1      24.769   4.122  49.133  1.00  0.00     0.034 A 
HETATM    6  C9  UNL     1      23.440   4.486  49.001  1.00  0.00     0.047 A 
HETATM    7  C16 UNL     1      22.569   4.186  50.048  1.00  0.00     0.260 A 
HETATM    8  O1  UNL     1      21.332   4.479  50.026  1.00  0.00    -0.267 OA
HETATM    9  N3  UNL     1      23.023   3.559  51.150  1.00  0.00    -0.301 N 
HETATM   10  C17 UNL     1      22.177   3.209  52.292  1.00  0.00     0.161 C 
HETATM   11  C18 UNL     1      24.324   3.222  51.236  1.00  0.00     0.163 A 
HETATM   12  N4  UNL     1      24.789   2.586  52.350  1.00  0.00    -0.044 NA
ENDROOT
BRANCH   1  13
HETATM   13  N1  UNL     1      26.515   1.573  53.654  1.00  0.00    -0.188 N 
HETATM   14  H5  UNL     1      26.057   1.766  54.572  1.00  0.00     0.184 HD
BRANCH  13  15
HETATM   15  C4  UNL     1      27.584   0.635  53.608  1.00  0.00     0.054 A 
HETATM   16  C3  UNL     1      27.420  -0.793  53.273  1.00  0.00     0.033 A 
HETATM   17  C2  UNL     1      28.633  -1.362  53.329  1.00  0.00    -0.077 A 
HETATM   18  C1  UNL     1      28.822  -2.827  53.038  1.00  0.00     0.044 C 
HETATM   19  C21 UNL     1      29.675  -0.370  53.701  1.00  0.00     0.072 A 
HETATM   20  C19 UNL     1      28.865   0.871  53.851  1.00  0.00    -0.025 A 
BRANCH  20  21
HETATM   21  C20 UNL     1      29.449   2.184  54.223  1.00  0.00     0.201 C 
BRANCH  21  22
HETATM   22  O2  UNL     1      29.373   3.038  53.101  1.00  0.00    -0.397 OA
HETATM   23  H16 UNL     1      30.207   3.558  53.024  1.00  0.00     0.209 HD
ENDBRANCH  21  22
ENDBRANCH  20  21
ENDBRANCH  13  15
ENDBRANCH   1  13
BRANCH   6  24
HETATM   24  C10 UNL     1      22.820   5.154  47.894  1.00  0.00     0.023 A 
HETATM   25  C11 UNL     1      22.213   4.456  46.861  1.00  0.00     0.046 A 
HETATM   26 CL1  UNL     1      22.249   2.689  46.988  1.00  0.00    -0.083 Cl
HETATM   27  C12 UNL     1      21.588   5.000  45.749  1.00  0.00     0.025 A 
HETATM   28  C13 UNL     1      21.569   6.370  45.669  1.00  0.00     0.003 A 
HETATM   29  C14 UNL     1      22.154   7.144  46.661  1.00  0.00     0.025 A 
HETATM   30  C15 UNL     1      22.760   6.526  47.740  1.00  0.00     0.046 A 
HETATM   31 CL2  UNL     1      23.495   7.535  48.986  1.00  0.00    -0.083 Cl
ENDBRANCH   6  24
TORSDOF 5
ENDMDL
MODEL 5
REMARK VINA RESULT:      -8.6      6.450      9.620
REMARK  5 active torsions:
REMARK  status: ('A' for Active; 'I' for Inactive)
REMARK    1  A    between atoms: C4_4  and  N1_5 
REMARK    2  A    between atoms: N1_5  and  C5_6 
REMARK    3  A    between atoms: C9_11  and  C10_12 
REMARK    4  A    between atoms: C19_26  and  C20_27 
REMARK    5  A    between atoms: C20_27  and  O2_28 
ROOT
HETATM    1  C5  UNL     1      27.034   6.665  48.865  1.00  0.00     0.728 A 
HETATM    2  N2  UNL     1      27.620   5.502  48.531  1.00  0.00    -0.074 NA
HETATM    3  C6  UNL     1      27.079   4.312  48.920  1.00  0.00     0.151 A 
HETATM    4  C7  UNL     1      25.925   4.364  49.656  1.00  0.00     0.030 A 
HETATM    5  C8  UNL     1      25.303   3.212  50.095  1.00  0.00     0.034 A 
HETATM    6  C9  UNL     1      24.136   3.230  50.841  1.00  0.00     0.047 A 
HETATM    7  C16 UNL     1      23.577   4.468  51.154  1.00  0.00     0.260 A 
HETATM    8  O1  UNL     1      22.508   4.594  51.832  1.00  0.00    -0.267 OA
HETATM    9  N3  UNL     1      24.165   5.606  50.737  1.00  0.00    -0.301 N 
HETATM   10  C17 UNL     1      23.643   6.943  51.022  1.00  0.00     0.161 C 
HETATM   11  C18 UNL     1      25.299   5.541  50.014  1.00  0.00     0.163 A 
HETATM   12  N4  UNL     1      25.901   6.690  49.589  1.00  0.00    -0.044 NA
ENDROOT
BRANCH   1  13
HETATM   13  N1  UNL     1      27.620   7.891  48.446  1.00  0.00    -0.188 N 
HETATM   14  H5  UNL     1      27.850   8.637  49.140  1.00  0.00     0.184 HD
BRANCH  13  15
HETATM   15  C4  UNL     1      27.904   8.126  47.072  1.00  0.00     0.054 A 
HETATM   16  C3  UNL     1      26.889   8.500  46.068  1.00  0.00     0.033 A 
HETATM   17  C2  UNL     1      27.517   8.637  44.890  1.00  0.00    -0.077 A 
HETATM   18  C1  UNL     1      26.765   9.017  43.644  1.00  0.00     0.044 C 
HETATM   19  C21 UNL     1      28.973   8.370  45.025  1.00  0.00     0.072 A 
HETATM   20  C19 UNL     1      29.085   8.054  46.477  1.00  0.00    -0.025 A 
BRANCH  20  21
HETATM   21  C20 UNL     1      30.369   7.707  47.136  1.00  0.00     0.201 C 
BRANCH  21  22
HETATM   22  O2  UNL     1      30.280   6.378  47.606  1.00  0.00    -0.397 OA
HETATM   23  H16 UNL     1      29.501   6.289  48.203  1.00  0.00     0.209 HD
ENDBRANCH  21  22
ENDBRANCH  20  21
ENDBRANCH  13  15
ENDBRANCH   1  13
BRANCH   6  24
HETATM   24  C10 UNL     1      23.404   2.108  51.349  1.00  0.00     0.023 A 
HETATM   25  C11 UNL     1      23.675   1.555  52.591  1.00  0.00     0.046 A 
HETATM   26 CL1  UNL     1      24.983   2.315  53.514  1.00  0.00    -0.083 Cl
HETATM   27  C12 UNL     1      23.031   0.475  53.176  1.00  0.00     0.025 A 
HETATM   28  C13 UNL     1      22.020  -0.101  52.447  1.00  0.00     0.003 A 
HETATM   29  C14 UNL     1      21.684   0.392  51.194  1.00  0.00     0.025 A 
HETATM   30  C15 UNL     1      22.376   1.474  50.678  1.00  0.00     0.046 A 
HETATM   31 CL2  UNL     1      21.926   2.079  49.083  1.00  0.00    -0.083 Cl
ENDBRANCH   6  24
TORSDOF 5
ENDMDL
MODEL 6
REMARK VINA RESULT:      -8.6      5.239      8.940
REMARK  5 active torsions:
REMARK  status: ('A' for Active; 'I' for Inactive)
REMARK    1  A    between atoms: C4_4  and  N1_5 
REMARK    2  A    between atoms: N1_5  and  C5_6 
REMARK    3  A    between atoms: C9_11  and  C10_12 
REMARK    4  A    between atoms: C19_26  and  C20_27 
REMARK    5  A    between atoms: C20_27  and  O2_28 
ROOT
HETATM    1  C5  UNL     1      25.766   2.171  51.613  1.00  0.00     0.728 A 
HETATM    2  N2  UNL     1      26.685   2.209  50.633  1.00  0.00    -0.074 NA
HETATM    3  C6  UNL     1      26.726   3.253  49.756  1.00  0.00     0.151 A 
HETATM    4  C7  UNL     1      25.795   4.244  49.925  1.00  0.00     0.030 A 
HETATM    5  C8  UNL     1      25.757   5.341  49.088  1.00  0.00     0.034 A 
HETATM    6  C9  UNL     1      24.829   6.359  49.232  1.00  0.00     0.047 A 
HETATM    7  C16 UNL     1      23.902   6.262  50.268  1.00  0.00     0.260 A 
HETATM    8  O1  UNL     1      23.011   7.142  50.487  1.00  0.00    -0.267 OA
HETATM    9  N3  UNL     1      23.920   5.201  51.098  1.00  0.00    -0.301 N 
HETATM   10  C17 UNL     1      22.984   5.023  52.209  1.00  0.00     0.161 C 
HETATM   11  C18 UNL     1      24.840   4.234  50.921  1.00  0.00     0.163 A 
HETATM   12  N4  UNL     1      24.863   3.156  51.759  1.00  0.00    -0.044 NA
ENDROOT
BRANCH   1  13
HETATM   13  N1  UNL     1      25.747   1.070  52.513  1.00  0.00    -0.188 N 
HETATM   14  H5  UNL     1      24.846   0.715  52.903  1.00  0.00     0.184 HD
BRANCH  13  15
HETATM   15  C4  UNL     1      26.957   0.431  52.902  1.00  0.00     0.054 A 
HETATM   16  C3  UNL     1      27.229  -1.009  52.721  1.00  0.00     0.033 A 
HETATM   17  C2  UNL     1      28.459  -1.250  53.200  1.00  0.00    -0.077 A 
HETATM   18  C1  UNL     1      29.051  -2.633  53.169  1.00  0.00     0.044 C 
HETATM   19  C21 UNL     1      29.083  -0.008  53.726  1.00  0.00     0.072 A 
HETATM   20  C19 UNL     1      28.011   0.995  53.472  1.00  0.00    -0.025 A 
BRANCH  20  21
HETATM   21  C20 UNL     1      28.141   2.431  53.825  1.00  0.00     0.201 C 
BRANCH  21  22
HETATM   22  O2  UNL     1      28.935   3.059  52.840  1.00  0.00    -0.397 OA
HETATM   23  H16 UNL     1      28.360   3.598  52.247  1.00  0.00     0.209 HD
ENDBRANCH  21  22
ENDBRANCH  20  21
ENDBRANCH  13  15
ENDBRANCH   1  13
BRANCH   6  24
HETATM   24  C10 UNL     1      24.692   7.540  48.430  1.00  0.00     0.023 A 
HETATM   25  C11 UNL     1      25.403   8.699  48.701  1.00  0.00     0.046 A 
HETATM   26 CL1  UNL     1      26.490   8.638  50.098  1.00  0.00    -0.083 Cl
HETATM   27  C12 UNL     1      25.346   9.890  47.992  1.00  0.00     0.025 A 
HETATM   28  C13 UNL     1      24.499   9.919  46.913  1.00  0.00     0.003 A 
HETATM   29  C14 UNL     1      23.750   8.801  46.572  1.00  0.00     0.025 A 
HETATM   30  C15 UNL     1      23.863   7.648  47.330  1.00  0.00     0.046 A 
HETATM   31 CL2  UNL     1      22.899   6.242  46.873  1.00  0.00    -0.083 Cl
ENDBRANCH   6  24
TORSDOF 5
ENDMDL
MODEL 7
REMARK VINA RESULT:      -8.5      4.978      8.374
REMARK  5 active torsions:
REMARK  status: ('A' for Active; 'I' for Inactive)
REMARK    1  A    between atoms: C4_4  and  N1_5 
REMARK    2  A    between atoms: N1_5  and  C5_6 
REMARK    3  A    between atoms: C9_11  and  C10_12 
REMARK    4  A    between atoms: C19_26  and  C20_27 
REMARK    5  A    between atoms: C20_27  and  O2_28 
ROOT
HETATM    1  C5  UNL     1      24.073   5.953  49.607  1.00  0.00     0.728 A 
HETATM    2  N2  UNL     1      24.161   6.234  50.918  1.00  0.00    -0.074 NA
HETATM    3  C6  UNL     1      23.753   5.330  51.855  1.00  0.00     0.151 A 
HETATM    4  C7  UNL     1      23.256   4.139  51.394  1.00  0.00     0.030 A 
HETATM    5  C8  UNL     1      22.819   3.161  52.264  1.00  0.00     0.034 A 
HETATM    6  C9  UNL     1      22.311   1.947  51.831  1.00  0.00     0.047 A 
HETATM    7  C16 UNL     1      22.245   1.716  50.457  1.00  0.00     0.260 A 
HETATM    8  O1  UNL     1      21.798   0.636  49.957  1.00  0.00    -0.267 OA
HETATM    9  N3  UNL     1      22.667   2.655  49.589  1.00  0.00    -0.301 N 
HETATM   10  C17 UNL     1      22.632   2.491  48.134  1.00  0.00     0.161 C 
HETATM   11  C18 UNL     1      23.153   3.821  50.055  1.00  0.00     0.163 A 
HETATM   12  N4  UNL     1      23.581   4.777  49.180  1.00  0.00    -0.044 NA
ENDROOT
BRANCH   1  13
HETATM   13  N1  UNL     1      24.505   6.915  48.653  1.00  0.00    -0.188 N 
HETATM   14  H5  UNL     1      23.827   7.581  48.221  1.00  0.00     0.184 HD
BRANCH  13  15
HETATM   15  C4  UNL     1      25.873   6.989  48.268  1.00  0.00     0.054 A 
HETATM   16  C3  UNL     1      26.883   5.962  48.594  1.00  0.00     0.033 A 
HETATM   17  C2  UNL     1      28.051   6.366  48.072  1.00  0.00    -0.077 A 
HETATM   18  C1  UNL     1      29.300   5.541  48.225  1.00  0.00     0.044 C 
HETATM   19  C21 UNL     1      27.905   7.670  47.374  1.00  0.00     0.072 A 
HETATM   20  C19 UNL     1      26.457   7.956  47.576  1.00  0.00    -0.025 A 
BRANCH  20  21
HETATM   21  C20 UNL     1      25.789   9.175  47.056  1.00  0.00     0.201 C 
BRANCH  21  22
HETATM   22  O2  UNL     1      25.125   9.809  48.129  1.00  0.00    -0.397 OA
HETATM   23  H16 UNL     1      24.915  10.740  47.885  1.00  0.00     0.209 HD
ENDBRANCH  21  22
ENDBRANCH  20  21
ENDBRANCH  13  15
ENDBRANCH   1  13
BRANCH   6  24
HETATM   24  C10 UNL     1      21.830   0.862  52.634  1.00  0.00     0.023 A 
HETATM   25  C11 UNL     1      22.688  -0.056  53.220  1.00  0.00     0.046 A 
HETATM   26 CL1  UNL     1      24.416   0.190  52.919  1.00  0.00    -0.083 Cl
HETATM   27  C12 UNL     1      22.329  -1.137  54.012  1.00  0.00     0.025 A 
HETATM   28  C13 UNL     1      20.986  -1.311  54.235  1.00  0.00     0.003 A 
HETATM   29  C14 UNL     1      20.059  -0.437  53.684  1.00  0.00     0.025 A 
HETATM   30  C15 UNL     1      20.497   0.618  52.904  1.00  0.00     0.046 A 
HETATM   31 CL2  UNL     1      19.295   1.713  52.218  1.00  0.00    -0.083 Cl
ENDBRANCH   6  24
TORSDOF 5
ENDMDL
MODEL 8
REMARK VINA RESULT:      -8.4      6.668     10.038
REMARK  5 active torsions:
REMARK  status: ('A' for Active; 'I' for Inactive)
REMARK    1  A    between atoms: C4_4  and  N1_5 
REMARK    2  A    between atoms: N1_5  and  C5_6 
REMARK    3  A    between atoms: C9_11  and  C10_12 
REMARK    4  A    between atoms: C19_26  and  C20_27 
REMARK    5  A    between atoms: C20_27  and  O2_28 
ROOT
HETATM    1  C5  UNL     1      27.255   6.819  48.754  1.00  0.00     0.728 A 
HETATM    2  N2  UNL     1      27.830   5.645  48.441  1.00  0.00    -0.074 NA
HETATM    3  C6  UNL     1      27.264   4.466  48.829  1.00  0.00     0.151 A 
HETATM    4  C7  UNL     1      26.099   4.542  49.544  1.00  0.00     0.030 A 
HETATM    5  C8  UNL     1      25.451   3.402  49.981  1.00  0.00     0.034 A 
HETATM    6  C9  UNL     1      24.272   3.444  50.706  1.00  0.00     0.047 A 
HETATM    7  C16 UNL     1      23.726   4.693  51.000  1.00  0.00     0.260 A 
HETATM    8  O1  UNL     1      22.648   4.840  51.657  1.00  0.00    -0.267 OA
HETATM    9  N3  UNL     1      24.339   5.818  50.584  1.00  0.00    -0.301 N 
HETATM   10  C17 UNL     1      23.832   7.165  50.850  1.00  0.00     0.161 C 
HETATM   11  C18 UNL     1      25.484   5.730  49.882  1.00  0.00     0.163 A 
HETATM   12  N4  UNL     1      26.110   6.867  49.458  1.00  0.00    -0.044 NA
ENDROOT
BRANCH   1  13
HETATM   13  N1  UNL     1      27.867   8.033  48.337  1.00  0.00    -0.188 N 
HETATM   14  H5  UNL     1      27.331   8.929  48.336  1.00  0.00     0.184 HD
BRANCH  13  15
HETATM   15  C4  UNL     1      29.225   8.051  47.911  1.00  0.00     0.054 A 
HETATM   16  C3  UNL     1      30.382   7.993  48.825  1.00  0.00     0.033 A 
HETATM   17  C2  UNL     1      31.492   8.030  48.073  1.00  0.00    -0.077 A 
HETATM   18  C1  UNL     1      32.860   7.988  48.700  1.00  0.00     0.044 C 
HETATM   19  C21 UNL     1      31.159   8.114  46.628  1.00  0.00     0.072 A 
HETATM   20  C19 UNL     1      29.670   8.119  46.665  1.00  0.00    -0.025 A 
BRANCH  20  21
HETATM   21  C20 UNL     1      28.826   8.193  45.445  1.00  0.00     0.201 C 
BRANCH  21  22
HETATM   22  O2  UNL     1      29.677   8.335  44.327  1.00  0.00    -0.397 OA
HETATM   23  H16 UNL     1      30.548   8.693  44.617  1.00  0.00     0.209 HD
ENDBRANCH  21  22
ENDBRANCH  20  21
ENDBRANCH  13  15
ENDBRANCH   1  13
BRANCH   6  24
HETATM   24  C10 UNL     1      23.514   2.337  51.210  1.00  0.00     0.023 A 
HETATM   25  C11 UNL     1      23.726   1.818  52.478  1.00  0.00     0.046 A 
HETATM   26 CL1  UNL     1      24.991   2.601  53.439  1.00  0.00    -0.083 Cl
HETATM   27  C12 UNL     1      23.052   0.755  53.061  1.00  0.00     0.025 A 
HETATM   28  C13 UNL     1      22.076   0.161  52.302  1.00  0.00     0.003 A 
HETATM   29  C14 UNL     1      21.799   0.619  51.021  1.00  0.00     0.025 A 
HETATM   30  C15 UNL     1      22.517   1.686  50.509  1.00  0.00     0.046 A 
HETATM   31 CL2  UNL     1      22.144   2.248  48.879  1.00  0.00    -0.083 Cl
ENDBRANCH   6  24
TORSDOF 5
ENDMDL
MODEL 9
REMARK VINA RESULT:      -8.3      7.432      8.984
REMARK  5 active torsions:
REMARK  status: ('A' for Active; 'I' for Inactive)
REMARK    1  A    between atoms: C4_4  and  N1_5 
REMARK    2  A    between atoms: N1_5  and  C5_6 
REMARK    3  A    between atoms: C9_11  and  C10_12 
REMARK    4  A    between atoms: C19_26  and  C20_27 
REMARK    5  A    between atoms: C20_27  and  O2_28 
ROOT
HETATM    1  C5  UNL     1      25.236   5.168  50.123  1.00  0.00     0.728 A 
HETATM    2  N2  UNL     1      25.990   4.179  49.615  1.00  0.00    -0.074 NA
HETATM    3  C6  UNL     1      27.121   4.457  48.905  1.00  0.00     0.151 A 
HETATM    4  C7  UNL     1      27.441   5.779  48.739  1.00  0.00     0.030 A 
HETATM    5  C8  UNL     1      28.566   6.161  48.036  1.00  0.00     0.034 A 
HETATM    6  C9  UNL     1      28.917   7.488  47.850  1.00  0.00     0.047 A 
HETATM    7  C16 UNL     1      28.094   8.468  48.401  1.00  0.00     0.260 A 
HETATM    8  O1  UNL     1      28.327   9.713  48.289  1.00  0.00    -0.267 OA
HETATM    9  N3  UNL     1      26.991   8.120  49.092  1.00  0.00    -0.301 N 
HETATM   10  C17 UNL     1      26.075   9.086  49.702  1.00  0.00     0.161 C 
HETATM   11  C18 UNL     1      26.688   6.818  49.248  1.00  0.00     0.163 A 
HETATM   12  N4  UNL     1      25.571   6.458  49.946  1.00  0.00    -0.044 NA
ENDROOT
BRANCH   1  13
HETATM   13  N1  UNL     1      24.062   4.848  50.859  1.00  0.00    -0.188 N 
HETATM   14  H5  UNL     1      23.584   5.570  51.442  1.00  0.00     0.184 HD
BRANCH  13  15
HETATM   15  C4  UNL     1      23.516   3.535  50.815  1.00  0.00     0.054 A 
HETATM   16  C3  UNL     1      22.612   3.048  49.754  1.00  0.00     0.033 A 
HETATM   17  C2  UNL     1      22.303   1.774  50.041  1.00  0.00    -0.077 A 
HETATM   18  C1  UNL     1      21.391   0.974  49.152  1.00  0.00     0.044 C 
HETATM   19  C21 UNL     1      22.968   1.330  51.294  1.00  0.00     0.072 A 
HETATM   20  C19 UNL     1      23.715   2.557  51.687  1.00  0.00    -0.025 A 
BRANCH  20  21
HETATM   21  C20 UNL     1      24.563   2.639  52.902  1.00  0.00     0.201 C 
BRANCH  21  22
HETATM   22  O2  UNL     1      25.902   2.833  52.497  1.00  0.00    -0.397 OA
HETATM   23  H16 UNL     1      26.322   1.961  52.312  1.00  0.00     0.209 HD
ENDBRANCH  21  22
ENDBRANCH  20  21
ENDBRANCH  13  15
ENDBRANCH   1  13
BRANCH   6  24
HETATM   24  C10 UNL     1      30.053   8.003  47.144  1.00  0.00     0.023 A 
HETATM   25  C11 UNL     1      31.287   8.165  47.754  1.00  0.00     0.046 A 
HETATM   26 CL1  UNL     1      31.379   7.698  49.461  1.00  0.00    -0.083 Cl
HETATM   27  C12 UNL     1      32.445   8.651  47.166  1.00  0.00     0.025 A 
HETATM   28  C13 UNL     1      32.355   9.007  45.844  1.00  0.00     0.003 A 
HETATM   29  C14 UNL     1      31.156   8.877  45.157  1.00  0.00     0.025 A 
HETATM   30  C15 UNL     1      30.044   8.383  45.815  1.00  0.00     0.046 A 
HETATM   31 CL2  UNL     1      28.533   8.229  44.917  1.00  0.00    -0.083 Cl
ENDBRANCH   6  24
TORSDOF 5
ENDMDL
