MODEL 1
REMARK VINA RESULT:      -7.0      0.000      0.000
REMARK  7 active torsions:
REMARK  status: ('A' for Active; 'I' for Inactive)
REMARK    1  A    between atoms: C3_3  and  C4_4 
REMARK    2  A    between atoms: C3_3  and  N1_7 
REMARK    3  A    between atoms: N1_7  and  C7_9 
REMARK    4  A    between atoms: C8_10  and  C9_11 
REMARK    5  A    between atoms: C9_11  and  N2_12 
REMARK    6  A    between atoms: C9_11  and  C10_13 
REMARK    7  A    between atoms: C19_23  and  O1_24 
ROOT
HETATM    1  C1  UNL     1      26.735   3.246  50.281  1.00  0.00     0.014 C 
HETATM    2  C2  UNL     1      26.263   2.341  50.917  1.00  0.00    -0.091 C 
HETATM    3  C3  UNL     1      25.685   1.240  51.712  1.00  0.00     0.170 C 
ENDROOT
BRANCH   3   4
HETATM    4  C4  UNL     1      26.789   0.324  52.116  1.00  0.00     0.066 C 
HETATM    5  C5  UNL     1      26.951  -0.982  52.229  1.00  0.00     0.421 C 
HETATM    6  F1  UNL     1      26.551  -2.288  52.157  1.00  0.00    -0.455 F 
ENDBRANCH   3   4
BRANCH   3   7
HETATM    7  N1  UNL     1      24.923   1.728  52.851  1.00  0.00    -0.367 N 
HETATM    8  C6  UNL     1      25.717   2.437  53.865  1.00  0.00     0.151 C 
BRANCH   7   9
HETATM    9  C7  UNL     1      23.516   1.504  52.916  1.00  0.00     0.074 A 
HETATM   10  C8  UNL     1      22.663   2.496  52.420  1.00  0.00     0.008 A 
HETATM   11  C16 UNL     1      21.321   2.212  52.515  1.00  0.00     0.013 A 
HETATM   12  C17 UNL     1      20.856   1.033  53.060  1.00  0.00     0.022 A 
HETATM   13  C18 UNL     1      21.710   0.071  53.542  1.00  0.00     0.046 A 
HETATM   14 BR1  UNL     1      20.930  -1.506  54.266  1.00  0.00    -0.048 Br
HETATM   15  C19 UNL     1      23.057   0.337  53.455  1.00  0.00     0.110 A 
BRANCH  10  16
HETATM   16  C9  UNL     1      23.273   3.725  51.854  1.00  0.00     0.286 C 
BRANCH  16  17
HETATM   17  N2  UNL     1      22.948   4.921  52.594  1.00  0.00     0.091 N 
HETATM   18  H9  UNL     1      23.734   5.293  53.140  1.00  0.00     0.314 HD
HETATM   19  H10 UNL     1      22.071   4.734  53.109  1.00  0.00     0.314 HD
ENDBRANCH  16  17
BRANCH  16  20
HETATM   20  C10 UNL     1      22.953   3.834  50.408  1.00  0.00    -0.021 A 
HETATM   21  C11 UNL     1      23.006   2.753  49.555  1.00  0.00     0.009 A 
HETATM   22  C12 UNL     1      22.716   2.837  48.201  1.00  0.00     0.001 A 
HETATM   23  C13 UNL     1      22.357   4.056  47.670  1.00  0.00     0.000 A 
HETATM   24  C14 UNL     1      22.303   5.148  48.528  1.00  0.00     0.001 A 
HETATM   25  C15 UNL     1      22.594   5.061  49.889  1.00  0.00     0.009 A 
ENDBRANCH  16  20
ENDBRANCH  10  16
BRANCH  15  26
HETATM   26  O1  UNL     1      23.916  -0.656  53.952  1.00  0.00    -0.357 OA
HETATM   27  H18 UNL     1      24.885  -0.587  53.603  1.00  0.00     0.217 HD
ENDBRANCH  15  26
ENDBRANCH   7   9
ENDBRANCH   3   7
TORSDOF 7
ENDMDL
MODEL 2
REMARK VINA RESULT:      -6.8      3.208      5.892
REMARK  7 active torsions:
REMARK  status: ('A' for Active; 'I' for Inactive)
REMARK    1  A    between atoms: C3_3  and  C4_4 
REMARK    2  A    between atoms: C3_3  and  N1_7 
REMARK    3  A    between atoms: N1_7  and  C7_9 
REMARK    4  A    between atoms: C8_10  and  C9_11 
REMARK    5  A    between atoms: C9_11  and  N2_12 
REMARK    6  A    between atoms: C9_11  and  C10_13 
REMARK    7  A    between atoms: C19_23  and  O1_24 
ROOT
HETATM    1  C1  UNL     1      21.586  -0.133  54.594  1.00  0.00     0.014 C 
HETATM    2  C2  UNL     1      21.339   0.197  53.464  1.00  0.00    -0.091 C 
HETATM    3  C3  UNL     1      21.031   0.617  52.083  1.00  0.00     0.170 C 
ENDROOT
BRANCH   3   4
HETATM    4  C4  UNL     1      19.625   0.227  51.777  1.00  0.00     0.066 C 
HETATM    5  C5  UNL     1      18.685  -0.488  52.369  1.00  0.00     0.421 C 
HETATM    6  F1  UNL     1      18.167  -1.265  53.369  1.00  0.00    -0.455 F 
ENDBRANCH   3   4
BRANCH   3   7
HETATM    7  N1  UNL     1      21.271   2.036  51.877  1.00  0.00    -0.367 N 
HETATM    8  C6  UNL     1      20.498   2.926  52.756  1.00  0.00     0.151 C 
BRANCH   7   9
HETATM    9  C7  UNL     1      22.199   2.465  50.882  1.00  0.00     0.074 A 
HETATM   10  C8  UNL     1      23.503   2.774  51.281  1.00  0.00     0.008 A 
HETATM   11  C16 UNL     1      24.342   3.180  50.271  1.00  0.00     0.013 A 
HETATM   12  C17 UNL     1      23.922   3.273  48.960  1.00  0.00     0.022 A 
HETATM   13  C18 UNL     1      22.636   2.965  48.587  1.00  0.00     0.046 A 
HETATM   14 BR1  UNL     1      22.194   3.138  46.745  1.00  0.00    -0.048 Br
HETATM   15  C19 UNL     1      21.781   2.557  49.585  1.00  0.00     0.110 A 
BRANCH  10  16
HETATM   16  C9  UNL     1      23.846   2.637  52.719  1.00  0.00     0.286 C 
BRANCH  16  17
HETATM   17  N2  UNL     1      24.094   3.899  53.374  1.00  0.00     0.091 N 
HETATM   18  H9  UNL     1      23.733   3.944  54.333  1.00  0.00     0.314 HD
HETATM   19  H10 UNL     1      23.788   4.646  52.726  1.00  0.00     0.314 HD
ENDBRANCH  16  17
BRANCH  16  20
HETATM   20  C10 UNL     1      24.960   1.669  52.888  1.00  0.00    -0.021 A 
HETATM   21  C11 UNL     1      24.832   0.333  52.573  1.00  0.00     0.009 A 
HETATM   22  C12 UNL     1      25.858  -0.587  52.730  1.00  0.00     0.001 A 
HETATM   23  C13 UNL     1      27.070  -0.157  53.225  1.00  0.00     0.000 A 
HETATM   24  C14 UNL     1      27.201   1.190  53.543  1.00  0.00     0.001 A 
HETATM   25  C15 UNL     1      26.168   2.112  53.385  1.00  0.00     0.009 A 
ENDBRANCH  16  20
ENDBRANCH  10  16
BRANCH  15  26
HETATM   26  O1  UNL     1      20.471   2.246  49.188  1.00  0.00    -0.357 OA
HETATM   27  H18 UNL     1      19.878   1.877  49.948  1.00  0.00     0.217 HD
ENDBRANCH  15  26
ENDBRANCH   7   9
ENDBRANCH   3   7
TORSDOF 7
ENDMDL
MODEL 3
REMARK VINA RESULT:      -6.5      2.651      4.499
REMARK  7 active torsions:
REMARK  status: ('A' for Active; 'I' for Inactive)
REMARK    1  A    between atoms: C3_3  and  C4_4 
REMARK    2  A    between atoms: C3_3  and  N1_7 
REMARK    3  A    between atoms: N1_7  and  C7_9 
REMARK    4  A    between atoms: C8_10  and  C9_11 
REMARK    5  A    between atoms: C9_11  and  N2_12 
REMARK    6  A    between atoms: C9_11  and  C10_13 
REMARK    7  A    between atoms: C19_23  and  O1_24 
ROOT
HETATM    1  C1  UNL     1      20.100   3.983  51.587  1.00  0.00     0.014 C 
HETATM    2  C2  UNL     1      20.775   3.107  52.060  1.00  0.00    -0.091 C 
HETATM    3  C3  UNL     1      21.603   2.023  52.626  1.00  0.00     0.170 C 
ENDROOT
BRANCH   3   4
HETATM    4  C4  UNL     1      20.710   1.097  53.378  1.00  0.00     0.066 C 
HETATM    5  C5  UNL     1      20.850   0.232  54.368  1.00  0.00     0.421 C 
HETATM    6  F1  UNL     1      21.551  -0.448  55.325  1.00  0.00    -0.455 F 
ENDBRANCH   3   4
BRANCH   3   7
HETATM    7  N1  UNL     1      22.380   1.339  51.605  1.00  0.00    -0.367 N 
HETATM    8  C6  UNL     1      21.587   0.554  50.648  1.00  0.00     0.151 C 
BRANCH   7   9
HETATM    9  C7  UNL     1      23.802   1.463  51.589  1.00  0.00     0.074 A 
HETATM   10  C8  UNL     1      24.372   2.458  50.789  1.00  0.00     0.008 A 
HETATM   11  C16 UNL     1      25.745   2.519  50.823  1.00  0.00     0.013 A 
HETATM   12  C17 UNL     1      26.499   1.659  51.594  1.00  0.00     0.022 A 
HETATM   13  C18 UNL     1      25.921   0.688  52.373  1.00  0.00     0.046 A 
HETATM   14 BR1  UNL     1      27.083  -0.429  53.385  1.00  0.00    -0.048 Br
HETATM   15  C19 UNL     1      24.547   0.611  52.352  1.00  0.00     0.110 A 
BRANCH  10  16
HETATM   16  C9  UNL     1      23.463   3.329  50.002  1.00  0.00     0.286 C 
BRANCH  16  17
HETATM   17  N2  UNL     1      23.239   2.858  48.656  1.00  0.00     0.091 N 
HETATM   18  H9  UNL     1      23.869   3.278  47.962  1.00  0.00     0.314 HD
HETATM   19  H10 UNL     1      22.225   2.934  48.469  1.00  0.00     0.314 HD
ENDBRANCH  16  17
BRANCH  16  20
HETATM   20  C10 UNL     1      23.935   4.737  50.051  1.00  0.00    -0.021 A 
HETATM   21  C11 UNL     1      23.740   5.543  51.152  1.00  0.00     0.009 A 
HETATM   22  C12 UNL     1      24.167   6.862  51.214  1.00  0.00     0.001 A 
HETATM   23  C13 UNL     1      24.821   7.403  50.129  1.00  0.00     0.000 A 
HETATM   24  C14 UNL     1      25.019   6.591  49.018  1.00  0.00     0.001 A 
HETATM   25  C15 UNL     1      24.588   5.266  48.958  1.00  0.00     0.009 A 
ENDBRANCH  16  20
ENDBRANCH  10  16
BRANCH  15  26
HETATM   26  O1  UNL     1      23.972  -0.387  53.155  1.00  0.00    -0.357 OA
HETATM   27  H18 UNL     1      24.048  -0.206  54.168  1.00  0.00     0.217 HD
ENDBRANCH  15  26
ENDBRANCH   7   9
ENDBRANCH   3   7
TORSDOF 7
ENDMDL
MODEL 4
REMARK VINA RESULT:      -6.4      3.011      5.755
REMARK  7 active torsions:
REMARK  status: ('A' for Active; 'I' for Inactive)
REMARK    1  A    between atoms: C3_3  and  C4_4 
REMARK    2  A    between atoms: C3_3  and  N1_7 
REMARK    3  A    between atoms: N1_7  and  C7_9 
REMARK    4  A    between atoms: C8_10  and  C9_11 
REMARK    5  A    between atoms: C9_11  and  N2_12 
REMARK    6  A    between atoms: C9_11  and  C10_13 
REMARK    7  A    between atoms: C19_23  and  O1_24 
ROOT
HETATM    1  C1  UNL     1      18.824   3.450  51.660  1.00  0.00     0.014 C 
HETATM    2  C2  UNL     1      19.735   2.781  52.071  1.00  0.00    -0.091 C 
HETATM    3  C3  UNL     1      20.852   1.951  52.562  1.00  0.00     0.170 C 
ENDROOT
BRANCH   3   4
HETATM    4  C4  UNL     1      20.301   0.930  53.498  1.00  0.00     0.066 C 
HETATM    5  C5  UNL     1      20.778   0.170  54.468  1.00  0.00     0.421 C 
HETATM    6  F1  UNL     1      21.757  -0.312  55.293  1.00  0.00    -0.455 F 
ENDBRANCH   3   4
BRANCH   3   7
HETATM    7  N1  UNL     1      21.609   1.354  51.473  1.00  0.00    -0.367 N 
HETATM    8  C6  UNL     1      21.520  -0.111  51.390  1.00  0.00     0.151 C 
BRANCH   7   9
HETATM    9  C7  UNL     1      22.359   2.184  50.587  1.00  0.00     0.074 A 
HETATM   10  C8  UNL     1      23.521   2.792  51.073  1.00  0.00     0.008 A 
HETATM   11  C16 UNL     1      24.192   3.578  50.166  1.00  0.00     0.013 A 
HETATM   12  C17 UNL     1      23.747   3.749  48.872  1.00  0.00     0.022 A 
HETATM   13  C18 UNL     1      22.603   3.144  48.413  1.00  0.00     0.046 A 
HETATM   14 BR1  UNL     1      22.106   3.468  46.605  1.00  0.00    -0.048 Br
HETATM   15  C19 UNL     1      21.917   2.353  49.307  1.00  0.00     0.110 A 
BRANCH  10  16
HETATM   16  C9  UNL     1      23.907   2.536  52.484  1.00  0.00     0.286 C 
BRANCH  16  17
HETATM   17  N2  UNL     1      24.439   3.699  53.154  1.00  0.00     0.091 N 
HETATM   18  H9  UNL     1      23.721   4.375  53.438  1.00  0.00     0.314 HD
HETATM   19  H10 UNL     1      25.214   4.061  52.572  1.00  0.00     0.314 HD
ENDBRANCH  16  17
BRANCH  16  20
HETATM   20  C10 UNL     1      24.811   1.361  52.561  1.00  0.00    -0.021 A 
HETATM   21  C11 UNL     1      25.966   1.267  51.814  1.00  0.00     0.009 A 
HETATM   22  C12 UNL     1      26.820   0.174  51.868  1.00  0.00     0.001 A 
HETATM   23  C13 UNL     1      26.509  -0.875  52.705  1.00  0.00     0.000 A 
HETATM   24  C14 UNL     1      25.344  -0.782  53.458  1.00  0.00     0.001 A 
HETATM   25  C15 UNL     1      24.488   0.317  53.402  1.00  0.00     0.009 A 
ENDBRANCH  16  20
ENDBRANCH  10  16
BRANCH  15  26
HETATM   26  O1  UNL     1      20.750   1.742  48.822  1.00  0.00    -0.357 OA
HETATM   27  H18 UNL     1      20.222   2.320  48.149  1.00  0.00     0.217 HD
ENDBRANCH  15  26
ENDBRANCH   7   9
ENDBRANCH   3   7
TORSDOF 7
ENDMDL
MODEL 5
REMARK VINA RESULT:      -6.4      9.482     11.570
REMARK  7 active torsions:
REMARK  status: ('A' for Active; 'I' for Inactive)
REMARK    1  A    between atoms: C3_3  and  C4_4 
REMARK    2  A    between atoms: C3_3  and  N1_7 
REMARK    3  A    between atoms: N1_7  and  C7_9 
REMARK    4  A    between atoms: C8_10  and  C9_11 
REMARK    5  A    between atoms: C9_11  and  N2_12 
REMARK    6  A    between atoms: C9_11  and  C10_13 
REMARK    7  A    between atoms: C19_23  and  O1_24 
ROOT
HETATM    1  C1  UNL     1      31.542   3.044  46.404  1.00  0.00     0.014 C 
HETATM    2  C2  UNL     1      32.333   3.497  47.188  1.00  0.00    -0.091 C 
HETATM    3  C3  UNL     1      33.305   4.068  48.142  1.00  0.00     0.170 C 
ENDROOT
BRANCH   3   4
HETATM    4  C4  UNL     1      34.674   3.666  47.711  1.00  0.00     0.066 C 
HETATM    5  C5  UNL     1      35.260   3.350  46.570  1.00  0.00     0.421 C 
HETATM    6  F1  UNL     1      35.302   3.138  45.219  1.00  0.00    -0.455 F 
ENDBRANCH   3   4
BRANCH   3   7
HETATM    7  N1  UNL     1      33.163   5.510  48.269  1.00  0.00    -0.367 N 
HETATM    8  C6  UNL     1      34.178   6.156  49.113  1.00  0.00     0.151 C 
BRANCH   7   9
HETATM    9  C7  UNL     1      32.099   6.183  47.599  1.00  0.00     0.074 A 
HETATM   10  C8  UNL     1      32.374   6.806  46.376  1.00  0.00     0.008 A 
HETATM   11  C16 UNL     1      31.302   7.435  45.788  1.00  0.00     0.013 A 
HETATM   12  C17 UNL     1      30.050   7.447  46.366  1.00  0.00     0.022 A 
HETATM   13  C18 UNL     1      29.799   6.830  47.567  1.00  0.00     0.046 A 
HETATM   14 BR1  UNL     1      28.025   6.926  48.247  1.00  0.00    -0.048 Br
HETATM   15  C19 UNL     1      30.860   6.195  48.172  1.00  0.00     0.110 A 
BRANCH  10  16
HETATM   16  C9  UNL     1      33.758   6.728  45.847  1.00  0.00     0.286 C 
BRANCH  16  17
HETATM   17  N2  UNL     1      34.530   7.926  46.079  1.00  0.00     0.091 N 
HETATM   18  H9  UNL     1      34.083   8.586  46.726  1.00  0.00     0.314 HD
HETATM   19  H10 UNL     1      34.808   8.296  45.154  1.00  0.00     0.314 HD
ENDBRANCH  16  17
BRANCH  16  20
HETATM   20  C10 UNL     1      33.737   6.321  44.419  1.00  0.00    -0.021 A 
HETATM   21  C11 UNL     1      33.224   5.112  44.003  1.00  0.00     0.009 A 
HETATM   22  C12 UNL     1      33.201   4.711  42.675  1.00  0.00     0.001 A 
HETATM   23  C13 UNL     1      33.714   5.555  41.715  1.00  0.00     0.000 A 
HETATM   24  C14 UNL     1      34.233   6.776  42.133  1.00  0.00     0.001 A 
HETATM   25  C15 UNL     1      34.255   7.175  43.468  1.00  0.00     0.009 A 
ENDBRANCH  16  20
ENDBRANCH  10  16
BRANCH  15  26
HETATM   26  O1  UNL     1      30.587   5.569  49.398  1.00  0.00    -0.357 OA
HETATM   27  H18 UNL     1      31.350   5.649  50.089  1.00  0.00     0.217 HD
ENDBRANCH  15  26
ENDBRANCH   7   9
ENDBRANCH   3   7
TORSDOF 7
ENDMDL
MODEL 6
REMARK VINA RESULT:      -6.3      3.055      4.518
REMARK  7 active torsions:
REMARK  status: ('A' for Active; 'I' for Inactive)
REMARK    1  A    between atoms: C3_3  and  C4_4 
REMARK    2  A    between atoms: C3_3  and  N1_7 
REMARK    3  A    between atoms: N1_7  and  C7_9 
REMARK    4  A    between atoms: C8_10  and  C9_11 
REMARK    5  A    between atoms: C9_11  and  N2_12 
REMARK    6  A    between atoms: C9_11  and  C10_13 
REMARK    7  A    between atoms: C19_23  and  O1_24 
ROOT
HETATM    1  C1  UNL     1      22.677   4.853  48.006  1.00  0.00     0.014 C 
HETATM    2  C2  UNL     1      23.690   4.639  48.617  1.00  0.00    -0.091 C 
HETATM    3  C3  UNL     1      24.928   4.386  49.380  1.00  0.00     0.170 C 
ENDROOT
BRANCH   3   4
HETATM    4  C4  UNL     1      25.960   5.365  48.936  1.00  0.00     0.066 C 
HETATM    5  C5  UNL     1      27.226   5.310  48.561  1.00  0.00     0.421 C 
HETATM    6  F1  UNL     1      28.409   4.680  48.288  1.00  0.00    -0.455 F 
ENDBRANCH   3   4
BRANCH   3   7
HETATM    7  N1  UNL     1      24.703   4.429  50.816  1.00  0.00    -0.367 N 
HETATM    8  C6  UNL     1      24.515   5.777  51.371  1.00  0.00     0.151 C 
BRANCH   7   9
HETATM    9  C7  UNL     1      24.678   3.218  51.570  1.00  0.00     0.074 A 
HETATM   10  C8  UNL     1      23.439   2.726  51.994  1.00  0.00     0.008 A 
HETATM   11  C16 UNL     1      23.492   1.557  52.715  1.00  0.00     0.013 A 
HETATM   12  C17 UNL     1      24.683   0.920  52.996  1.00  0.00     0.022 A 
HETATM   13  C18 UNL     1      25.890   1.419  52.572  1.00  0.00     0.046 A 
HETATM   14 BR1  UNL     1      27.453   0.436  53.032  1.00  0.00    -0.048 Br
HETATM   15  C19 UNL     1      25.858   2.589  51.848  1.00  0.00     0.110 A 
BRANCH  10  16
HETATM   16  C9  UNL     1      22.221   3.493  51.633  1.00  0.00     0.286 C 
BRANCH  16  17
HETATM   17  N2  UNL     1      21.793   4.409  52.663  1.00  0.00     0.091 N 
HETATM   18  H9  UNL     1      21.288   3.956  53.433  1.00  0.00     0.314 HD
HETATM   19  H10 UNL     1      21.315   5.197  52.193  1.00  0.00     0.314 HD
ENDBRANCH  16  17
BRANCH  16  20
HETATM   20  C10 UNL     1      21.145   2.567  51.197  1.00  0.00    -0.021 A 
HETATM   21  C11 UNL     1      21.116   2.008  49.938  1.00  0.00     0.009 A 
HETATM   22  C12 UNL     1      20.116   1.146  49.511  1.00  0.00     0.001 A 
HETATM   23  C13 UNL     1      19.096   0.826  50.380  1.00  0.00     0.000 A 
HETATM   24  C14 UNL     1      19.123   1.389  51.651  1.00  0.00     0.001 A 
HETATM   25  C15 UNL     1      20.129   2.255  52.077  1.00  0.00     0.009 A 
ENDBRANCH  16  20
ENDBRANCH  10  16
BRANCH  15  26
HETATM   26  O1  UNL     1      27.100   3.085  51.422  1.00  0.00    -0.357 OA
HETATM   27  H18 UNL     1      27.789   3.201  52.181  1.00  0.00     0.217 HD
ENDBRANCH  15  26
ENDBRANCH   7   9
ENDBRANCH   3   7
TORSDOF 7
ENDMDL
MODEL 7
REMARK VINA RESULT:      -6.2      3.523      5.199
REMARK  7 active torsions:
REMARK  status: ('A' for Active; 'I' for Inactive)
REMARK    1  A    between atoms: C3_3  and  C4_4 
REMARK    2  A    between atoms: C3_3  and  N1_7 
REMARK    3  A    between atoms: N1_7  and  C7_9 
REMARK    4  A    between atoms: C8_10  and  C9_11 
REMARK    5  A    between atoms: C9_11  and  N2_12 
REMARK    6  A    between atoms: C9_11  and  C10_13 
REMARK    7  A    between atoms: C19_23  and  O1_24 
ROOT
HETATM    1  C1  UNL     1      23.612   4.462  52.608  1.00  0.00     0.014 C 
HETATM    2  C2  UNL     1      22.637   4.964  52.115  1.00  0.00    -0.091 C 
HETATM    3  C3  UNL     1      21.442   5.571  51.496  1.00  0.00     0.170 C 
ENDROOT
BRANCH   3   4
HETATM    4  C4  UNL     1      21.861   6.818  50.794  1.00  0.00     0.066 C 
HETATM    5  C5  UNL     1      22.934   7.589  50.780  1.00  0.00     0.421 C 
HETATM    6  F1  UNL     1      24.196   7.959  51.157  1.00  0.00    -0.455 F 
ENDBRANCH   3   4
BRANCH   3   7
HETATM    7  N1  UNL     1      20.752   4.643  50.615  1.00  0.00    -0.367 N 
HETATM    8  C6  UNL     1      19.779   5.264  49.705  1.00  0.00     0.151 C 
BRANCH   7   9
HETATM    9  C7  UNL     1      21.044   3.248  50.679  1.00  0.00     0.074 A 
HETATM   10  C8  UNL     1      21.856   2.694  49.684  1.00  0.00     0.008 A 
HETATM   11  C16 UNL     1      22.095   1.346  49.809  1.00  0.00     0.013 A 
HETATM   12  C17 UNL     1      21.571   0.600  50.845  1.00  0.00     0.022 A 
HETATM   13  C18 UNL     1      20.776   1.162  51.813  1.00  0.00     0.046 A 
HETATM   14 BR1  UNL     1      20.121   0.015  53.183  1.00  0.00    -0.048 Br
HETATM   15  C19 UNL     1      20.525   2.511  51.704  1.00  0.00     0.110 A 
BRANCH  10  16
HETATM   16  C9  UNL     1      22.367   3.591  48.618  1.00  0.00     0.286 C 
BRANCH  16  17
HETATM   17  N2  UNL     1      22.180   3.066  47.286  1.00  0.00     0.091 N 
HETATM   18  H9  UNL     1      21.815   2.107  47.269  1.00  0.00     0.314 HD
HETATM   19  H10 UNL     1      23.054   3.241  46.762  1.00  0.00     0.314 HD
ENDBRANCH  16  17
BRANCH  16  20
HETATM   20  C10 UNL     1      23.776   3.967  48.898  1.00  0.00    -0.021 A 
HETATM   21  C11 UNL     1      24.264   5.233  48.659  1.00  0.00     0.009 A 
HETATM   22  C12 UNL     1      25.579   5.602  48.908  1.00  0.00     0.001 A 
HETATM   23  C13 UNL     1      26.448   4.664  49.421  1.00  0.00     0.000 A 
HETATM   24  C14 UNL     1      25.957   3.386  49.664  1.00  0.00     0.001 A 
HETATM   25  C15 UNL     1      24.636   3.019  49.412  1.00  0.00     0.009 A 
ENDBRANCH  16  20
ENDBRANCH  10  16
BRANCH  15  26
HETATM   26  O1  UNL     1      19.710   3.070  52.702  1.00  0.00    -0.357 OA
HETATM   27  H18 UNL     1      20.233   3.442  53.511  1.00  0.00     0.217 HD
ENDBRANCH  15  26
ENDBRANCH   7   9
ENDBRANCH   3   7
TORSDOF 7
ENDMDL
MODEL 8
REMARK VINA RESULT:      -6.1      3.230      4.602
REMARK  7 active torsions:
REMARK  status: ('A' for Active; 'I' for Inactive)
REMARK    1  A    between atoms: C3_3  and  C4_4 
REMARK    2  A    between atoms: C3_3  and  N1_7 
REMARK    3  A    between atoms: N1_7  and  C7_9 
REMARK    4  A    between atoms: C8_10  and  C9_11 
REMARK    5  A    between atoms: C9_11  and  N2_12 
REMARK    6  A    between atoms: C9_11  and  C10_13 
REMARK    7  A    between atoms: C19_23  and  O1_24 
ROOT
HETATM    1  C1  UNL     1      23.455   7.145  47.590  1.00  0.00     0.014 C 
HETATM    2  C2  UNL     1      24.242   6.421  48.141  1.00  0.00    -0.091 C 
HETATM    3  C3  UNL     1      25.205   5.542  48.832  1.00  0.00     0.170 C 
ENDROOT
BRANCH   3   4
HETATM    4  C4  UNL     1      26.570   6.117  48.663  1.00  0.00     0.066 C 
HETATM    5  C5  UNL     1      27.779   5.645  48.415  1.00  0.00     0.421 C 
HETATM    6  F1  UNL     1      28.694   4.659  48.164  1.00  0.00    -0.455 F 
ENDBRANCH   3   4
BRANCH   3   7
HETATM    7  N1  UNL     1      24.857   5.341  50.230  1.00  0.00    -0.367 N 
HETATM    8  C6  UNL     1      24.864   6.562  51.049  1.00  0.00     0.151 C 
BRANCH   7   9
HETATM    9  C7  UNL     1      24.542   4.034  50.705  1.00  0.00     0.074 A 
HETATM   10  C8  UNL     1      23.194   3.669  50.799  1.00  0.00     0.008 A 
HETATM   11  C16 UNL     1      22.966   2.396  51.265  1.00  0.00     0.013 A 
HETATM   12  C17 UNL     1      23.994   1.544  51.611  1.00  0.00     0.022 A 
HETATM   13  C18 UNL     1      25.312   1.921  51.512  1.00  0.00     0.046 A 
HETATM   14 BR1  UNL     1      26.627   0.645  52.024  1.00  0.00    -0.048 Br
HETATM   15  C19 UNL     1      25.561   3.192  51.048  1.00  0.00     0.110 A 
BRANCH  10  16
HETATM   16  C9  UNL     1      22.170   4.665  50.398  1.00  0.00     0.286 C 
BRANCH  16  17
HETATM   17  N2  UNL     1      21.387   5.162  51.504  1.00  0.00     0.091 N 
HETATM   18  H9  UNL     1      21.923   5.739  52.163  1.00  0.00     0.314 HD
HETATM   19  H10 UNL     1      20.873   4.357  51.902  1.00  0.00     0.314 HD
ENDBRANCH  16  17
BRANCH  16  20
HETATM   20  C10 UNL     1      21.336   4.124  49.295  1.00  0.00    -0.021 A 
HETATM   21  C11 UNL     1      21.869   3.754  48.079  1.00  0.00     0.009 A 
HETATM   22  C12 UNL     1      21.105   3.252  47.035  1.00  0.00     0.001 A 
HETATM   23  C13 UNL     1      19.745   3.113  47.210  1.00  0.00     0.000 A 
HETATM   24  C14 UNL     1      19.206   3.486  48.436  1.00  0.00     0.001 A 
HETATM   25  C15 UNL     1      19.976   3.990  49.483  1.00  0.00     0.009 A 
ENDBRANCH  16  20
ENDBRANCH  10  16
BRANCH  15  26
HETATM   26  O1  UNL     1      26.912   3.561  50.952  1.00  0.00    -0.357 OA
HETATM   27  H18 UNL     1      27.329   3.864  51.846  1.00  0.00     0.217 HD
ENDBRANCH  15  26
ENDBRANCH   7   9
ENDBRANCH   3   7
TORSDOF 7
ENDMDL
MODEL 9
REMARK VINA RESULT:      -6.0      3.674      5.837
REMARK  7 active torsions:
REMARK  status: ('A' for Active; 'I' for Inactive)
REMARK    1  A    between atoms: C3_3  and  C4_4 
REMARK    2  A    between atoms: C3_3  and  N1_7 
REMARK    3  A    between atoms: N1_7  and  C7_9 
REMARK    4  A    between atoms: C8_10  and  C9_11 
REMARK    5  A    between atoms: C9_11  and  N2_12 
REMARK    6  A    between atoms: C9_11  and  C10_13 
REMARK    7  A    between atoms: C19_23  and  O1_24 
ROOT
HETATM    1  C1  UNL     1      25.582   3.598  49.248  1.00  0.00     0.014 C 
HETATM    2  C2  UNL     1      24.998   4.179  50.124  1.00  0.00    -0.091 C 
HETATM    3  C3  UNL     1      24.267   4.890  51.191  1.00  0.00     0.170 C 
ENDROOT
BRANCH   3   4
HETATM    4  C4  UNL     1      24.239   6.342  50.853  1.00  0.00     0.066 C 
HETATM    5  C5  UNL     1      25.138   7.285  50.632  1.00  0.00     0.421 C 
HETATM    6  F1  UNL     1      26.407   7.781  50.514  1.00  0.00    -0.455 F 
ENDBRANCH   3   4
BRANCH   3   7
HETATM    7  N1  UNL     1      22.935   4.343  51.399  1.00  0.00    -0.367 N 
HETATM    8  C6  UNL     1      22.228   4.870  52.575  1.00  0.00     0.151 C 
BRANCH   7   9
HETATM    9  C7  UNL     1      22.414   3.372  50.492  1.00  0.00     0.074 A 
HETATM   10  C8  UNL     1      22.604   2.019  50.789  1.00  0.00     0.008 A 
HETATM   11  C16 UNL     1      22.077   1.141  49.872  1.00  0.00     0.013 A 
HETATM   12  C17 UNL     1      21.408   1.570  48.744  1.00  0.00     0.022 A 
HETATM   13  C18 UNL     1      21.231   2.904  48.470  1.00  0.00     0.046 A 
HETATM   14 BR1  UNL     1      20.290   3.353  46.879  1.00  0.00    -0.048 Br
HETATM   15  C19 UNL     1      21.753   3.799  49.377  1.00  0.00     0.110 A 
BRANCH  10  16
HETATM   16  C9  UNL     1      23.337   1.671  52.032  1.00  0.00     0.286 C 
BRANCH  16  17
HETATM   17  N2  UNL     1      24.676   1.185  51.792  1.00  0.00     0.091 N 
HETATM   18  H9  UNL     1      24.735   0.499  51.031  1.00  0.00     0.314 HD
HETATM   19  H10 UNL     1      25.066   0.899  52.707  1.00  0.00     0.314 HD
ENDBRANCH  16  17
BRANCH  16  20
HETATM   20  C10 UNL     1      22.525   0.745  52.862  1.00  0.00    -0.021 A 
HETATM   21  C11 UNL     1      21.257   1.064  53.298  1.00  0.00     0.009 A 
HETATM   22  C12 UNL     1      20.486   0.216  54.079  1.00  0.00     0.001 A 
HETATM   23  C13 UNL     1      21.002  -1.009  54.444  1.00  0.00     0.000 A 
HETATM   24  C14 UNL     1      22.281  -1.332  54.005  1.00  0.00     0.001 A 
HETATM   25  C15 UNL     1      23.054  -0.477  53.220  1.00  0.00     0.009 A 
ENDBRANCH  16  20
ENDBRANCH  10  16
BRANCH  15  26
HETATM   26  O1  UNL     1      21.563   5.158  49.082  1.00  0.00    -0.357 OA
HETATM   27  H18 UNL     1      21.616   5.778  49.905  1.00  0.00     0.217 HD
ENDBRANCH  15  26
ENDBRANCH   7   9
ENDBRANCH   3   7
TORSDOF 7
ENDMDL
