MODEL 1
REMARK VINA RESULT:      -8.5      0.000      0.000
REMARK  1 active torsions:
REMARK  status: ('A' for Active; 'I' for Inactive)
REMARK    1  A    between atoms: O1_1  and  C1_2 
ROOT
HETATM    1  C1  UNL     1      28.542   1.096  54.037  1.00  0.00     0.065 A 
HETATM    2  C2  UNL     1      28.242   1.910  53.068  1.00  0.00     0.029 A 
HETATM    3  C3  UNL     1      26.996   2.107  52.333  1.00  0.00     0.160 A 
HETATM    4  N1  UNL     1      25.918   1.260  52.803  1.00  0.00    -0.331 N 
HETATM    5  C4  UNL     1      26.313   0.392  53.843  1.00  0.00     0.020 A 
HETATM    6  C5  UNL     1      27.455   0.233  54.474  1.00  0.00     0.061 A 
HETATM    7  C6  UNL     1      25.109  -0.464  54.146  1.00  0.00     0.100 C 
HETATM    8  C7  UNL     1      24.063   0.135  53.360  1.00  0.00    -0.006 C 
HETATM    9  C8  UNL     1      22.901  -0.372  53.627  1.00  0.00     0.012 C 
HETATM   10  C9  UNL     1      21.981  -1.233  54.280  1.00  0.00     0.017 C 
HETATM   11  C10 UNL     1      20.687  -1.404  54.208  1.00  0.00     0.083 C 
HETATM   12  N2  UNL     1      19.830  -0.671  53.358  1.00  0.00    -0.395 N 
HETATM   13  C11 UNL     1      19.646  -0.142  52.047  1.00  0.00     0.146 C 
HETATM   14  C12 UNL     1      18.339   0.604  51.945  1.00  0.00    -0.011 C 
HETATM   15  C13 UNL     1      18.372   1.925  51.658  1.00  0.00    -0.023 C 
HETATM   16  C14 UNL     1      19.778   2.417  51.490  1.00  0.00     0.022 C 
HETATM   17  C15 UNL     1      20.181   3.689  51.202  1.00  0.00     0.020 C 
HETATM   18  C16 UNL     1      21.598   4.053  51.062  1.00  0.00     0.156 C 
HETATM   19  N3  UNL     1      22.594   3.087  51.222  1.00  0.00    -0.282 NA
HETATM   20  C17 UNL     1      22.794   1.890  51.045  1.00  0.00     0.229 C 
HETATM   21  N4  UNL     1      24.107   1.877  51.517  1.00  0.00    -0.224 NA
HETATM   22  C18 UNL     1      24.548   1.145  52.457  1.00  0.00     0.138 C 
HETATM   23  H11 UNL     1      19.034  -0.471  54.040  1.00  0.00     0.159 HD
ENDROOT
BRANCH   1  24
HETATM   24  O1  UNL     1      29.793   1.050  54.613  1.00  0.00    -0.361 OA
HETATM   25  H1  UNL     1      30.154   1.863  55.057  1.00  0.00     0.217 HD
ENDBRANCH   1  24
TORSDOF 1
ENDMDL
MODEL 2
REMARK VINA RESULT:      -8.5      3.305      6.850
REMARK  1 active torsions:
REMARK  status: ('A' for Active; 'I' for Inactive)
REMARK    1  A    between atoms: O1_1  and  C1_2 
ROOT
HETATM    1  C1  UNL     1      17.286  -1.568  52.976  1.00  0.00     0.065 A 
HETATM    2  C2  UNL     1      17.332  -0.489  52.250  1.00  0.00     0.029 A 
HETATM    3  C3  UNL     1      18.416   0.459  52.011  1.00  0.00     0.160 A 
HETATM    4  N1  UNL     1      19.647   0.096  52.683  1.00  0.00    -0.331 N 
HETATM    5  C4  UNL     1      19.526  -1.074  53.464  1.00  0.00     0.020 A 
HETATM    6  C5  UNL     1      18.523  -1.899  53.666  1.00  0.00     0.061 A 
HETATM    7  C6  UNL     1      20.856  -1.252  54.151  1.00  0.00     0.100 C 
HETATM    8  C7  UNL     1      21.688  -0.249  53.540  1.00  0.00    -0.006 C 
HETATM    9  C8  UNL     1      22.930  -0.365  53.890  1.00  0.00     0.012 C 
HETATM   10  C9  UNL     1      24.038  -0.936  54.572  1.00  0.00     0.017 C 
HETATM   11  C10 UNL     1      25.316  -0.665  54.616  1.00  0.00     0.083 C 
HETATM   12  N2  UNL     1      25.936   0.382  53.900  1.00  0.00    -0.395 N 
HETATM   13  C11 UNL     1      25.850   1.750  53.508  1.00  0.00     0.146 C 
HETATM   14  C12 UNL     1      27.026   2.139  52.647  1.00  0.00    -0.011 C 
HETATM   15  C13 UNL     1      26.790   2.542  51.378  1.00  0.00    -0.023 C 
HETATM   16  C14 UNL     1      25.326   2.519  51.056  1.00  0.00     0.022 C 
HETATM   17  C15 UNL     1      24.733   2.857  49.873  1.00  0.00     0.020 C 
HETATM   18  C16 UNL     1      23.278   2.793  49.676  1.00  0.00     0.156 C 
HETATM   19  N3  UNL     1      22.443   2.377  50.715  1.00  0.00    -0.282 NA
HETATM   20  C17 UNL     1      22.363   2.402  51.938  1.00  0.00     0.229 C 
HETATM   21  N4  UNL     1      21.150   1.719  52.034  1.00  0.00    -0.224 NA
HETATM   22  C18 UNL     1      20.952   0.653  52.695  1.00  0.00     0.138 C 
HETATM   23  H11 UNL     1      26.799  -0.136  53.543  1.00  0.00     0.159 HD
ENDROOT
BRANCH   1  24
HETATM   24  O1  UNL     1      16.154  -2.347  53.084  1.00  0.00    -0.361 OA
HETATM   25  H1  UNL     1      15.445  -2.275  52.391  1.00  0.00     0.217 HD
ENDBRANCH   1  24
TORSDOF 1
ENDMDL
MODEL 3
REMARK VINA RESULT:      -8.2      1.929      3.791
REMARK  1 active torsions:
REMARK  status: ('A' for Active; 'I' for Inactive)
REMARK    1  A    between atoms: O1_1  and  C1_2 
ROOT
HETATM    1  C1  UNL     1      27.591   2.093  52.785  1.00  0.00     0.065 A 
HETATM    2  C2  UNL     1      26.850   1.774  53.806  1.00  0.00     0.029 A 
HETATM    3  C3  UNL     1      25.402   1.640  53.935  1.00  0.00     0.160 A 
HETATM    4  N1  UNL     1      24.697   1.879  52.692  1.00  0.00    -0.331 N 
HETATM    5  C4  UNL     1      25.555   2.235  51.629  1.00  0.00     0.020 A 
HETATM    6  C5  UNL     1      26.861   2.358  51.554  1.00  0.00     0.061 A 
HETATM    7  C6  UNL     1      24.658   2.528  50.454  1.00  0.00     0.100 C 
HETATM    8  C7  UNL     1      23.355   2.124  50.915  1.00  0.00    -0.006 C 
HETATM    9  C8  UNL     1      22.473   2.147  49.966  1.00  0.00     0.012 C 
HETATM   10  C9  UNL     1      21.994   2.352  48.645  1.00  0.00     0.017 C 
HETATM   11  C10 UNL     1      20.829   2.214  48.069  1.00  0.00     0.083 C 
HETATM   12  N2  UNL     1      19.660   1.772  48.726  1.00  0.00    -0.395 N 
HETATM   13  C11 UNL     1      18.858   1.883  49.900  1.00  0.00     0.146 C 
HETATM   14  C12 UNL     1      17.657   0.973  49.821  1.00  0.00    -0.011 C 
HETATM   15  C13 UNL     1      17.533  -0.011  50.739  1.00  0.00    -0.023 C 
HETATM   16  C14 UNL     1      18.677  -0.007  51.708  1.00  0.00     0.022 C 
HETATM   17  C15 UNL     1      18.876  -0.859  52.757  1.00  0.00     0.020 C 
HETATM   18  C16 UNL     1      20.044  -0.756  53.644  1.00  0.00     0.156 C 
HETATM   19  N3  UNL     1      21.003   0.237  53.434  1.00  0.00    -0.282 NA
HETATM   20  C17 UNL     1      21.105   1.388  53.022  1.00  0.00     0.229 C 
HETATM   21  N4  UNL     1      22.482   1.504  53.214  1.00  0.00    -0.224 NA
HETATM   22  C18 UNL     1      23.331   1.801  52.316  1.00  0.00     0.138 C 
HETATM   23  H11 UNL     1      19.291   1.091  47.992  1.00  0.00     0.159 HD
ENDROOT
BRANCH   1  24
HETATM   24  O1  UNL     1      28.965   2.172  52.855  1.00  0.00    -0.361 OA
HETATM   25  H1  UNL     1      29.404   3.063  52.814  1.00  0.00     0.217 HD
ENDBRANCH   1  24
TORSDOF 1
ENDMDL
MODEL 4
REMARK VINA RESULT:      -8.0      2.800      4.486
REMARK  1 active torsions:
REMARK  status: ('A' for Active; 'I' for Inactive)
REMARK    1  A    between atoms: O1_1  and  C1_2 
ROOT
HETATM    1  C1  UNL     1      25.188  -0.561  55.188  1.00  0.00     0.065 A 
HETATM    2  C2  UNL     1      26.131   0.222  54.751  1.00  0.00     0.029 A 
HETATM    3  C3  UNL     1      26.205   1.061  53.559  1.00  0.00     0.160 A 
HETATM    4  N1  UNL     1      24.997   1.019  52.759  1.00  0.00    -0.331 N 
HETATM    5  C4  UNL     1      24.021   0.142  53.278  1.00  0.00     0.020 A 
HETATM    6  C5  UNL     1      23.996  -0.611  54.355  1.00  0.00     0.061 A 
HETATM    7  C6  UNL     1      22.883   0.157  52.289  1.00  0.00     0.100 C 
HETATM    8  C7  UNL     1      23.248   1.206  51.373  1.00  0.00    -0.006 C 
HETATM    9  C8  UNL     1      22.293   1.479  50.540  1.00  0.00     0.012 C 
HETATM   10  C9  UNL     1      21.008   1.345  49.950  1.00  0.00     0.017 C 
HETATM   11  C10 UNL     1      20.392   1.949  48.969  1.00  0.00     0.083 C 
HETATM   12  N2  UNL     1      20.947   2.994  48.197  1.00  0.00    -0.395 N 
HETATM   13  C11 UNL     1      22.105   3.457  47.507  1.00  0.00     0.146 C 
HETATM   14  C12 UNL     1      21.862   4.814  46.896  1.00  0.00    -0.011 C 
HETATM   15  C13 UNL     1      22.617   5.855  47.314  1.00  0.00    -0.023 C 
HETATM   16  C14 UNL     1      23.601   5.434  48.363  1.00  0.00     0.022 C 
HETATM   17  C15 UNL     1      24.513   6.222  49.006  1.00  0.00     0.020 C 
HETATM   18  C16 UNL     1      25.431   5.692  50.024  1.00  0.00     0.156 C 
HETATM   19  N3  UNL     1      25.397   4.339  50.370  1.00  0.00    -0.282 NA
HETATM   20  C17 UNL     1      25.167   3.239  49.879  1.00  0.00     0.229 C 
HETATM   21  N4  UNL     1      25.405   2.495  51.036  1.00  0.00    -0.224 NA
HETATM   22  C18 UNL     1      24.583   1.698  51.584  1.00  0.00     0.138 C 
HETATM   23  H11 UNL     1      20.110   3.654  48.166  1.00  0.00     0.159 HD
ENDROOT
BRANCH   1  24
HETATM   24  O1  UNL     1      25.301  -1.288  56.353  1.00  0.00    -0.361 OA
HETATM   25  H1  UNL     1      26.114  -1.183  56.916  1.00  0.00     0.217 HD
ENDBRANCH   1  24
TORSDOF 1
ENDMDL
MODEL 5
REMARK VINA RESULT:      -8.0      2.750      5.301
REMARK  1 active torsions:
REMARK  status: ('A' for Active; 'I' for Inactive)
REMARK    1  A    between atoms: O1_1  and  C1_2 
ROOT
HETATM    1  C1  UNL     1      26.475  -1.204  52.908  1.00  0.00     0.065 A 
HETATM    2  C2  UNL     1      25.342  -0.940  53.491  1.00  0.00     0.029 A 
HETATM    3  C3  UNL     1      24.481   0.237  53.424  1.00  0.00     0.160 A 
HETATM    4  N1  UNL     1      24.982   1.257  52.525  1.00  0.00    -0.331 N 
HETATM    5  C4  UNL     1      26.219   0.916  51.937  1.00  0.00     0.020 A 
HETATM    6  C5  UNL     1      26.975  -0.154  52.033  1.00  0.00     0.061 A 
HETATM    7  C6  UNL     1      26.627   2.110  51.112  1.00  0.00     0.100 C 
HETATM    8  C7  UNL     1      25.470   2.965  51.161  1.00  0.00    -0.006 C 
HETATM    9  C8  UNL     1      25.577   3.977  50.358  1.00  0.00     0.012 C 
HETATM   10  C9  UNL     1      26.207   4.803  49.390  1.00  0.00     0.017 C 
HETATM   11  C10 UNL     1      25.863   5.903  48.773  1.00  0.00     0.083 C 
HETATM   12  N2  UNL     1      24.638   6.579  48.964  1.00  0.00    -0.395 N 
HETATM   13  C11 UNL     1      23.687   7.039  49.921  1.00  0.00     0.146 C 
HETATM   14  C12 UNL     1      22.526   7.724  49.243  1.00  0.00    -0.011 C 
HETATM   15  C13 UNL     1      21.291   7.194  49.388  1.00  0.00    -0.023 C 
HETATM   16  C14 UNL     1      21.318   5.960  50.239  1.00  0.00     0.022 C 
HETATM   17  C15 UNL     1      20.259   5.172  50.588  1.00  0.00     0.020 C 
HETATM   18  C16 UNL     1      20.410   3.979  51.433  1.00  0.00     0.156 C 
HETATM   19  N3  UNL     1      21.668   3.611  51.915  1.00  0.00    -0.282 NA
HETATM   20  C17 UNL     1      22.731   4.107  52.274  1.00  0.00     0.229 C 
HETATM   21  N4  UNL     1      23.371   2.906  52.582  1.00  0.00    -0.224 NA
HETATM   22  C18 UNL     1      24.473   2.508  52.092  1.00  0.00     0.138 C 
HETATM   23  H11 UNL     1      24.393   6.792  47.948  1.00  0.00     0.159 HD
ENDROOT
BRANCH   1  24
HETATM   24  O1  UNL     1      27.154  -2.387  53.097  1.00  0.00    -0.361 OA
HETATM   25  H1  UNL     1      27.412  -2.659  54.018  1.00  0.00     0.217 HD
ENDBRANCH   1  24
TORSDOF 1
ENDMDL
MODEL 6
REMARK VINA RESULT:      -8.0      3.174      6.026
REMARK  1 active torsions:
REMARK  status: ('A' for Active; 'I' for Inactive)
REMARK    1  A    between atoms: O1_1  and  C1_2 
ROOT
HETATM    1  C1  UNL     1      21.773  -1.184  54.319  1.00  0.00     0.065 A 
HETATM    2  C2  UNL     1      20.828  -0.304  54.165  1.00  0.00     0.029 A 
HETATM    3  C3  UNL     1      20.836   1.011  53.530  1.00  0.00     0.160 A 
HETATM    4  N1  UNL     1      22.121   1.356  52.956  1.00  0.00    -0.331 N 
HETATM    5  C4  UNL     1      23.105   0.368  53.170  1.00  0.00     0.020 A 
HETATM    6  C5  UNL     1      23.063  -0.805  53.761  1.00  0.00     0.061 A 
HETATM    7  C6  UNL     1      24.382   0.924  52.591  1.00  0.00     0.100 C 
HETATM    8  C7  UNL     1      23.954   2.124  51.922  1.00  0.00    -0.006 C 
HETATM    9  C8  UNL     1      24.902   2.653  51.215  1.00  0.00     0.012 C 
HETATM   10  C9  UNL     1      26.210   2.759  50.671  1.00  0.00     0.017 C 
HETATM   11  C10 UNL     1      26.792   3.608  49.866  1.00  0.00     0.083 C 
HETATM   12  N2  UNL     1      26.159   4.735  49.296  1.00  0.00    -0.395 N 
HETATM   13  C11 UNL     1      25.294   5.842  49.535  1.00  0.00     0.146 C 
HETATM   14  C12 UNL     1      25.081   6.642  48.274  1.00  0.00    -0.011 C 
HETATM   15  C13 UNL     1      23.828   6.735  47.773  1.00  0.00    -0.023 C 
HETATM   16  C14 UNL     1      22.842   5.983  48.614  1.00  0.00     0.022 C 
HETATM   17  C15 UNL     1      21.498   5.860  48.404  1.00  0.00     0.020 C 
HETATM   18  C16 UNL     1      20.628   5.090  49.304  1.00  0.00     0.156 C 
HETATM   19  N3  UNL     1      21.162   4.449  50.424  1.00  0.00    -0.282 NA
HETATM   20  C17 UNL     1      22.056   4.574  51.254  1.00  0.00     0.229 C 
HETATM   21  N4  UNL     1      21.770   3.413  51.973  1.00  0.00    -0.224 NA
HETATM   22  C18 UNL     1      22.583   2.464  52.200  1.00  0.00     0.138 C 
HETATM   23  H11 UNL     1      26.519   4.652  48.295  1.00  0.00     0.159 HD
ENDROOT
BRANCH   1  24
HETATM   24  O1  UNL     1      21.575  -2.388  54.958  1.00  0.00    -0.361 OA
HETATM   25  H1  UNL     1      20.867  -3.004  54.628  1.00  0.00     0.217 HD
ENDBRANCH   1  24
TORSDOF 1
ENDMDL
MODEL 7
REMARK VINA RESULT:      -8.0      3.369      5.353
REMARK  1 active torsions:
REMARK  status: ('A' for Active; 'I' for Inactive)
REMARK    1  A    between atoms: O1_1  and  C1_2 
ROOT
HETATM    1  C1  UNL     1      25.805   6.671  48.213  1.00  0.00     0.065 A 
HETATM    2  C2  UNL     1      24.520   6.494  48.104  1.00  0.00     0.029 A 
HETATM    3  C3  UNL     1      23.647   5.455  48.640  1.00  0.00     0.160 A 
HETATM    4  N1  UNL     1      24.352   4.485  49.454  1.00  0.00    -0.331 N 
HETATM    5  C4  UNL     1      25.741   4.724  49.520  1.00  0.00     0.020 A 
HETATM    6  C5  UNL     1      26.498   5.670  49.009  1.00  0.00     0.061 A 
HETATM    7  C6  UNL     1      26.319   3.587  50.323  1.00  0.00     0.100 C 
HETATM    8  C7  UNL     1      25.155   2.890  50.806  1.00  0.00    -0.006 C 
HETATM    9  C8  UNL     1      25.460   1.969  51.665  1.00  0.00     0.012 C 
HETATM   10  C9  UNL     1      26.325   1.181  52.469  1.00  0.00     0.017 C 
HETATM   11  C10 UNL     1      26.137   0.211  53.325  1.00  0.00     0.083 C 
HETATM   12  N2  UNL     1      24.873  -0.316  53.672  1.00  0.00    -0.395 N 
HETATM   13  C11 UNL     1      23.607  -0.752  53.183  1.00  0.00     0.146 C 
HETATM   14  C12 UNL     1      22.716  -1.199  54.315  1.00  0.00    -0.011 C 
HETATM   15  C13 UNL     1      21.560  -0.532  54.528  1.00  0.00    -0.023 C 
HETATM   16  C14 UNL     1      21.380   0.585  53.544  1.00  0.00     0.022 C 
HETATM   17  C15 UNL     1      20.336   1.461  53.468  1.00  0.00     0.020 C 
HETATM   18  C16 UNL     1      20.271   2.522  52.453  1.00  0.00     0.156 C 
HETATM   19  N3  UNL     1      21.297   2.667  51.517  1.00  0.00    -0.282 NA
HETATM   20  C17 UNL     1      22.115   1.999  50.892  1.00  0.00     0.229 C 
HETATM   21  N4  UNL     1      22.698   3.064  50.205  1.00  0.00    -0.224 NA
HETATM   22  C18 UNL     1      23.932   3.366  50.219  1.00  0.00     0.138 C 
HETATM   23  H11 UNL     1      24.994  -0.381  54.731  1.00  0.00     0.159 HD
ENDROOT
BRANCH   1  24
HETATM   24  O1  UNL     1      26.466   7.727  47.625  1.00  0.00    -0.361 OA
HETATM   25  H1  UNL     1      27.419   7.893  47.853  1.00  0.00     0.217 HD
ENDBRANCH   1  24
TORSDOF 1
ENDMDL
MODEL 8
REMARK VINA RESULT:      -7.8      1.521      2.128
REMARK  1 active torsions:
REMARK  status: ('A' for Active; 'I' for Inactive)
REMARK    1  A    between atoms: O1_1  and  C1_2 
ROOT
HETATM    1  C1  UNL     1      26.354   0.083  54.324  1.00  0.00     0.065 A 
HETATM    2  C2  UNL     1      26.247   1.037  53.446  1.00  0.00     0.029 A 
HETATM    3  C3  UNL     1      25.114   1.469  52.633  1.00  0.00     0.160 A 
HETATM    4  N1  UNL     1      23.908   0.708  52.890  1.00  0.00    -0.331 N 
HETATM    5  C4  UNL     1      24.094  -0.319  53.840  1.00  0.00     0.020 A 
HETATM    6  C5  UNL     1      25.140  -0.688  54.546  1.00  0.00     0.061 A 
HETATM    7  C6  UNL     1      22.780  -1.054  53.918  1.00  0.00     0.100 C 
HETATM    8  C7  UNL     1      21.893  -0.243  53.125  1.00  0.00    -0.006 C 
HETATM    9  C8  UNL     1      20.661  -0.635  53.218  1.00  0.00     0.012 C 
HETATM   10  C9  UNL     1      19.590  -1.450  53.668  1.00  0.00     0.017 C 
HETATM   11  C10 UNL     1      18.300  -1.454  53.456  1.00  0.00     0.083 C 
HETATM   12  N2  UNL     1      17.621  -0.528  52.635  1.00  0.00    -0.395 N 
HETATM   13  C11 UNL     1      17.634   0.172  51.393  1.00  0.00     0.146 C 
HETATM   14  C12 UNL     1      16.434   1.077  51.271  1.00  0.00    -0.011 C 
HETATM   15  C13 UNL     1      16.639   2.409  51.163  1.00  0.00    -0.023 C 
HETATM   16  C14 UNL     1      18.100   2.744  51.188  1.00  0.00     0.022 C 
HETATM   17  C15 UNL     1      18.667   3.984  51.105  1.00  0.00     0.020 C 
HETATM   18  C16 UNL     1      20.122   4.188  51.143  1.00  0.00     0.156 C 
HETATM   19  N3  UNL     1      20.985   3.097  51.266  1.00  0.00    -0.282 NA
HETATM   20  C17 UNL     1      21.071   1.914  50.954  1.00  0.00     0.229 C 
HETATM   21  N4  UNL     1      22.319   1.687  51.536  1.00  0.00    -0.224 NA
HETATM   22  C18 UNL     1      22.577   0.801  52.409  1.00  0.00     0.138 C 
HETATM   23  H11 UNL     1      16.784  -0.316  53.262  1.00  0.00     0.159 HD
ENDROOT
BRANCH   1  24
HETATM   24  O1  UNL     1      27.525  -0.181  55.001  1.00  0.00    -0.361 OA
HETATM   25  H1  UNL     1      28.212   0.533  55.083  1.00  0.00     0.217 HD
ENDBRANCH   1  24
TORSDOF 1
ENDMDL
MODEL 9
REMARK VINA RESULT:      -7.8      2.973      4.699
REMARK  1 active torsions:
REMARK  status: ('A' for Active; 'I' for Inactive)
REMARK    1  A    between atoms: O1_1  and  C1_2 
ROOT
HETATM    1  C1  UNL     1      24.113   2.911  52.714  1.00  0.00     0.065 A 
HETATM    2  C2  UNL     1      23.367   3.848  52.207  1.00  0.00     0.029 A 
HETATM    3  C3  UNL     1      21.952   3.858  51.848  1.00  0.00     0.160 A 
HETATM    4  N1  UNL     1      21.282   2.608  52.146  1.00  0.00    -0.331 N 
HETATM    5  C4  UNL     1      22.148   1.630  52.679  1.00  0.00     0.020 A 
HETATM    6  C5  UNL     1      23.428   1.655  52.978  1.00  0.00     0.061 A 
HETATM    7  C6  UNL     1      21.314   0.385  52.844  1.00  0.00     0.100 C 
HETATM    8  C7  UNL     1      19.977   0.834  52.557  1.00  0.00    -0.006 C 
HETATM    9  C8  UNL     1      19.091  -0.075  52.818  1.00  0.00     0.012 C 
HETATM   10  C9  UNL     1      18.623  -1.345  53.246  1.00  0.00     0.017 C 
HETATM   11  C10 UNL     1      17.439  -1.888  53.353  1.00  0.00     0.083 C 
HETATM   12  N2  UNL     1      16.228  -1.240  53.025  1.00  0.00    -0.395 N 
HETATM   13  C11 UNL     1      15.558  -0.412  52.078  1.00  0.00     0.146 C 
HETATM   14  C12 UNL     1      14.142  -0.131  52.514  1.00  0.00    -0.011 C 
HETATM   15  C13 UNL     1      13.784   1.151  52.758  1.00  0.00    -0.023 C 
HETATM   16  C14 UNL     1      14.929   2.092  52.536  1.00  0.00     0.022 C 
HETATM   17  C15 UNL     1      14.927   3.449  52.691  1.00  0.00     0.020 C 
HETATM   18  C16 UNL     1      16.120   4.272  52.444  1.00  0.00     0.156 C 
HETATM   19  N3  UNL     1      17.315   3.676  52.033  1.00  0.00    -0.282 NA
HETATM   20  C17 UNL     1      17.726   2.727  51.375  1.00  0.00     0.229 C 
HETATM   21  N4  UNL     1      19.085   2.986  51.554  1.00  0.00    -0.224 NA
HETATM   22  C18 UNL     1      19.935   2.176  52.041  1.00  0.00     0.138 C 
HETATM   23  H11 UNL     1      15.639  -1.531  53.866  1.00  0.00     0.159 HD
ENDROOT
BRANCH   1  24
HETATM   24  O1  UNL     1      25.452   3.088  52.987  1.00  0.00    -0.361 OA
HETATM   25  H1  UNL     1      25.799   2.860  53.891  1.00  0.00     0.217 HD
ENDBRANCH   1  24
TORSDOF 1
ENDMDL
