MODEL 1
REMARK VINA RESULT:      -9.2      0.000      0.000
REMARK  5 active torsions:
REMARK  status: ('A' for Active; 'I' for Inactive)
REMARK    1  A    between atoms: N1_1  and  C1_2 
REMARK    2  A    between atoms: N2_4  and  C3_5 
REMARK    3  A    between atoms: C11_15  and  C12_16 
REMARK    4  A    between atoms: C12_16  and  C13_17 
REMARK    5  A    between atoms: C13_17  and  C14_18 
ROOT
HETATM    1  C1  UNL     1      22.394  -0.237  53.824  1.00  0.00     0.139 C 
HETATM    2  C2  UNL     1      23.603  -0.724  53.467  1.00  0.00     0.142 C 
HETATM    3  N2  UNL     1      24.498   0.222  52.835  1.00  0.00    -0.335 N 
HETATM    4  C9  UNL     1      23.820   1.173  52.070  1.00  0.00     0.184 C 
HETATM    5  C10 UNL     1      24.543   2.219  51.366  1.00  0.00     0.031 C 
HETATM    6  C11 UNL     1      23.870   3.355  51.338  1.00  0.00     0.009 C 
HETATM    7  N3  UNL     1      22.728   3.181  52.156  1.00  0.00    -0.346 N 
HETATM    8  C20 UNL     1      22.692   1.862  52.739  1.00  0.00     0.133 C 
HETATM    9  N4  UNL     1      21.983   1.062  53.451  1.00  0.00    -0.214 NA
HETATM   10  H18 UNL     1      21.896   3.790  52.440  1.00  0.00     0.167 HD
ENDROOT
BRANCH   3  11
HETATM   11  C3  UNL     1      25.855  -0.005  53.176  1.00  0.00     0.074 A 
HETATM   12  C4  UNL     1      26.413  -1.125  52.602  1.00  0.00     0.034 A 
HETATM   13  C5  UNL     1      27.743  -1.470  52.805  1.00  0.00     0.026 A 
HETATM   14  C6  UNL     1      28.584  -0.691  53.605  1.00  0.00     0.037 A 
HETATM   15 CL1  UNL     1      30.263  -1.052  53.910  1.00  0.00    -0.084 Cl
HETATM   16  C7  UNL     1      28.014   0.426  54.173  1.00  0.00     0.068 A 
HETATM   17  C8  UNL     1      26.700   0.741  53.957  1.00  0.00     0.144 A 
HETATM   18  F1  UNL     1      26.232   1.836  54.559  1.00  0.00    -0.204 F 
ENDBRANCH   3  11
BRANCH   1  19
HETATM   19  N1  UNL     1      21.306  -0.902  54.469  1.00  0.00    -0.383 N 
HETATM   20  H1  UNL     1      20.487  -0.322  54.209  1.00  0.00     0.157 HD
HETATM   21  H2  UNL     1      21.281  -1.772  55.075  1.00  0.00     0.157 HD
ENDBRANCH   1  19
BRANCH   6  22
HETATM   22  C12 UNL     1      24.032   4.738  50.797  1.00  0.00     0.061 C 
BRANCH  22  23
HETATM   23  C13 UNL     1      24.149   4.693  49.280  1.00  0.00     0.044 C 
BRANCH  23  24
HETATM   24  C14 UNL     1      25.540   5.124  48.946  1.00  0.00    -0.058 A 
HETATM   25  C15 UNL     1      26.675   4.366  49.047  1.00  0.00     0.007 A 
HETATM   26  C16 UNL     1      27.907   4.889  48.704  1.00  0.00     0.001 A 
HETATM   27  C17 UNL     1      28.024   6.198  48.248  1.00  0.00     0.000 A 
HETATM   28  C18 UNL     1      26.884   6.981  48.140  1.00  0.00     0.001 A 
HETATM   29  C19 UNL     1      25.681   6.420  48.492  1.00  0.00     0.007 A 
ENDBRANCH  23  24
ENDBRANCH  22  23
ENDBRANCH   6  22
TORSDOF 5
ENDMDL
MODEL 2
REMARK VINA RESULT:      -9.1      3.117      6.864
REMARK  5 active torsions:
REMARK  status: ('A' for Active; 'I' for Inactive)
REMARK    1  A    between atoms: N1_1  and  C1_2 
REMARK    2  A    between atoms: N2_4  and  C3_5 
REMARK    3  A    between atoms: C11_15  and  C12_16 
REMARK    4  A    between atoms: C12_16  and  C13_17 
REMARK    5  A    between atoms: C13_17  and  C14_18 
ROOT
HETATM    1  C1  UNL     1      27.754   0.251  54.143  1.00  0.00     0.139 C 
HETATM    2  C2  UNL     1      27.450   0.797  52.944  1.00  0.00     0.142 C 
HETATM    3  N2  UNL     1      26.039   0.858  52.624  1.00  0.00    -0.335 N 
HETATM    4  C9  UNL     1      25.320  -0.210  53.163  1.00  0.00     0.184 C 
HETATM    5  C10 UNL     1      23.884  -0.320  52.962  1.00  0.00     0.031 C 
HETATM    6  C11 UNL     1      23.275  -0.837  54.013  1.00  0.00     0.009 C 
HETATM    7  N3  UNL     1      24.244  -0.959  55.037  1.00  0.00    -0.346 N 
HETATM    8  C20 UNL     1      25.534  -0.477  54.604  1.00  0.00     0.133 C 
HETATM    9  N4  UNL     1      26.766  -0.364  54.944  1.00  0.00    -0.214 NA
HETATM   10  H18 UNL     1      24.246  -1.319  56.044  1.00  0.00     0.167 HD
ENDROOT
BRANCH   3  11
HETATM   11  C3  UNL     1      25.705   2.015  51.876  1.00  0.00     0.074 A 
HETATM   12  C4  UNL     1      26.472   2.214  50.750  1.00  0.00     0.034 A 
HETATM   13  C5  UNL     1      26.249   3.281  49.888  1.00  0.00     0.026 A 
HETATM   14  C6  UNL     1      25.229   4.207  50.123  1.00  0.00     0.037 A 
HETATM   15 CL1  UNL     1      24.882   5.571  49.093  1.00  0.00    -0.084 Cl
HETATM   16  C7  UNL     1      24.469   3.996  51.252  1.00  0.00     0.068 A 
HETATM   17  C8  UNL     1      24.711   2.937  52.084  1.00  0.00     0.144 A 
HETATM   18  F1  UNL     1      23.932   2.820  53.160  1.00  0.00    -0.204 F 
ENDBRANCH   3  11
BRANCH   1  19
HETATM   19  N1  UNL     1      29.032   0.059  54.751  1.00  0.00    -0.383 N 
HETATM   20  H1  UNL     1      28.903  -0.807  55.305  1.00  0.00     0.157 HD
HETATM   21  H2  UNL     1      29.926   0.626  54.688  1.00  0.00     0.157 HD
ENDBRANCH   1  19
BRANCH   6  22
HETATM   22  C12 UNL     1      21.890  -1.209  54.433  1.00  0.00     0.061 C 
BRANCH  22  23
HETATM   23  C13 UNL     1      21.019   0.037  54.514  1.00  0.00     0.044 C 
BRANCH  23  24
HETATM   24  C14 UNL     1      20.045  -0.048  53.384  1.00  0.00    -0.058 A 
HETATM   25  C15 UNL     1      18.895  -0.789  53.353  1.00  0.00     0.007 A 
HETATM   26  C16 UNL     1      18.077  -0.779  52.239  1.00  0.00     0.001 A 
HETATM   27  C17 UNL     1      18.405  -0.017  51.122  1.00  0.00     0.000 A 
HETATM   28  C18 UNL     1      19.567   0.740  51.136  1.00  0.00     0.001 A 
HETATM   29  C19 UNL     1      20.348   0.700  52.264  1.00  0.00     0.007 A 
ENDBRANCH  23  24
ENDBRANCH  22  23
ENDBRANCH   6  22
TORSDOF 5
ENDMDL
MODEL 3
REMARK VINA RESULT:      -8.9      3.001      4.590
REMARK  5 active torsions:
REMARK  status: ('A' for Active; 'I' for Inactive)
REMARK    1  A    between atoms: N1_1  and  C1_2 
REMARK    2  A    between atoms: N2_4  and  C3_5 
REMARK    3  A    between atoms: C11_15  and  C12_16 
REMARK    4  A    between atoms: C12_16  and  C13_17 
REMARK    5  A    between atoms: C13_17  and  C14_18 
ROOT
HETATM    1  C1  UNL     1      26.268  -0.769  52.979  1.00  0.00     0.139 C 
HETATM    2  C2  UNL     1      25.048  -0.687  53.555  1.00  0.00     0.142 C 
HETATM    3  N2  UNL     1      24.223   0.420  53.120  1.00  0.00    -0.335 N 
HETATM    4  C9  UNL     1      24.974   1.552  52.795  1.00  0.00     0.184 C 
HETATM    5  C10 UNL     1      24.328   2.767  52.325  1.00  0.00     0.031 C 
HETATM    6  C11 UNL     1      25.058   3.400  51.426  1.00  0.00     0.009 C 
HETATM    7  N3  UNL     1      26.163   2.568  51.126  1.00  0.00    -0.346 N 
HETATM    8  C20 UNL     1      26.113   1.335  51.874  1.00  0.00     0.133 C 
HETATM    9  N4  UNL     1      26.757   0.256  52.139  1.00  0.00    -0.214 NA
HETATM   10  H18 UNL     1      27.015   2.637  50.484  1.00  0.00     0.167 HD
ENDROOT
BRANCH   3  11
HETATM   11  C3  UNL     1      22.846   0.087  53.078  1.00  0.00     0.074 A 
HETATM   12  C4  UNL     1      22.348  -0.447  54.246  1.00  0.00     0.034 A 
HETATM   13  C5  UNL     1      21.010  -0.793  54.383  1.00  0.00     0.026 A 
HETATM   14  C6  UNL     1      20.100  -0.615  53.337  1.00  0.00     0.037 A 
HETATM   15 CL1  UNL     1      18.406  -1.022  53.428  1.00  0.00    -0.084 Cl
HETATM   16  C7  UNL     1      20.611  -0.081  52.176  1.00  0.00     0.068 A 
HETATM   17  C8  UNL     1      21.934   0.250  52.068  1.00  0.00     0.144 A 
HETATM   18  F1  UNL     1      22.341   0.750  50.900  1.00  0.00    -0.204 F 
ENDBRANCH   3  11
BRANCH   1  19
HETATM   19  N1  UNL     1      27.299  -1.737  53.180  1.00  0.00    -0.383 N 
HETATM   20  H1  UNL     1      26.926  -2.325  53.948  1.00  0.00     0.157 HD
HETATM   21  H2  UNL     1      28.234  -1.871  52.697  1.00  0.00     0.157 HD
ENDBRANCH   1  19
BRANCH   6  22
HETATM   22  C12 UNL     1      24.985   4.642  50.598  1.00  0.00     0.061 C 
BRANCH  22  23
HETATM   23  C13 UNL     1      25.414   4.342  49.169  1.00  0.00     0.044 C 
BRANCH  23  24
HETATM   24  C14 UNL     1      26.494   5.318  48.833  1.00  0.00    -0.058 A 
HETATM   25  C15 UNL     1      26.359   6.675  48.716  1.00  0.00     0.007 A 
HETATM   26  C16 UNL     1      27.445   7.468  48.399  1.00  0.00     0.001 A 
HETATM   27  C17 UNL     1      28.700   6.906  48.189  1.00  0.00     0.000 A 
HETATM   28  C18 UNL     1      28.855   5.533  48.302  1.00  0.00     0.001 A 
HETATM   29  C19 UNL     1      27.748   4.784  48.620  1.00  0.00     0.007 A 
ENDBRANCH  23  24
ENDBRANCH  22  23
ENDBRANCH   6  22
TORSDOF 5
ENDMDL
MODEL 4
REMARK VINA RESULT:      -8.7      2.653      6.461
REMARK  5 active torsions:
REMARK  status: ('A' for Active; 'I' for Inactive)
REMARK    1  A    between atoms: N1_1  and  C1_2 
REMARK    2  A    between atoms: N2_4  and  C3_5 
REMARK    3  A    between atoms: C11_15  and  C12_16 
REMARK    4  A    between atoms: C12_16  and  C13_17 
REMARK    5  A    between atoms: C13_17  and  C14_18 
ROOT
HETATM    1  C1  UNL     1      21.176   3.968  51.453  1.00  0.00     0.139 C 
HETATM    2  C2  UNL     1      22.210   4.822  51.287  1.00  0.00     0.142 C 
HETATM    3  N2  UNL     1      23.526   4.267  51.528  1.00  0.00    -0.335 N 
HETATM    4  C9  UNL     1      23.520   3.285  52.520  1.00  0.00     0.184 C 
HETATM    5  C10 UNL     1      24.744   2.598  52.899  1.00  0.00     0.031 C 
HETATM    6  C11 UNL     1      24.526   1.335  53.217  1.00  0.00     0.009 C 
HETATM    7  N3  UNL     1      23.170   1.060  52.921  1.00  0.00    -0.346 N 
HETATM    8  C20 UNL     1      22.504   2.217  52.372  1.00  0.00     0.133 C 
HETATM    9  N4  UNL     1      21.367   2.674  51.987  1.00  0.00    -0.214 NA
HETATM   10  H18 UNL     1      22.530   0.208  53.006  1.00  0.00     0.167 HD
ENDROOT
BRANCH   3  11
HETATM   11  C3  UNL     1      24.510   4.815  50.668  1.00  0.00     0.074 A 
HETATM   12  C4  UNL     1      24.684   6.176  50.785  1.00  0.00     0.034 A 
HETATM   13  C5  UNL     1      25.635   6.862  50.041  1.00  0.00     0.026 A 
HETATM   14  C6  UNL     1      26.466   6.200  49.132  1.00  0.00     0.037 A 
HETATM   15 CL1  UNL     1      27.684   6.985  48.161  1.00  0.00    -0.084 Cl
HETATM   16  C7  UNL     1      26.282   4.840  49.025  1.00  0.00     0.068 A 
HETATM   17  C8  UNL     1      25.337   4.190  49.770  1.00  0.00     0.144 A 
HETATM   18  F1  UNL     1      25.222   2.873  49.590  1.00  0.00    -0.204 F 
ENDBRANCH   3  11
BRANCH   1  19
HETATM   19  N1  UNL     1      19.777   4.199  51.283  1.00  0.00    -0.383 N 
HETATM   20  H1  UNL     1      19.401   3.250  51.100  1.00  0.00     0.157 HD
HETATM   21  H2  UNL     1      19.208   5.093  51.321  1.00  0.00     0.157 HD
ENDBRANCH   1  19
BRANCH   6  22
HETATM   22  C12 UNL     1      25.306   0.147  53.678  1.00  0.00     0.061 C 
BRANCH  22  23
HETATM   23  C13 UNL     1      26.004  -0.508  52.495  1.00  0.00     0.044 C 
BRANCH  23  24
HETATM   24  C14 UNL     1      27.423  -0.730  52.906  1.00  0.00    -0.058 A 
HETATM   25  C15 UNL     1      28.086  -1.927  52.933  1.00  0.00     0.007 A 
HETATM   26  C16 UNL     1      29.406  -1.996  53.336  1.00  0.00     0.001 A 
HETATM   27  C17 UNL     1      30.092  -0.850  53.726  1.00  0.00     0.000 A 
HETATM   28  C18 UNL     1      29.436   0.372  53.706  1.00  0.00     0.001 A 
HETATM   29  C19 UNL     1      28.125   0.392  53.297  1.00  0.00     0.007 A 
ENDBRANCH  23  24
ENDBRANCH  22  23
ENDBRANCH   6  22
TORSDOF 5
ENDMDL
MODEL 5
REMARK VINA RESULT:      -8.5      2.741      6.449
REMARK  5 active torsions:
REMARK  status: ('A' for Active; 'I' for Inactive)
REMARK    1  A    between atoms: N1_1  and  C1_2 
REMARK    2  A    between atoms: N2_4  and  C3_5 
REMARK    3  A    between atoms: C11_15  and  C12_16 
REMARK    4  A    between atoms: C12_16  and  C13_17 
REMARK    5  A    between atoms: C13_17  and  C14_18 
ROOT
HETATM    1  C1  UNL     1      26.056   3.078  51.048  1.00  0.00     0.139 C 
HETATM    2  C2  UNL     1      26.888   2.548  51.971  1.00  0.00     0.142 C 
HETATM    3  N2  UNL     1      26.391   1.376  52.663  1.00  0.00    -0.335 N 
HETATM    4  C9  UNL     1      25.006   1.401  52.832  1.00  0.00     0.184 C 
HETATM    5  C10 UNL     1      24.314   0.307  53.495  1.00  0.00     0.031 C 
HETATM    6  C11 UNL     1      23.123   0.084  52.972  1.00  0.00     0.009 C 
HETATM    7  N3  UNL     1      23.009   0.912  51.829  1.00  0.00    -0.346 N 
HETATM    8  C20 UNL     1      24.207   1.689  51.619  1.00  0.00     0.133 C 
HETATM    9  N4  UNL     1      24.730   2.613  50.897  1.00  0.00    -0.214 NA
HETATM   10  H18 UNL     1      22.255   1.095  51.094  1.00  0.00     0.167 HD
ENDROOT
BRANCH   3  11
HETATM   11  C3  UNL     1      27.421   0.451  52.968  1.00  0.00     0.074 A 
HETATM   12  C4  UNL     1      28.480   0.980  53.670  1.00  0.00     0.034 A 
HETATM   13  C5  UNL     1      29.554   0.199  54.079  1.00  0.00     0.026 A 
HETATM   14  C6  UNL     1      29.609  -1.169  53.797  1.00  0.00     0.037 A 
HETATM   15 CL1  UNL     1      30.918  -2.220  54.274  1.00  0.00    -0.084 Cl
HETATM   16  C7  UNL     1      28.543  -1.685  53.094  1.00  0.00     0.068 A 
HETATM   17  C8  UNL     1      27.500  -0.892  52.703  1.00  0.00     0.144 A 
HETATM   18  F1  UNL     1      26.517  -1.477  52.016  1.00  0.00    -0.204 F 
ENDBRANCH   3  11
BRANCH   1  19
HETATM   19  N1  UNL     1      26.251   4.210  50.198  1.00  0.00    -0.383 N 
HETATM   20  H1  UNL     1      25.557   4.894  50.552  1.00  0.00     0.157 HD
HETATM   21  H2  UNL     1      26.921   4.369  49.392  1.00  0.00     0.157 HD
ENDBRANCH   1  19
BRANCH   6  22
HETATM   22  C12 UNL     1      21.963  -0.834  53.180  1.00  0.00     0.061 C 
BRANCH  22  23
HETATM   23  C13 UNL     1      20.827  -0.091  53.869  1.00  0.00     0.044 C 
BRANCH  23  24
HETATM   24  C14 UNL     1      19.636  -0.210  52.976  1.00  0.00    -0.058 A 
HETATM   25  C15 UNL     1      19.436   0.447  51.792  1.00  0.00     0.007 A 
HETATM   26  C16 UNL     1      18.282   0.246  51.059  1.00  0.00     0.001 A 
HETATM   27  C17 UNL     1      17.295  -0.626  51.508  1.00  0.00     0.000 A 
HETATM   28  C18 UNL     1      17.481  -1.299  52.706  1.00  0.00     0.001 A 
HETATM   29  C19 UNL     1      18.643  -1.069  53.401  1.00  0.00     0.007 A 
ENDBRANCH  23  24
ENDBRANCH  22  23
ENDBRANCH   6  22
TORSDOF 5
ENDMDL
MODEL 6
REMARK VINA RESULT:      -8.2      2.773      6.789
REMARK  5 active torsions:
REMARK  status: ('A' for Active; 'I' for Inactive)
REMARK    1  A    between atoms: N1_1  and  C1_2 
REMARK    2  A    between atoms: N2_4  and  C3_5 
REMARK    3  A    between atoms: C11_15  and  C12_16 
REMARK    4  A    between atoms: C12_16  and  C13_17 
REMARK    5  A    between atoms: C13_17  and  C14_18 
ROOT
HETATM    1  C1  UNL     1      22.391   3.793  48.244  1.00  0.00     0.139 C 
HETATM    2  C2  UNL     1      23.329   4.760  48.352  1.00  0.00     0.142 C 
HETATM    3  N2  UNL     1      24.312   4.566  49.398  1.00  0.00    -0.335 N 
HETATM    4  C9  UNL     1      23.786   3.908  50.511  1.00  0.00     0.184 C 
HETATM    5  C10 UNL     1      24.619   3.609  51.665  1.00  0.00     0.031 C 
HETATM    6  C11 UNL     1      24.290   2.462  52.230  1.00  0.00     0.009 C 
HETATM    7  N3  UNL     1      23.322   1.851  51.398  1.00  0.00    -0.346 N 
HETATM    8  C20 UNL     1      23.039   2.659  50.236  1.00  0.00     0.133 C 
HETATM    9  N4  UNL     1      22.287   2.757  49.199  1.00  0.00    -0.214 NA
HETATM   10  H18 UNL     1      22.759   0.943  51.426  1.00  0.00     0.167 HD
ENDROOT
BRANCH   3  11
HETATM   11  C3  UNL     1      25.594   5.047  49.033  1.00  0.00     0.074 A 
HETATM   12  C4  UNL     1      25.644   6.394  48.751  1.00  0.00     0.034 A 
HETATM   13  C5  UNL     1      26.832   7.030  48.413  1.00  0.00     0.026 A 
HETATM   14  C6  UNL     1      28.039   6.330  48.343  1.00  0.00     0.037 A 
HETATM   15 CL1  UNL     1      29.572   7.051  47.927  1.00  0.00    -0.084 Cl
HETATM   16  C7  UNL     1      27.975   4.984  48.627  1.00  0.00     0.068 A 
HETATM   17  C8  UNL     1      26.791   4.384  48.957  1.00  0.00     0.144 A 
HETATM   18  F1  UNL     1      26.824   3.072  49.204  1.00  0.00    -0.204 F 
ENDBRANCH   3  11
BRANCH   1  19
HETATM   19  N1  UNL     1      21.307   3.684  47.320  1.00  0.00    -0.383 N 
HETATM   20  H1  UNL     1      20.598   3.144  47.850  1.00  0.00     0.157 HD
HETATM   21  H2  UNL     1      21.197   4.044  46.329  1.00  0.00     0.157 HD
ENDBRANCH   1  19
BRANCH   6  22
HETATM   22  C12 UNL     1      24.717   1.623  53.390  1.00  0.00     0.061 C 
BRANCH  22  23
HETATM   23  C13 UNL     1      24.968   0.192  52.934  1.00  0.00     0.044 C 
BRANCH  23  24
HETATM   24  C14 UNL     1      26.383  -0.128  53.292  1.00  0.00    -0.058 A 
HETATM   25  C15 UNL     1      27.217  -0.986  52.628  1.00  0.00     0.007 A 
HETATM   26  C16 UNL     1      28.511  -1.195  53.066  1.00  0.00     0.001 A 
HETATM   27  C17 UNL     1      28.996  -0.537  54.192  1.00  0.00     0.000 A 
HETATM   28  C18 UNL     1      28.165   0.336  54.877  1.00  0.00     0.001 A 
HETATM   29  C19 UNL     1      26.887   0.512  54.406  1.00  0.00     0.007 A 
ENDBRANCH  23  24
ENDBRANCH  22  23
ENDBRANCH   6  22
TORSDOF 5
ENDMDL
MODEL 7
REMARK VINA RESULT:      -8.1      2.923      4.443
REMARK  5 active torsions:
REMARK  status: ('A' for Active; 'I' for Inactive)
REMARK    1  A    between atoms: N1_1  and  C1_2 
REMARK    2  A    between atoms: N2_4  and  C3_5 
REMARK    3  A    between atoms: C11_15  and  C12_16 
REMARK    4  A    between atoms: C12_16  and  C13_17 
REMARK    5  A    between atoms: C13_17  and  C14_18 
ROOT
HETATM    1  C1  UNL     1      26.624  -1.050  53.346  1.00  0.00     0.139 C 
HETATM    2  C2  UNL     1      25.437  -0.829  53.953  1.00  0.00     0.142 C 
HETATM    3  N2  UNL     1      24.651   0.261  53.414  1.00  0.00    -0.335 N 
HETATM    4  C9  UNL     1      25.443   1.299  52.920  1.00  0.00     0.184 C 
HETATM    5  C10 UNL     1      24.839   2.480  52.325  1.00  0.00     0.031 C 
HETATM    6  C11 UNL     1      25.559   2.955  51.325  1.00  0.00     0.009 C 
HETATM    7  N3  UNL     1      26.605   2.032  51.091  1.00  0.00    -0.346 N 
HETATM    8  C20 UNL     1      26.526   0.905  51.990  1.00  0.00     0.133 C 
HETATM    9  N4  UNL     1      27.126  -0.167  52.364  1.00  0.00    -0.214 NA
HETATM   10  H18 UNL     1      27.430   1.972  50.413  1.00  0.00     0.167 HD
ENDROOT
BRANCH   3  11
HETATM   11  C3  UNL     1      23.259   0.003  53.469  1.00  0.00     0.074 A 
HETATM   12  C4  UNL     1      22.577   0.272  52.303  1.00  0.00     0.034 A 
HETATM   13  C5  UNL     1      21.213   0.039  52.179  1.00  0.00     0.026 A 
HETATM   14  C6  UNL     1      20.464  -0.484  53.236  1.00  0.00     0.037 A 
HETATM   15 CL1  UNL     1      18.751  -0.806  53.163  1.00  0.00    -0.084 Cl
HETATM   16  C7  UNL     1      21.157  -0.749  54.396  1.00  0.00     0.068 A 
HETATM   17  C8  UNL     1      22.501  -0.509  54.490  1.00  0.00     0.144 A 
HETATM   18  F1  UNL     1      23.086  -0.784  55.658  1.00  0.00    -0.204 F 
ENDBRANCH   3  11
BRANCH   1  19
HETATM   19  N1  UNL     1      27.613  -2.042  53.628  1.00  0.00    -0.383 N 
HETATM   20  H1  UNL     1      28.444  -1.701  53.111  1.00  0.00     0.157 HD
HETATM   21  H2  UNL     1      27.566  -2.927  54.210  1.00  0.00     0.157 HD
ENDBRANCH   1  19
BRANCH   6  22
HETATM   22  C12 UNL     1      25.512   4.087  50.351  1.00  0.00     0.061 C 
BRANCH  22  23
HETATM   23  C13 UNL     1      26.527   3.860  49.240  1.00  0.00     0.044 C 
BRANCH  23  24
HETATM   24  C14 UNL     1      26.924   5.212  48.741  1.00  0.00    -0.058 A 
HETATM   25  C15 UNL     1      28.198   5.651  48.505  1.00  0.00     0.007 A 
HETATM   26  C16 UNL     1      28.430   6.932  48.042  1.00  0.00     0.001 A 
HETATM   27  C17 UNL     1      27.373   7.806  47.807  1.00  0.00     0.000 A 
HETATM   28  C18 UNL     1      26.075   7.378  48.042  1.00  0.00     0.001 A 
HETATM   29  C19 UNL     1      25.893   6.097  48.501  1.00  0.00     0.007 A 
ENDBRANCH  23  24
ENDBRANCH  22  23
ENDBRANCH   6  22
TORSDOF 5
ENDMDL
MODEL 8
REMARK VINA RESULT:      -8.1      3.359      5.389
REMARK  5 active torsions:
REMARK  status: ('A' for Active; 'I' for Inactive)
REMARK    1  A    between atoms: N1_1  and  C1_2 
REMARK    2  A    between atoms: N2_4  and  C3_5 
REMARK    3  A    between atoms: C11_15  and  C12_16 
REMARK    4  A    between atoms: C12_16  and  C13_17 
REMARK    5  A    between atoms: C13_17  and  C14_18 
ROOT
HETATM    1  C1  UNL     1      25.658  -0.418  53.116  1.00  0.00     0.139 C 
HETATM    2  C2  UNL     1      24.403  -0.333  53.610  1.00  0.00     0.142 C 
HETATM    3  N2  UNL     1      23.616   0.785  53.133  1.00  0.00    -0.335 N 
HETATM    4  C9  UNL     1      24.394   1.914  52.870  1.00  0.00     0.184 C 
HETATM    5  C10 UNL     1      23.789   3.138  52.370  1.00  0.00     0.031 C 
HETATM    6  C11 UNL     1      24.581   3.775  51.528  1.00  0.00     0.009 C 
HETATM    7  N3  UNL     1      25.698   2.938  51.294  1.00  0.00    -0.346 N 
HETATM    8  C20 UNL     1      25.590   1.698  52.024  1.00  0.00     0.133 C 
HETATM    9  N4  UNL     1      26.208   0.611  52.320  1.00  0.00    -0.214 NA
HETATM   10  H18 UNL     1      26.592   3.006  50.711  1.00  0.00     0.167 HD
ENDROOT
BRANCH   3  11
HETATM   11  C3  UNL     1      22.243   0.462  52.997  1.00  0.00     0.074 A 
HETATM   12  C4  UNL     1      21.753   0.560  51.714  1.00  0.00     0.034 A 
HETATM   13  C5  UNL     1      20.436   0.243  51.404  1.00  0.00     0.026 A 
HETATM   14  C6  UNL     1      19.542  -0.195  52.385  1.00  0.00     0.037 A 
HETATM   15 CL1  UNL     1      17.876  -0.613  52.081  1.00  0.00    -0.084 Cl
HETATM   16  C7  UNL     1      20.045  -0.289  53.663  1.00  0.00     0.068 A 
HETATM   17  C8  UNL     1      21.346   0.031  53.940  1.00  0.00     0.144 A 
HETATM   18  F1  UNL     1      21.741  -0.079  55.210  1.00  0.00    -0.204 F 
ENDBRANCH   3  11
BRANCH   1  19
HETATM   19  N1  UNL     1      26.667  -1.396  53.375  1.00  0.00    -0.383 N 
HETATM   20  H1  UNL     1      27.150  -1.484  52.462  1.00  0.00     0.157 HD
HETATM   21  H2  UNL     1      26.909  -1.931  54.258  1.00  0.00     0.157 HD
ENDBRANCH   1  19
BRANCH   6  22
HETATM   22  C12 UNL     1      24.571   5.025  50.710  1.00  0.00     0.061 C 
BRANCH  22  23
HETATM   23  C13 UNL     1      24.496   4.679  49.230  1.00  0.00     0.044 C 
BRANCH  23  24
HETATM   24  C14 UNL     1      23.161   4.047  49.006  1.00  0.00    -0.058 A 
HETATM   25  C15 UNL     1      21.941   4.597  49.290  1.00  0.00     0.007 A 
HETATM   26  C16 UNL     1      20.774   3.901  49.033  1.00  0.00     0.001 A 
HETATM   27  C17 UNL     1      20.814   2.624  48.481  1.00  0.00     0.000 A 
HETATM   28  C18 UNL     1      22.042   2.051  48.188  1.00  0.00     0.001 A 
HETATM   29  C19 UNL     1      23.174   2.779  48.460  1.00  0.00     0.007 A 
ENDBRANCH  23  24
ENDBRANCH  22  23
ENDBRANCH   6  22
TORSDOF 5
ENDMDL
MODEL 9
REMARK VINA RESULT:      -8.1      4.642      6.976
REMARK  5 active torsions:
REMARK  status: ('A' for Active; 'I' for Inactive)
REMARK    1  A    between atoms: N1_1  and  C1_2 
REMARK    2  A    between atoms: N2_4  and  C3_5 
REMARK    3  A    between atoms: C11_15  and  C12_16 
REMARK    4  A    between atoms: C12_16  and  C13_17 
REMARK    5  A    between atoms: C13_17  and  C14_18 
ROOT
HETATM    1  C1  UNL     1      19.493  -0.499  53.154  1.00  0.00     0.139 C 
HETATM    2  C2  UNL     1      19.395   0.634  52.424  1.00  0.00     0.142 C 
HETATM    3  N2  UNL     1      20.651   1.213  51.995  1.00  0.00    -0.335 N 
HETATM    4  C9  UNL     1      21.680   1.004  52.915  1.00  0.00     0.184 C 
HETATM    5  C10 UNL     1      23.022   1.500  52.660  1.00  0.00     0.031 C 
HETATM    6  C11 UNL     1      23.949   0.686  53.131  1.00  0.00     0.009 C 
HETATM    7  N3  UNL     1      23.287  -0.476  53.591  1.00  0.00    -0.346 N 
HETATM    8  C20 UNL     1      21.861  -0.389  53.383  1.00  0.00     0.133 C 
HETATM    9  N4  UNL     1      20.743  -0.981  53.603  1.00  0.00    -0.214 NA
HETATM   10  H18 UNL     1      23.589  -1.394  54.050  1.00  0.00     0.167 HD
ENDROOT
BRANCH   3  11
HETATM   11  C3  UNL     1      20.559   1.819  50.717  1.00  0.00     0.074 A 
HETATM   12  C4  UNL     1      19.995   3.075  50.715  1.00  0.00     0.034 A 
HETATM   13  C5  UNL     1      19.865   3.820  49.549  1.00  0.00     0.026 A 
HETATM   14  C6  UNL     1      20.305   3.329  48.317  1.00  0.00     0.037 A 
HETATM   15 CL1  UNL     1      20.180   4.198  46.810  1.00  0.00    -0.084 Cl
HETATM   16  C7  UNL     1      20.867   2.072  48.333  1.00  0.00     0.068 A 
HETATM   17  C8  UNL     1      20.981   1.360  49.496  1.00  0.00     0.144 A 
HETATM   18  F1  UNL     1      21.528   0.146  49.412  1.00  0.00    -0.204 F 
ENDBRANCH   3  11
BRANCH   1  19
HETATM   19  N1  UNL     1      18.456  -1.309  53.709  1.00  0.00    -0.383 N 
HETATM   20  H1  UNL     1      17.590  -0.828  53.403  1.00  0.00     0.157 HD
HETATM   21  H2  UNL     1      18.499  -2.191  54.296  1.00  0.00     0.157 HD
ENDBRANCH   1  19
BRANCH   6  22
HETATM   22  C12 UNL     1      25.439   0.613  53.208  1.00  0.00     0.061 C 
BRANCH  22  23
HETATM   23  C13 UNL     1      25.929  -0.691  52.595  1.00  0.00     0.044 C 
BRANCH  23  24
HETATM   24  C14 UNL     1      27.374  -0.816  52.953  1.00  0.00    -0.058 A 
HETATM   25  C15 UNL     1      28.114  -1.967  52.967  1.00  0.00     0.007 A 
HETATM   26  C16 UNL     1      29.451  -1.944  53.320  1.00  0.00     0.001 A 
HETATM   27  C17 UNL     1      30.074  -0.750  53.669  1.00  0.00     0.000 A 
HETATM   28  C18 UNL     1      29.340   0.425  53.661  1.00  0.00     0.001 A 
HETATM   29  C19 UNL     1      28.015   0.355  53.304  1.00  0.00     0.007 A 
ENDBRANCH  23  24
ENDBRANCH  22  23
ENDBRANCH   6  22
TORSDOF 5
ENDMDL
