MODEL 1
REMARK VINA RESULT:      -7.8      0.000      0.000
REMARK  4 active torsions:
REMARK  status: ('A' for Active; 'I' for Inactive)
REMARK    1  A    between atoms: C2_3  and  N2_4 
REMARK    2  A    between atoms: C2_3  and  C11_13 
REMARK    3  A    between atoms: N2_4  and  C3_5 
REMARK    4  A    between atoms: C3_5  and  C5_7 
ROOT
HETATM    1  C1  UNL     1      26.417   3.238  49.788  1.00  0.00     0.179 C 
HETATM    2  N1  UNL     1      25.580   2.934  50.906  1.00  0.00    -0.277 NA
HETATM    3  C2  UNL     1      25.898   2.407  51.989  1.00  0.00     0.128 C 
ENDROOT
BRANCH   3   4
HETATM    4  N2  UNL     1      24.736   2.280  52.843  1.00  0.00    -0.366 N 
HETATM    5  H4  UNL     1      24.733   2.506  53.886  1.00  0.00     0.161 HD
BRANCH   4   6
HETATM    6  C3  UNL     1      23.448   1.827  52.348  1.00  0.00     0.112 C 
HETATM    7  C4  UNL     1      22.542   3.022  52.230  1.00  0.00     0.037 C 
BRANCH   6   8
HETATM    8  C5  UNL     1      22.853   0.766  53.156  1.00  0.00    -0.036 A 
HETATM    9  C6  UNL     1      21.464   0.876  53.211  1.00  0.00     0.009 A 
HETATM   10  C7  UNL     1      20.683  -0.034  53.930  1.00  0.00     0.001 A 
HETATM   11  C8  UNL     1      21.320  -1.071  54.604  1.00  0.00     0.000 A 
HETATM   12  C9  UNL     1      22.693  -1.185  54.556  1.00  0.00     0.001 A 
HETATM   13  C10 UNL     1      23.448  -0.282  53.844  1.00  0.00     0.009 A 
ENDBRANCH   6   8
ENDBRANCH   4   6
ENDBRANCH   3   4
BRANCH   3  14
HETATM   14  C11 UNL     1      27.069   1.877  52.681  1.00  0.00     0.029 C 
HETATM   15  C12 UNL     1      28.277   2.139  53.234  1.00  0.00     0.105 C 
HETATM   16  N3  UNL     1      28.451   0.727  53.577  1.00  0.00    -0.353 N 
HETATM   17  C13 UNL     1      29.569  -0.094  53.896  1.00  0.00     0.091 C 
HETATM   18  C17 UNL     1      27.065   0.584  53.250  1.00  0.00     0.149 C 
HETATM   19  C14 UNL     1      29.267  -1.342  53.452  1.00  0.00     0.017 C 
HETATM   20  C15 UNL     1      27.939  -1.612  52.839  1.00  0.00    -0.000 C 
HETATM   21  C16 UNL     1      26.906  -0.739  52.709  1.00  0.00     0.004 C 
ENDBRANCH   3  14
TORSDOF 4
ENDMDL
MODEL 2
REMARK VINA RESULT:      -7.3      2.009      5.627
REMARK  4 active torsions:
REMARK  status: ('A' for Active; 'I' for Inactive)
REMARK    1  A    between atoms: C2_3  and  N2_4 
REMARK    2  A    between atoms: C2_3  and  C11_13 
REMARK    3  A    between atoms: N2_4  and  C3_5 
REMARK    4  A    between atoms: C3_5  and  C5_7 
ROOT
HETATM    1  C1  UNL     1      22.104   1.699  49.184  1.00  0.00     0.179 C 
HETATM    2  N1  UNL     1      22.844   1.673  50.407  1.00  0.00    -0.277 NA
HETATM    3  C2  UNL     1      23.622   2.535  50.859  1.00  0.00     0.128 C 
ENDROOT
BRANCH   3   4
HETATM    4  N2  UNL     1      24.161   2.105  52.131  1.00  0.00    -0.366 N 
HETATM    5  H4  UNL     1      24.093   2.672  53.032  1.00  0.00     0.161 HD
BRANCH   4   6
HETATM    6  C3  UNL     1      24.854   0.840  52.298  1.00  0.00     0.112 C 
HETATM    7  C4  UNL     1      24.044  -0.022  53.229  1.00  0.00     0.037 C 
BRANCH   6   8
HETATM    8  C5  UNL     1      26.235   0.985  52.749  1.00  0.00    -0.036 A 
HETATM    9  C6  UNL     1      26.916  -0.231  52.727  1.00  0.00     0.009 A 
HETATM   10  C7  UNL     1      28.255  -0.329  53.119  1.00  0.00     0.001 A 
HETATM   11  C8  UNL     1      28.912   0.822  53.541  1.00  0.00     0.000 A 
HETATM   12  C9  UNL     1      28.244   2.028  53.566  1.00  0.00     0.001 A 
HETATM   13  C10 UNL     1      26.928   2.109  53.177  1.00  0.00     0.009 A 
ENDBRANCH   6   8
ENDBRANCH   4   6
ENDBRANCH   3   4
BRANCH   3  14
HETATM   14  C11 UNL     1      24.164   3.849  50.521  1.00  0.00     0.029 C 
HETATM   15  C12 UNL     1      23.921   5.169  50.354  1.00  0.00     0.105 C 
HETATM   16  N3  UNL     1      25.318   5.403  49.987  1.00  0.00    -0.353 N 
HETATM   17  C13 UNL     1      26.009   6.437  49.294  1.00  0.00     0.091 C 
HETATM   18  C17 UNL     1      25.557   4.076  50.465  1.00  0.00     0.149 C 
HETATM   19  C14 UNL     1      27.060   5.842  48.670  1.00  0.00     0.017 C 
HETATM   20  C15 UNL     1      27.309   4.388  48.856  1.00  0.00    -0.000 C 
HETATM   21  C16 UNL     1      26.621   3.537  49.661  1.00  0.00     0.004 C 
ENDBRANCH   3  14
TORSDOF 4
ENDMDL
MODEL 3
REMARK VINA RESULT:      -7.3      1.550      4.665
REMARK  4 active torsions:
REMARK  status: ('A' for Active; 'I' for Inactive)
REMARK    1  A    between atoms: C2_3  and  N2_4 
REMARK    2  A    between atoms: C2_3  and  C11_13 
REMARK    3  A    between atoms: N2_4  and  C3_5 
REMARK    4  A    between atoms: C3_5  and  C5_7 
ROOT
HETATM    1  C1  UNL     1      22.645  -0.781  53.849  1.00  0.00     0.179 C 
HETATM    2  N1  UNL     1      23.049   0.190  52.882  1.00  0.00    -0.277 NA
HETATM    3  C2  UNL     1      24.139   0.788  52.794  1.00  0.00     0.128 C 
ENDROOT
BRANCH   3   4
HETATM    4  N2  UNL     1      24.124   1.691  51.663  1.00  0.00    -0.366 N 
HETATM    5  H4  UNL     1      24.173   1.374  50.646  1.00  0.00     0.161 HD
BRANCH   4   6
HETATM    6  C3  UNL     1      24.041   3.132  51.815  1.00  0.00     0.112 C 
HETATM    7  C4  UNL     1      22.590   3.529  51.751  1.00  0.00     0.037 C 
BRANCH   6   8
HETATM    8  C5  UNL     1      24.852   3.869  50.850  1.00  0.00    -0.036 A 
HETATM    9  C6  UNL     1      25.915   3.101  50.376  1.00  0.00     0.009 A 
HETATM   10  C7  UNL     1      26.825   3.605  49.442  1.00  0.00     0.001 A 
HETATM   11  C8  UNL     1      26.656   4.906  48.982  1.00  0.00     0.000 A 
HETATM   12  C9  UNL     1      25.608   5.672  49.447  1.00  0.00     0.001 A 
HETATM   13  C10 UNL     1      24.721   5.163  50.366  1.00  0.00     0.009 A 
ENDBRANCH   6   8
ENDBRANCH   4   6
ENDBRANCH   3   4
BRANCH   3  14
HETATM   14  C11 UNL     1      25.433   0.870  53.465  1.00  0.00     0.029 C 
HETATM   15  C12 UNL     1      26.302   1.633  54.169  1.00  0.00     0.105 C 
HETATM   16  N3  UNL     1      27.262   0.530  54.222  1.00  0.00    -0.353 N 
HETATM   17  C13 UNL     1      28.662   0.435  54.464  1.00  0.00     0.091 C 
HETATM   18  C17 UNL     1      26.190  -0.289  53.746  1.00  0.00     0.149 C 
HETATM   19  C14 UNL     1      29.103  -0.629  53.742  1.00  0.00     0.017 C 
HETATM   20  C15 UNL     1      28.138  -1.452  52.966  1.00  0.00    -0.000 C 
HETATM   21  C16 UNL     1      26.787  -1.310  52.928  1.00  0.00     0.004 C 
ENDBRANCH   3  14
TORSDOF 4
ENDMDL
MODEL 4
REMARK VINA RESULT:      -7.3      1.683      5.842
REMARK  4 active torsions:
REMARK  status: ('A' for Active; 'I' for Inactive)
REMARK    1  A    between atoms: C2_3  and  N2_4 
REMARK    2  A    between atoms: C2_3  and  C11_13 
REMARK    3  A    between atoms: N2_4  and  C3_5 
REMARK    4  A    between atoms: C3_5  and  C5_7 
ROOT
HETATM    1  C1  UNL     1      26.494   3.296  49.686  1.00  0.00     0.179 C 
HETATM    2  N1  UNL     1      26.475   2.602  50.936  1.00  0.00    -0.277 NA
HETATM    3  C2  UNL     1      25.548   2.527  51.765  1.00  0.00     0.128 C 
ENDROOT
BRANCH   3   4
HETATM    4  N2  UNL     1      25.954   1.723  52.898  1.00  0.00    -0.366 N 
HETATM    5  H4  UNL     1      26.282   2.125  53.830  1.00  0.00     0.161 HD
BRANCH   4   6
HETATM    6  C3  UNL     1      25.951   0.271  52.866  1.00  0.00     0.112 C 
HETATM    7  C4  UNL     1      24.951  -0.219  53.878  1.00  0.00     0.037 C 
BRANCH   6   8
HETATM    8  C5  UNL     1      27.270  -0.320  53.069  1.00  0.00    -0.036 A 
HETATM    9  C6  UNL     1      28.203   0.628  53.486  1.00  0.00     0.009 A 
HETATM   10  C7  UNL     1      29.535   0.286  53.742  1.00  0.00     0.001 A 
HETATM   11  C8  UNL     1      29.926  -1.038  53.571  1.00  0.00     0.000 A 
HETATM   12  C9  UNL     1      29.009  -1.982  53.158  1.00  0.00     0.001 A 
HETATM   13  C10 UNL     1      27.703  -1.629  52.911  1.00  0.00     0.009 A 
ENDBRANCH   6   8
ENDBRANCH   4   6
ENDBRANCH   3   4
BRANCH   3  14
HETATM   14  C11 UNL     1      24.177   2.988  51.964  1.00  0.00     0.029 C 
HETATM   15  C12 UNL     1      23.360   3.940  52.473  1.00  0.00     0.105 C 
HETATM   16  N3  UNL     1      22.180   3.205  52.016  1.00  0.00    -0.353 N 
HETATM   17  C13 UNL     1      20.800   3.213  52.365  1.00  0.00     0.091 C 
HETATM   18  C17 UNL     1      23.098   2.410  51.258  1.00  0.00     0.149 C 
HETATM   19  C14 UNL     1      20.346   1.949  52.162  1.00  0.00     0.017 C 
HETATM   20  C15 UNL     1      21.258   0.911  51.609  1.00  0.00    -0.000 C 
HETATM   21  C16 UNL     1      22.542   1.085  51.202  1.00  0.00     0.004 C 
ENDBRANCH   3  14
TORSDOF 4
ENDMDL
MODEL 5
REMARK VINA RESULT:      -7.2      1.809      3.152
REMARK  4 active torsions:
REMARK  status: ('A' for Active; 'I' for Inactive)
REMARK    1  A    between atoms: C2_3  and  N2_4 
REMARK    2  A    between atoms: C2_3  and  C11_13 
REMARK    3  A    between atoms: N2_4  and  C3_5 
REMARK    4  A    between atoms: C3_5  and  C5_7 
ROOT
HETATM    1  C1  UNL     1      24.149   3.332  52.196  1.00  0.00     0.179 C 
HETATM    2  N1  UNL     1      23.509   2.067  52.379  1.00  0.00    -0.277 NA
HETATM    3  C2  UNL     1      23.969   1.035  52.904  1.00  0.00     0.128 C 
ENDROOT
BRANCH   3   4
HETATM    4  N2  UNL     1      22.980  -0.022  52.882  1.00  0.00    -0.366 N 
HETATM    5  H4  UNL     1      22.998  -0.842  52.200  1.00  0.00     0.161 HD
BRANCH   4   6
HETATM    6  C3  UNL     1      21.857  -0.060  53.800  1.00  0.00     0.112 C 
HETATM    7  C4  UNL     1      22.100  -1.162  54.796  1.00  0.00     0.037 C 
BRANCH   6   8
HETATM    8  C5  UNL     1      20.564  -0.199  53.136  1.00  0.00    -0.036 A 
HETATM    9  C6  UNL     1      20.540   0.465  51.910  1.00  0.00     0.009 A 
HETATM   10  C7  UNL     1      19.400   0.467  51.099  1.00  0.00     0.001 A 
HETATM   11  C8  UNL     1      18.269  -0.213  51.538  1.00  0.00     0.000 A 
HETATM   12  C9  UNL     1      18.285  -0.871  52.750  1.00  0.00     0.001 A 
HETATM   13  C10 UNL     1      19.414  -0.864  53.536  1.00  0.00     0.009 A 
ENDBRANCH   6   8
ENDBRANCH   4   6
ENDBRANCH   3   4
BRANCH   3  14
HETATM   14  C11 UNL     1      25.188   0.546  53.543  1.00  0.00     0.029 C 
HETATM   15  C12 UNL     1      25.733  -0.272  54.473  1.00  0.00     0.105 C 
HETATM   16  N3  UNL     1      27.077   0.195  54.129  1.00  0.00    -0.353 N 
HETATM   17  C13 UNL     1      28.339   0.180  54.787  1.00  0.00     0.091 C 
HETATM   18  C17 UNL     1      26.462   0.798  52.987  1.00  0.00     0.149 C 
HETATM   19  C14 UNL     1      29.005   1.286  54.362  1.00  0.00     0.017 C 
HETATM   20  C15 UNL     1      28.389   2.181  53.346  1.00  0.00    -0.000 C 
HETATM   21  C16 UNL     1      27.205   1.997  52.706  1.00  0.00     0.004 C 
ENDBRANCH   3  14
TORSDOF 4
ENDMDL
MODEL 6
REMARK VINA RESULT:      -7.1      1.626      6.519
REMARK  4 active torsions:
REMARK  status: ('A' for Active; 'I' for Inactive)
REMARK    1  A    between atoms: C2_3  and  N2_4 
REMARK    2  A    between atoms: C2_3  and  C11_13 
REMARK    3  A    between atoms: N2_4  and  C3_5 
REMARK    4  A    between atoms: C3_5  and  C5_7 
ROOT
HETATM    1  C1  UNL     1      22.707  -0.916  54.414  1.00  0.00     0.179 C 
HETATM    2  N1  UNL     1      23.853  -0.575  53.630  1.00  0.00    -0.277 NA
HETATM    3  C2  UNL     1      24.051   0.454  52.956  1.00  0.00     0.128 C 
ENDROOT
BRANCH   3   4
HETATM    4  N2  UNL     1      25.348   0.391  52.316  1.00  0.00    -0.366 N 
HETATM    5  H4  UNL     1      25.499   0.104  51.300  1.00  0.00     0.161 HD
BRANCH   4   6
HETATM    6  C3  UNL     1      26.579   0.718  53.012  1.00  0.00     0.112 C 
HETATM    7  C4  UNL     1      27.185   1.928  52.353  1.00  0.00     0.037 C 
BRANCH   6   8
HETATM    8  C5  UNL     1      27.522  -0.395  53.086  1.00  0.00    -0.036 A 
HETATM    9  C6  UNL     1      28.778   0.021  53.524  1.00  0.00     0.009 A 
HETATM   10  C7  UNL     1      29.840  -0.878  53.670  1.00  0.00     0.001 A 
HETATM   11  C8  UNL     1      29.624  -2.218  53.366  1.00  0.00     0.000 A 
HETATM   12  C9  UNL     1      28.384  -2.636  52.930  1.00  0.00     0.001 A 
HETATM   13  C10 UNL     1      27.350  -1.740  52.792  1.00  0.00     0.009 A 
ENDBRANCH   6   8
ENDBRANCH   4   6
ENDBRANCH   3   4
BRANCH   3  14
HETATM   14  C11 UNL     1      23.397   1.712  52.605  1.00  0.00     0.029 C 
HETATM   15  C12 UNL     1      23.473   3.063  52.579  1.00  0.00     0.105 C 
HETATM   16  N3  UNL     1      22.133   3.149  51.996  1.00  0.00    -0.353 N 
HETATM   17  C13 UNL     1      21.150   4.173  51.898  1.00  0.00     0.091 C 
HETATM   18  C17 UNL     1      22.248   1.738  51.784  1.00  0.00     0.149 C 
HETATM   19  C14 UNL     1      19.944   3.548  51.906  1.00  0.00     0.017 C 
HETATM   20  C15 UNL     1      19.876   2.062  51.944  1.00  0.00    -0.000 C 
HETATM   21  C16 UNL     1      20.923   1.196  51.911  1.00  0.00     0.004 C 
ENDBRANCH   3  14
TORSDOF 4
ENDMDL
MODEL 7
REMARK VINA RESULT:      -7.0      2.806      6.360
REMARK  4 active torsions:
REMARK  status: ('A' for Active; 'I' for Inactive)
REMARK    1  A    between atoms: C2_3  and  N2_4 
REMARK    2  A    between atoms: C2_3  and  C11_13 
REMARK    3  A    between atoms: N2_4  and  C3_5 
REMARK    4  A    between atoms: C3_5  and  C5_7 
ROOT
HETATM    1  C1  UNL     1      23.652   3.030  49.013  1.00  0.00     0.179 C 
HETATM    2  N1  UNL     1      24.605   2.984  50.078  1.00  0.00    -0.277 NA
HETATM    3  C2  UNL     1      25.675   3.613  50.186  1.00  0.00     0.128 C 
ENDROOT
BRANCH   3   4
HETATM    4  N2  UNL     1      26.337   3.265  51.425  1.00  0.00    -0.366 N 
HETATM    5  H4  UNL     1      27.187   3.779  51.814  1.00  0.00     0.161 HD
BRANCH   4   6
HETATM    6  C3  UNL     1      25.895   2.165  52.264  1.00  0.00     0.112 C 
HETATM    7  C4  UNL     1      25.087   2.734  53.399  1.00  0.00     0.037 C 
BRANCH   6   8
HETATM    8  C5  UNL     1      26.986   1.319  52.740  1.00  0.00    -0.036 A 
HETATM    9  C6  UNL     1      27.977   2.064  53.378  1.00  0.00     0.009 A 
HETATM   10  C7  UNL     1      29.119   1.460  53.914  1.00  0.00     0.001 A 
HETATM   11  C8  UNL     1      29.258   0.081  53.800  1.00  0.00     0.000 A 
HETATM   12  C9  UNL     1      28.283  -0.662  53.169  1.00  0.00     0.001 A 
HETATM   13  C10 UNL     1      27.166  -0.054  52.647  1.00  0.00     0.009 A 
ENDBRANCH   6   8
ENDBRANCH   4   6
ENDBRANCH   3   4
BRANCH   3  14
HETATM   14  C11 UNL     1      26.479   4.597  49.466  1.00  0.00     0.029 C 
HETATM   15  C12 UNL     1      27.545   4.824  48.663  1.00  0.00     0.105 C 
HETATM   16  N3  UNL     1      27.279   6.263  48.680  1.00  0.00    -0.353 N 
HETATM   17  C13 UNL     1      28.051   7.426  48.399  1.00  0.00     0.091 C 
HETATM   18  C17 UNL     1      26.021   5.918  49.268  1.00  0.00     0.149 C 
HETATM   19  C14 UNL     1      27.566   8.409  49.202  1.00  0.00     0.017 C 
HETATM   20  C15 UNL     1      26.400   8.142  50.085  1.00  0.00    -0.000 C 
HETATM   21  C16 UNL     1      25.676   6.994  50.157  1.00  0.00     0.004 C 
ENDBRANCH   3  14
TORSDOF 4
ENDMDL
MODEL 8
REMARK VINA RESULT:      -6.9      2.473      6.463
REMARK  4 active torsions:
REMARK  status: ('A' for Active; 'I' for Inactive)
REMARK    1  A    between atoms: C2_3  and  N2_4 
REMARK    2  A    between atoms: C2_3  and  C11_13 
REMARK    3  A    between atoms: N2_4  and  C3_5 
REMARK    4  A    between atoms: C3_5  and  C5_7 
ROOT
HETATM    1  C1  UNL     1      26.979   4.353  49.019  1.00  0.00     0.179 C 
HETATM    2  N1  UNL     1      26.732   3.627  50.226  1.00  0.00    -0.277 NA
HETATM    3  C2  UNL     1      25.685   3.580  50.899  1.00  0.00     0.128 C 
ENDROOT
BRANCH   3   4
HETATM    4  N2  UNL     1      25.869   2.723  52.051  1.00  0.00    -0.366 N 
HETATM    5  H4  UNL     1      26.112   3.078  53.027  1.00  0.00     0.161 HD
BRANCH   4   6
HETATM    6  C3  UNL     1      25.738   1.279  51.979  1.00  0.00     0.112 C 
HETATM    7  C4  UNL     1      24.455   0.888  52.663  1.00  0.00     0.037 C 
BRANCH   6   8
HETATM    8  C5  UNL     1      26.888   0.561  52.521  1.00  0.00    -0.036 A 
HETATM    9  C6  UNL     1      27.843   1.432  53.042  1.00  0.00     0.009 A 
HETATM   10  C7  UNL     1      29.030   0.964  53.614  1.00  0.00     0.001 A 
HETATM   11  C8  UNL     1      29.252  -0.408  53.658  1.00  0.00     0.000 A 
HETATM   12  C9  UNL     1      28.313  -1.277  53.143  1.00  0.00     0.001 A 
HETATM   13  C10 UNL     1      27.150  -0.801  52.584  1.00  0.00     0.009 A 
ENDBRANCH   6   8
ENDBRANCH   4   6
ENDBRANCH   3   4
BRANCH   3  14
HETATM   14  C11 UNL     1      24.323   4.109  50.901  1.00  0.00     0.029 C 
HETATM   15  C12 UNL     1      23.006   3.856  50.723  1.00  0.00     0.105 C 
HETATM   16  N3  UNL     1      22.676   5.255  50.998  1.00  0.00    -0.353 N 
HETATM   17  C13 UNL     1      21.556   6.090  50.725  1.00  0.00     0.091 C 
HETATM   18  C17 UNL     1      24.027   5.375  51.454  1.00  0.00     0.149 C 
HETATM   19  C14 UNL     1      22.045   7.348  50.573  1.00  0.00     0.017 C 
HETATM   20  C15 UNL     1      23.498   7.610  50.763  1.00  0.00    -0.000 C 
HETATM   21  C16 UNL     1      24.445   6.716  51.148  1.00  0.00     0.004 C 
ENDBRANCH   3  14
TORSDOF 4
ENDMDL
MODEL 9
REMARK VINA RESULT:      -6.9      1.784      4.412
REMARK  4 active torsions:
REMARK  status: ('A' for Active; 'I' for Inactive)
REMARK    1  A    between atoms: C2_3  and  N2_4 
REMARK    2  A    between atoms: C2_3  and  C11_13 
REMARK    3  A    between atoms: N2_4  and  C3_5 
REMARK    4  A    between atoms: C3_5  and  C5_7 
ROOT
HETATM    1  C1  UNL     1      26.746   0.369  54.200  1.00  0.00     0.179 C 
HETATM    2  N1  UNL     1      25.430  -0.011  53.789  1.00  0.00    -0.277 NA
HETATM    3  C2  UNL     1      24.599   0.656  53.144  1.00  0.00     0.128 C 
ENDROOT
BRANCH   3   4
HETATM    4  N2  UNL     1      23.388  -0.112  52.946  1.00  0.00    -0.366 N 
HETATM    5  H4  UNL     1      23.250  -0.819  52.159  1.00  0.00     0.161 HD
BRANCH   4   6
HETATM    6  C3  UNL     1      22.233   0.013  53.817  1.00  0.00     0.112 C 
HETATM    7  C4  UNL     1      22.342  -1.029  54.897  1.00  0.00     0.037 C 
BRANCH   6   8
HETATM    8  C5  UNL     1      20.958  -0.063  53.109  1.00  0.00    -0.036 A 
HETATM    9  C6  UNL     1      21.033   0.520  51.846  1.00  0.00     0.009 A 
HETATM   10  C7  UNL     1      19.927   0.563  50.990  1.00  0.00     0.001 A 
HETATM   11  C8  UNL     1      18.728   0.006  51.422  1.00  0.00     0.000 A 
HETATM   12  C9  UNL     1      18.646  -0.572  52.672  1.00  0.00     0.001 A 
HETATM   13  C10 UNL     1      19.742  -0.606  53.502  1.00  0.00     0.009 A 
ENDBRANCH   6   8
ENDBRANCH   4   6
ENDBRANCH   3   4
BRANCH   3  14
HETATM   14  C11 UNL     1      24.451   1.965  52.515  1.00  0.00     0.029 C 
HETATM   15  C12 UNL     1      23.671   3.056  52.331  1.00  0.00     0.105 C 
HETATM   16  N3  UNL     1      24.679   3.658  51.458  1.00  0.00    -0.353 N 
HETATM   17  C13 UNL     1      24.663   4.683  50.470  1.00  0.00     0.091 C 
HETATM   18  C17 UNL     1      25.554   2.629  51.931  1.00  0.00     0.149 C 
HETATM   19  C14 UNL     1      25.617   4.354  49.560  1.00  0.00     0.017 C 
HETATM   20  C15 UNL     1      26.461   3.147  49.772  1.00  0.00    -0.000 C 
HETATM   21  C16 UNL     1      26.443   2.315  50.846  1.00  0.00     0.004 C 
ENDBRANCH   3  14
TORSDOF 4
ENDMDL
