MODEL 1
REMARK VINA RESULT:      -8.1      0.000      0.000
REMARK  4 active torsions:
REMARK  status: ('A' for Active; 'I' for Inactive)
REMARK    1  A    between atoms: C2_2  and  O1_3 
REMARK    2  A    between atoms: O1_3  and  C3_4 
REMARK    3  A    between atoms: N2_10  and  C8_11 
REMARK    4  A    between atoms: C17_21  and  O2_22 
ROOT
HETATM    1  C3  UNL     1      26.174   0.113  53.651  1.00  0.00     0.103 A 
HETATM    2  C4  UNL     1      25.025  -0.146  53.119  1.00  0.00     0.069 A 
HETATM    3  C5  UNL     1      23.936   0.689  52.640  1.00  0.00     0.064 A 
HETATM    4  N1  UNL     1      22.758   0.485  52.272  1.00  0.00    -0.262 NA
HETATM    5  C6  UNL     1      21.889   1.494  51.804  1.00  0.00     0.134 C 
HETATM    6  C7  UNL     1      22.305   2.769  51.689  1.00  0.00     0.112 C 
HETATM    7  N2  UNL     1      23.660   3.015  52.041  1.00  0.00    -0.339 N 
HETATM    8  C15 UNL     1      24.241   2.110  52.939  1.00  0.00     0.167 A 
HETATM    9  C16 UNL     1      25.555   2.386  53.504  1.00  0.00     0.044 A 
HETATM   10  C17 UNL     1      26.479   1.517  53.856  1.00  0.00     0.100 A 
ENDROOT
BRANCH   7  11
HETATM   11  C8  UNL     1      24.216   4.142  51.352  1.00  0.00     0.064 A 
HETATM   12  C9  UNL     1      23.751   5.436  51.623  1.00  0.00     0.146 A 
HETATM   13  N3  UNL     1      24.201   6.565  51.078  1.00  0.00    -0.270 NA
HETATM   14  C10 UNL     1      25.208   6.517  50.163  1.00  0.00     0.128 A 
HETATM   15  C11 UNL     1      25.715   5.273  49.847  1.00  0.00    -0.006 A 
HETATM   16  C12 UNL     1      25.232   4.120  50.426  1.00  0.00     0.004 A 
HETATM   17  C14 UNL     1      26.602   4.606  49.117  1.00  0.00     0.014 A 
HETATM   18  C13 UNL     1      26.092   3.408  49.723  1.00  0.00     0.015 A 
ENDBRANCH   7  11
BRANCH  10  19
HETATM   19  O2  UNL     1      27.687   1.930  54.396  1.00  0.00    -0.353 OA
HETATM   20  C18 UNL     1      28.654   2.489  53.522  1.00  0.00     0.210 C 
ENDBRANCH  10  19
BRANCH   1  21
HETATM   21  O1  UNL     1      27.045  -0.878  54.012  1.00  0.00    -0.349 OA
BRANCH  21  22
HETATM   22  C2  UNL     1      27.998  -1.454  53.171  1.00  0.00     0.171 C 
HETATM   23  C1  UNL     1      29.419  -1.125  53.587  1.00  0.00     0.034 C 
ENDBRANCH  21  22
ENDBRANCH   1  21
TORSDOF 4
ENDMDL
MODEL 2
REMARK VINA RESULT:      -7.8      2.711      6.371
REMARK  4 active torsions:
REMARK  status: ('A' for Active; 'I' for Inactive)
REMARK    1  A    between atoms: C2_2  and  O1_3 
REMARK    2  A    between atoms: O1_3  and  C3_4 
REMARK    3  A    between atoms: N2_10  and  C8_11 
REMARK    4  A    between atoms: C17_21  and  O2_22 
ROOT
HETATM    1  C3  UNL     1      22.093   0.226  52.631  1.00  0.00     0.103 A 
HETATM    2  C4  UNL     1      22.678   1.022  51.797  1.00  0.00     0.069 A 
HETATM    3  C5  UNL     1      24.046   1.492  51.658  1.00  0.00     0.064 A 
HETATM    4  N1  UNL     1      24.617   2.374  50.977  1.00  0.00    -0.262 NA
HETATM    5  C6  UNL     1      26.007   2.615  50.999  1.00  0.00     0.134 C 
HETATM    6  C7  UNL     1      26.830   1.862  51.752  1.00  0.00     0.112 C 
HETATM    7  N2  UNL     1      26.213   0.812  52.487  1.00  0.00    -0.339 N 
HETATM    8  C15 UNL     1      24.856   0.983  52.792  1.00  0.00     0.167 A 
HETATM    9  C16 UNL     1      24.191   0.059  53.700  1.00  0.00     0.044 A 
HETATM   10  C17 UNL     1      22.931  -0.321  53.682  1.00  0.00     0.100 A 
ENDROOT
BRANCH   7  11
HETATM   11  C8  UNL     1      27.102  -0.283  52.741  1.00  0.00     0.064 A 
HETATM   12  C9  UNL     1      26.710  -1.594  52.445  1.00  0.00     0.146 A 
HETATM   13  N3  UNL     1      27.448  -2.692  52.604  1.00  0.00    -0.270 NA
HETATM   14  C10 UNL     1      28.712  -2.589  53.099  1.00  0.00     0.128 A 
HETATM   15  C11 UNL     1      29.165  -1.324  53.414  1.00  0.00    -0.006 A 
HETATM   16  C12 UNL     1      28.382  -0.205  53.239  1.00  0.00     0.004 A 
HETATM   17  C14 UNL     1      30.184  -0.612  53.882  1.00  0.00     0.014 A 
HETATM   18  C13 UNL     1      29.361   0.551  53.699  1.00  0.00     0.015 A 
ENDBRANCH   7  11
BRANCH  10  19
HETATM   19  O2  UNL     1      22.432  -1.205  54.626  1.00  0.00    -0.353 OA
HETATM   20  C18 UNL     1      23.282  -1.591  55.695  1.00  0.00     0.210 C 
ENDBRANCH  10  19
BRANCH   1  21
HETATM   21  O1  UNL     1      20.762  -0.071  52.536  1.00  0.00    -0.349 OA
BRANCH  21  22
HETATM   22  C2  UNL     1      19.811   0.708  51.876  1.00  0.00     0.171 C 
HETATM   23  C1  UNL     1      18.531  -0.052  51.588  1.00  0.00     0.034 C 
ENDBRANCH  21  22
ENDBRANCH   1  21
TORSDOF 4
ENDMDL
MODEL 3
REMARK VINA RESULT:      -7.6      2.850      5.984
REMARK  4 active torsions:
REMARK  status: ('A' for Active; 'I' for Inactive)
REMARK    1  A    between atoms: C2_2  and  O1_3 
REMARK    2  A    between atoms: O1_3  and  C3_4 
REMARK    3  A    between atoms: N2_10  and  C8_11 
REMARK    4  A    between atoms: C17_21  and  O2_22 
ROOT
HETATM    1  C3  UNL     1      25.646   3.337  50.823  1.00  0.00     0.103 A 
HETATM    2  C4  UNL     1      26.363   2.269  50.956  1.00  0.00     0.069 A 
HETATM    3  C5  UNL     1      26.293   1.126  51.851  1.00  0.00     0.064 A 
HETATM    4  N1  UNL     1      27.046   0.163  52.120  1.00  0.00    -0.262 NA
HETATM    5  C6  UNL     1      26.721  -0.865  53.030  1.00  0.00     0.134 C 
HETATM    6  C7  UNL     1      25.528  -0.888  53.653  1.00  0.00     0.112 C 
HETATM    7  N2  UNL     1      24.630   0.161  53.316  1.00  0.00    -0.339 N 
HETATM    8  C15 UNL     1      25.209   1.344  52.840  1.00  0.00     0.167 A 
HETATM    9  C16 UNL     1      24.390   2.533  52.653  1.00  0.00     0.044 A 
HETATM   10  C17 UNL     1      24.542   3.483  51.754  1.00  0.00     0.100 A 
ENDROOT
BRANCH   7  11
HETATM   11  C8  UNL     1      23.256  -0.213  53.476  1.00  0.00     0.064 A 
HETATM   12  C9  UNL     1      22.837  -0.891  54.627  1.00  0.00     0.146 A 
HETATM   13  N3  UNL     1      21.591  -1.268  54.911  1.00  0.00    -0.270 NA
HETATM   14  C10 UNL     1      20.587  -0.992  54.033  1.00  0.00     0.128 A 
HETATM   15  C11 UNL     1      20.928  -0.325  52.875  1.00  0.00    -0.006 A 
HETATM   16  C12 UNL     1      22.225   0.053  52.605  1.00  0.00     0.004 A 
HETATM   17  C14 UNL     1      20.478   0.189  51.735  1.00  0.00     0.014 A 
HETATM   18  C13 UNL     1      21.833   0.580  51.460  1.00  0.00     0.015 A 
ENDBRANCH   7  11
BRANCH  10  19
HETATM   19  O2  UNL     1      23.684   4.570  51.703  1.00  0.00    -0.353 OA
HETATM   20  C18 UNL     1      22.386   4.424  52.256  1.00  0.00     0.210 C 
ENDBRANCH  10  19
BRANCH   1  21
HETATM   21  O1  UNL     1      25.921   4.280  49.870  1.00  0.00    -0.349 OA
BRANCH  21  22
HETATM   22  C2  UNL     1      27.061   4.298  49.066  1.00  0.00     0.171 C 
HETATM   23  C1  UNL     1      27.393   5.687  48.557  1.00  0.00     0.034 C 
ENDBRANCH  21  22
ENDBRANCH   1  21
TORSDOF 4
ENDMDL
MODEL 4
REMARK VINA RESULT:      -7.5      2.254      5.236
REMARK  4 active torsions:
REMARK  status: ('A' for Active; 'I' for Inactive)
REMARK    1  A    between atoms: C2_2  and  O1_3 
REMARK    2  A    between atoms: O1_3  and  C3_4 
REMARK    3  A    between atoms: N2_10  and  C8_11 
REMARK    4  A    between atoms: C17_21  and  O2_22 
ROOT
HETATM    1  C3  UNL     1      26.663   1.017  54.062  1.00  0.00     0.103 A 
HETATM    2  C4  UNL     1      26.068   2.150  53.877  1.00  0.00     0.069 A 
HETATM    3  C5  UNL     1      24.796   2.523  53.282  1.00  0.00     0.064 A 
HETATM    4  N1  UNL     1      24.258   3.600  52.940  1.00  0.00    -0.262 NA
HETATM    5  C6  UNL     1      22.958   3.700  52.400  1.00  0.00     0.134 C 
HETATM    6  C7  UNL     1      22.184   2.609  52.252  1.00  0.00     0.112 C 
HETATM    7  N2  UNL     1      22.748   1.381  52.692  1.00  0.00    -0.339 N 
HETATM    8  C15 UNL     1      24.147   1.314  52.715  1.00  0.00     0.167 A 
HETATM    9  C16 UNL     1      24.813   0.044  52.966  1.00  0.00     0.044 A 
HETATM   10  C17 UNL     1      25.965  -0.157  53.570  1.00  0.00     0.100 A 
ENDROOT
BRANCH   7  11
HETATM   11  C8  UNL     1      21.756   0.428  53.096  1.00  0.00     0.064 A 
HETATM   12  C9  UNL     1      21.985  -0.407  54.196  1.00  0.00     0.146 A 
HETATM   13  N3  UNL     1      21.138  -1.310  54.689  1.00  0.00    -0.270 NA
HETATM   14  C10 UNL     1      19.918  -1.478  54.109  1.00  0.00     0.128 A 
HETATM   15  C11 UNL     1      19.624  -0.687  53.018  1.00  0.00    -0.006 A 
HETATM   16  C12 UNL     1      20.518   0.239  52.527  1.00  0.00     0.004 A 
HETATM   17  C14 UNL     1      18.715  -0.385  52.097  1.00  0.00     0.014 A 
HETATM   18  C13 UNL     1      19.652   0.578  51.590  1.00  0.00     0.015 A 
ENDBRANCH   7  11
BRANCH  10  19
HETATM   19  O2  UNL     1      26.483  -1.433  53.726  1.00  0.00    -0.353 OA
HETATM   20  C18 UNL     1      26.942  -2.114  52.570  1.00  0.00     0.210 C 
ENDBRANCH  10  19
BRANCH   1  21
HETATM   21  O1  UNL     1      27.883   0.931  54.675  1.00  0.00    -0.349 OA
BRANCH  21  22
HETATM   22  C2  UNL     1      29.110   1.174  54.056  1.00  0.00     0.171 C 
HETATM   23  C1  UNL     1      29.814  -0.101  53.635  1.00  0.00     0.034 C 
ENDBRANCH  21  22
ENDBRANCH   1  21
TORSDOF 4
ENDMDL
MODEL 5
REMARK VINA RESULT:      -7.5      2.690      5.753
REMARK  4 active torsions:
REMARK  status: ('A' for Active; 'I' for Inactive)
REMARK    1  A    between atoms: C2_2  and  O1_3 
REMARK    2  A    between atoms: O1_3  and  C3_4 
REMARK    3  A    between atoms: N2_10  and  C8_11 
REMARK    4  A    between atoms: C17_21  and  O2_22 
ROOT
HETATM    1  C3  UNL     1      21.933   0.814  51.724  1.00  0.00     0.103 A 
HETATM    2  C4  UNL     1      22.501   1.431  50.739  1.00  0.00     0.069 A 
HETATM    3  C5  UNL     1      23.751   2.161  50.607  1.00  0.00     0.064 A 
HETATM    4  N1  UNL     1      24.258   2.900  49.734  1.00  0.00    -0.262 NA
HETATM    5  C6  UNL     1      25.543   3.476  49.833  1.00  0.00     0.134 C 
HETATM    6  C7  UNL     1      26.335   3.224  50.891  1.00  0.00     0.112 C 
HETATM    7  N2  UNL     1      25.806   2.336  51.867  1.00  0.00    -0.339 N 
HETATM    8  C15 UNL     1      24.410   2.248  51.933  1.00  0.00     0.167 A 
HETATM    9  C16 UNL     1      23.775   1.517  53.021  1.00  0.00     0.044 A 
HETATM   10  C17 UNL     1      22.643   0.848  52.990  1.00  0.00     0.100 A 
ENDROOT
BRANCH   7  11
HETATM   11  C8  UNL     1      26.826   1.632  52.587  1.00  0.00     0.064 A 
HETATM   12  C9  UNL     1      27.723   2.330  53.406  1.00  0.00     0.146 A 
HETATM   13  N3  UNL     1      28.693   1.797  54.147  1.00  0.00    -0.270 NA
HETATM   14  C10 UNL     1      28.875   0.447  54.149  1.00  0.00     0.128 A 
HETATM   15  C11 UNL     1      28.026  -0.305  53.363  1.00  0.00    -0.006 A 
HETATM   16  C12 UNL     1      27.031   0.273  52.605  1.00  0.00     0.004 A 
HETATM   17  C14 UNL     1      27.703  -1.530  52.962  1.00  0.00     0.014 A 
HETATM   18  C13 UNL     1      26.668  -0.921  52.173  1.00  0.00     0.015 A 
ENDBRANCH   7  11
BRANCH  10  19
HETATM   19  O2  UNL     1      22.154   0.206  54.117  1.00  0.00    -0.353 OA
HETATM   20  C18 UNL     1      22.560  -1.133  54.353  1.00  0.00     0.210 C 
ENDBRANCH  10  19
BRANCH   1  21
HETATM   21  O1  UNL     1      20.730   0.179  51.583  1.00  0.00    -0.349 OA
BRANCH  21  22
HETATM   22  C2  UNL     1      19.505   0.672  52.035  1.00  0.00     0.171 C 
HETATM   23  C1  UNL     1      18.640  -0.402  52.666  1.00  0.00     0.034 C 
ENDBRANCH  21  22
ENDBRANCH   1  21
TORSDOF 4
ENDMDL
MODEL 6
REMARK VINA RESULT:      -7.3      1.752      4.014
REMARK  4 active torsions:
REMARK  status: ('A' for Active; 'I' for Inactive)
REMARK    1  A    between atoms: C2_2  and  O1_3 
REMARK    2  A    between atoms: O1_3  and  C3_4 
REMARK    3  A    between atoms: N2_10  and  C8_11 
REMARK    4  A    between atoms: C17_21  and  O2_22 
ROOT
HETATM    1  C3  UNL     1      27.151   1.128  53.616  1.00  0.00     0.103 A 
HETATM    2  C4  UNL     1      27.354   2.000  52.684  1.00  0.00     0.069 A 
HETATM    3  C5  UNL     1      26.551   2.476  51.570  1.00  0.00     0.064 A 
HETATM    4  N1  UNL     1      26.764   3.188  50.563  1.00  0.00    -0.262 NA
HETATM    5  C6  UNL     1      25.775   3.543  49.621  1.00  0.00     0.134 C 
HETATM    6  C7  UNL     1      24.497   3.152  49.777  1.00  0.00     0.112 C 
HETATM    7  N2  UNL     1      24.216   2.395  50.947  1.00  0.00    -0.339 N 
HETATM    8  C15 UNL     1      25.293   1.691  51.503  1.00  0.00     0.167 A 
HETATM    9  C16 UNL     1      25.065   0.741  52.582  1.00  0.00     0.044 A 
HETATM   10  C17 UNL     1      25.876   0.435  53.573  1.00  0.00     0.100 A 
ENDROOT
BRANCH   7  11
HETATM   11  C8  UNL     1      22.860   2.536  51.388  1.00  0.00     0.064 A 
HETATM   12  C9  UNL     1      22.404   3.761  51.890  1.00  0.00     0.146 A 
HETATM   13  N3  UNL     1      21.167   4.033  52.303  1.00  0.00    -0.270 NA
HETATM   14  C10 UNL     1      20.212   3.063  52.254  1.00  0.00     0.128 A 
HETATM   15  C11 UNL     1      20.592   1.828  51.769  1.00  0.00    -0.006 A 
HETATM   16  C12 UNL     1      21.878   1.574  51.348  1.00  0.00     0.004 A 
HETATM   17  C14 UNL     1      20.192   0.592  51.490  1.00  0.00     0.014 A 
HETATM   18  C13 UNL     1      21.536   0.334  51.054  1.00  0.00     0.015 A 
ENDBRANCH   7  11
BRANCH  10  19
HETATM   19  O2  UNL     1      25.524  -0.506  54.528  1.00  0.00    -0.353 OA
HETATM   20  C18 UNL     1      24.155  -0.856  54.649  1.00  0.00     0.210 C 
ENDBRANCH  10  19
BRANCH   1  21
HETATM   21  O1  UNL     1      28.086   0.865  54.579  1.00  0.00    -0.349 OA
BRANCH  21  22
HETATM   22  C2  UNL     1      29.401   0.469  54.333  1.00  0.00     0.171 C 
HETATM   23  C1  UNL     1      29.487  -0.895  53.676  1.00  0.00     0.034 C 
ENDBRANCH  21  22
ENDBRANCH   1  21
TORSDOF 4
ENDMDL
MODEL 7
REMARK VINA RESULT:      -7.2      1.925      2.743
REMARK  4 active torsions:
REMARK  status: ('A' for Active; 'I' for Inactive)
REMARK    1  A    between atoms: C2_2  and  O1_3 
REMARK    2  A    between atoms: O1_3  and  C3_4 
REMARK    3  A    between atoms: N2_10  and  C8_11 
REMARK    4  A    between atoms: C17_21  and  O2_22 
ROOT
HETATM    1  C3  UNL     1      26.343  -0.240  53.715  1.00  0.00     0.103 A 
HETATM    2  C4  UNL     1      25.185  -0.700  54.059  1.00  0.00     0.069 A 
HETATM    3  C5  UNL     1      23.822  -0.275  53.788  1.00  0.00     0.064 A 
HETATM    4  N1  UNL     1      22.692  -0.587  54.225  1.00  0.00    -0.262 NA
HETATM    5  C6  UNL     1      21.481  -0.034  53.757  1.00  0.00     0.134 C 
HETATM    6  C7  UNL     1      21.471   0.864  52.754  1.00  0.00     0.112 C 
HETATM    7  N2  UNL     1      22.738   1.188  52.197  1.00  0.00    -0.339 N 
HETATM    8  C15 UNL     1      23.848   1.001  53.031  1.00  0.00     0.167 A 
HETATM    9  C16 UNL     1      25.159   1.484  52.621  1.00  0.00     0.044 A 
HETATM   10  C17 UNL     1      26.335   0.965  52.905  1.00  0.00     0.100 A 
ENDROOT
BRANCH   7  11
HETATM   11  C8  UNL     1      22.652   1.606  50.829  1.00  0.00     0.064 A 
HETATM   12  C9  UNL     1      21.855   0.896  49.922  1.00  0.00     0.146 A 
HETATM   13  N3  UNL     1      21.667   1.194  48.637  1.00  0.00    -0.270 NA
HETATM   14  C10 UNL     1      22.282   2.284  48.101  1.00  0.00     0.128 A 
HETATM   15  C11 UNL     1      23.085   3.031  48.938  1.00  0.00    -0.006 A 
HETATM   16  C12 UNL     1      23.263   2.701  50.264  1.00  0.00     0.004 A 
HETATM   17  C14 UNL     1      23.879   4.092  49.034  1.00  0.00     0.014 A 
HETATM   18  C13 UNL     1      24.061   3.741  50.415  1.00  0.00     0.015 A 
ENDBRANCH   7  11
BRANCH  10  19
HETATM   19  O2  UNL     1      27.508   1.546  52.450  1.00  0.00    -0.353 OA
HETATM   20  C18 UNL     1      28.229   2.382  53.341  1.00  0.00     0.210 C 
ENDBRANCH  10  19
BRANCH   1  21
HETATM   21  O1  UNL     1      27.508  -0.846  54.101  1.00  0.00    -0.349 OA
BRANCH  21  22
HETATM   22  C2  UNL     1      28.410  -1.471  53.240  1.00  0.00     0.171 C 
HETATM   23  C1  UNL     1      29.834  -0.988  53.435  1.00  0.00     0.034 C 
ENDBRANCH  21  22
ENDBRANCH   1  21
TORSDOF 4
ENDMDL
MODEL 8
REMARK VINA RESULT:      -7.1      2.020      3.313
REMARK  4 active torsions:
REMARK  status: ('A' for Active; 'I' for Inactive)
REMARK    1  A    between atoms: C2_2  and  O1_3 
REMARK    2  A    between atoms: O1_3  and  C3_4 
REMARK    3  A    between atoms: N2_10  and  C8_11 
REMARK    4  A    between atoms: C17_21  and  O2_22 
ROOT
HETATM    1  C3  UNL     1      26.207   0.044  52.654  1.00  0.00     0.103 A 
HETATM    2  C4  UNL     1      25.255  -0.661  53.172  1.00  0.00     0.069 A 
HETATM    3  C5  UNL     1      23.869  -0.376  53.503  1.00  0.00     0.064 A 
HETATM    4  N1  UNL     1      22.971  -0.966  54.144  1.00  0.00    -0.262 NA
HETATM    5  C6  UNL     1      21.655  -0.479  54.295  1.00  0.00     0.134 C 
HETATM    6  C7  UNL     1      21.270   0.669  53.707  1.00  0.00     0.112 C 
HETATM    7  N2  UNL     1      22.255   1.327  52.921  1.00  0.00    -0.339 N 
HETATM    8  C15 UNL     1      23.590   1.059  53.249  1.00  0.00     0.167 A 
HETATM    9  C16 UNL     1      24.661   1.828  52.631  1.00  0.00     0.044 A 
HETATM   10  C17 UNL     1      25.879   1.423  52.340  1.00  0.00     0.100 A 
ENDROOT
BRANCH   7  11
HETATM   11  C8  UNL     1      21.687   2.122  51.872  1.00  0.00     0.064 A 
HETATM   12  C9  UNL     1      21.346   3.460  52.106  1.00  0.00     0.146 A 
HETATM   13  N3  UNL     1      20.842   4.312  51.214  1.00  0.00    -0.270 NA
HETATM   14  C10 UNL     1      20.615   3.896  49.937  1.00  0.00     0.128 A 
HETATM   15  C11 UNL     1      20.929   2.587  49.636  1.00  0.00    -0.006 A 
HETATM   16  C12 UNL     1      21.449   1.726  50.577  1.00  0.00     0.004 A 
HETATM   17  C14 UNL     1      20.949   1.657  48.687  1.00  0.00     0.014 A 
HETATM   18  C13 UNL     1      21.491   0.764  49.674  1.00  0.00     0.015 A 
ENDBRANCH   7  11
BRANCH  10  19
HETATM   19  O2  UNL     1      26.803   2.278  51.759  1.00  0.00    -0.353 OA
HETATM   20  C18 UNL     1      26.405   3.013  50.612  1.00  0.00     0.210 C 
ENDBRANCH  10  19
BRANCH   1  21
HETATM   21  O1  UNL     1      27.452  -0.475  52.427  1.00  0.00    -0.349 OA
BRANCH  21  22
HETATM   22  C2  UNL     1      28.374  -0.810  53.419  1.00  0.00     0.171 C 
HETATM   23  C1  UNL     1      29.001   0.409  54.068  1.00  0.00     0.034 C 
ENDBRANCH  21  22
ENDBRANCH   1  21
TORSDOF 4
ENDMDL
MODEL 9
REMARK VINA RESULT:      -7.0      2.749      6.037
REMARK  4 active torsions:
REMARK  status: ('A' for Active; 'I' for Inactive)
REMARK    1  A    between atoms: C2_2  and  O1_3 
REMARK    2  A    between atoms: O1_3  and  C3_4 
REMARK    3  A    between atoms: N2_10  and  C8_11 
REMARK    4  A    between atoms: C17_21  and  O2_22 
ROOT
HETATM    1  C3  UNL     1      22.633   3.203  51.173  1.00  0.00     0.103 A 
HETATM    2  C4  UNL     1      22.051   2.548  52.125  1.00  0.00     0.069 A 
HETATM    3  C5  UNL     1      22.407   1.358  52.878  1.00  0.00     0.064 A 
HETATM    4  N1  UNL     1      21.812   0.606  53.683  1.00  0.00    -0.262 NA
HETATM    5  C6  UNL     1      22.410  -0.500  54.324  1.00  0.00     0.134 C 
HETATM    6  C7  UNL     1      23.708  -0.796  54.128  1.00  0.00     0.112 C 
HETATM    7  N2  UNL     1      24.423   0.080  53.267  1.00  0.00    -0.339 N 
HETATM    8  C15 UNL     1      23.659   0.785  52.326  1.00  0.00     0.167 A 
HETATM    9  C16 UNL     1      24.319   1.555  51.281  1.00  0.00     0.044 A 
HETATM   10  C17 UNL     1      23.898   2.663  50.710  1.00  0.00     0.100 A 
ENDROOT
BRANCH   7  11
HETATM   11  C8  UNL     1      25.824   0.126  53.562  1.00  0.00     0.064 A 
HETATM   12  C9  UNL     1      26.355   1.185  54.310  1.00  0.00     0.146 A 
HETATM   13  N3  UNL     1      27.627   1.331  54.677  1.00  0.00    -0.270 NA
HETATM   14  C10 UNL     1      28.544   0.391  54.318  1.00  0.00     0.128 A 
HETATM   15  C11 UNL     1      28.091  -0.682  53.578  1.00  0.00    -0.006 A 
HETATM   16  C12 UNL     1      26.770  -0.809  53.212  1.00  0.00     0.004 A 
HETATM   17  C14 UNL     1      28.430  -1.817  52.976  1.00  0.00     0.014 A 
HETATM   18  C13 UNL     1      27.050  -1.942  52.596  1.00  0.00     0.015 A 
ENDBRANCH   7  11
BRANCH  10  19
HETATM   19  O2  UNL     1      24.633   3.283  49.712  1.00  0.00    -0.353 OA
HETATM   20  C18 UNL     1      25.944   3.726  50.025  1.00  0.00     0.210 C 
ENDBRANCH  10  19
BRANCH   1  21
HETATM   21  O1  UNL     1      22.081   4.330  50.628  1.00  0.00    -0.349 OA
BRANCH  21  22
HETATM   22  C2  UNL     1      20.865   4.895  51.014  1.00  0.00     0.171 C 
HETATM   23  C1  UNL     1      20.447   6.046  50.120  1.00  0.00     0.034 C 
ENDBRANCH  21  22
ENDBRANCH   1  21
TORSDOF 4
ENDMDL
