MODEL 1
REMARK VINA RESULT:      -7.5      0.000      0.000
REMARK  12 active torsions:
REMARK  status: ('A' for Active; 'I' for Inactive)
REMARK    1  A    between atoms: N1_1  and  C1_2 
REMARK    2  A    between atoms: C1_2  and  C2_3 
REMARK    3  A    between atoms: C2_3  and  C3_4 
REMARK    4  A    between atoms: C3_4  and  N2_5 
REMARK    5  A    between atoms: C8_10  and  C9_11 
REMARK    6  A    between atoms: C10_12  and  C11_13 
REMARK    7  A    between atoms: C11_13  and  S1_14 
REMARK    8  A    between atoms: S1_14  and  C12_15 
REMARK    9  A    between atoms: C15_19  and  N4_20 
REMARK   10  A    between atoms: N4_20  and  C16_21 
REMARK   11  A    between atoms: C20_25  and  O1_26 
REMARK   12  A    between atoms: O1_26  and  C21_27 
ROOT
HETATM    1  C12 UNL     1      24.804   4.612  49.541  1.00  0.00     0.125 A 
HETATM    2  C13 UNL     1      23.726   4.794  48.706  1.00  0.00     0.060 A 
HETATM    3  C14 UNL     1      22.535   4.323  49.199  1.00  0.00     0.139 A 
HETATM    4  N3  UNL     1      22.528   3.753  50.395  1.00  0.00    -0.075 NA
HETATM    5  C15 UNL     1      23.578   3.583  51.192  1.00  0.00     0.727 A 
HETATM    6  N5  UNL     1      24.757   4.030  50.745  1.00  0.00    -0.055 NA
ENDROOT
BRANCH   1   7
HETATM    7  S1  UNL     1      26.351   5.184  48.986  1.00  0.00    -0.027 SA
BRANCH   7   8
HETATM    8  C11 UNL     1      27.643   5.663  48.539  1.00  0.00    -0.077 C 
BRANCH   8   9
HETATM    9  C10 UNL     1      28.874   6.102  48.108  1.00  0.00     0.064 C 
HETATM   10  C9  UNL     1      29.968   5.484  48.533  1.00  0.00     0.011 C 
BRANCH  10  11
HETATM   11  C8  UNL     1      31.242   5.946  48.080  1.00  0.00     0.026 C 
HETATM   12  C7  UNL     1      32.077   5.180  47.359  1.00  0.00     0.014 A 
HETATM   13  N2  UNL     1      33.365   5.554  46.863  1.00  0.00    -0.360 N 
HETATM   14  C6  UNL     1      31.773   3.788  46.950  1.00  0.00     0.085 A 
HETATM   15  C4  UNL     1      33.822   4.415  46.172  1.00  0.00     0.087 A 
HETATM   16  C5  UNL     1      32.987   3.394  46.178  1.00  0.00    -0.004 A 
BRANCH  13  17
HETATM   17  C3  UNL     1      33.990   6.835  47.057  1.00  0.00     0.130 C 
BRANCH  17  18
HETATM   18  C2  UNL     1      34.552   7.099  48.405  1.00  0.00     0.050 C 
BRANCH  18  19
HETATM   19  C1  UNL     1      35.712   6.214  48.728  1.00  0.00     0.268 C 
BRANCH  19  20
HETATM   20  N1  UNL     1      35.339   5.133  49.634  1.00  0.00     0.078 N 
HETATM   21  H1  UNL     1      35.847   4.243  49.406  1.00  0.00     0.312 HD
HETATM   22  H2  UNL     1      35.459   5.418  50.616  1.00  0.00     0.312 HD
ENDBRANCH  19  20
ENDBRANCH  18  19
ENDBRANCH  17  18
ENDBRANCH  13  17
ENDBRANCH  10  11
ENDBRANCH   8   9
ENDBRANCH   7   8
ENDBRANCH   1   7
BRANCH   5  23
HETATM   23  N4  UNL     1      23.497   2.960  52.469  1.00  0.00    -0.188 N 
HETATM   24  H18 UNL     1      22.738   3.336  53.117  1.00  0.00     0.184 HD
BRANCH  23  25
HETATM   25  C16 UNL     1      24.263   1.919  53.014  1.00  0.00     0.052 A 
HETATM   26  C17 UNL     1      23.796   0.613  53.037  1.00  0.00     0.030 A 
HETATM   27  C18 UNL     1      24.517  -0.426  53.560  1.00  0.00     0.005 A 
HETATM   28  C19 UNL     1      25.758  -0.232  54.100  1.00  0.00     0.037 A 
HETATM   29  C20 UNL     1      26.276   1.035  54.108  1.00  0.00     0.074 A 
HETATM   30  C22 UNL     1      25.513   2.047  53.570  1.00  0.00     0.066 A 
BRANCH  29  31
HETATM   31  O1  UNL     1      27.541   1.263  54.652  1.00  0.00    -0.322 OA
BRANCH  31  32
HETATM   32  C21 UNL     1      28.440   0.164  54.834  1.00  0.00     0.398 C 
HETATM   33  F1  UNL     1      29.633   0.471  54.192  1.00  0.00    -0.227 F 
ENDBRANCH  31  32
ENDBRANCH  29  31
ENDBRANCH  23  25
ENDBRANCH   5  23
TORSDOF 12
ENDMDL
MODEL 2
REMARK VINA RESULT:      -7.5      2.386      3.325
REMARK  12 active torsions:
REMARK  status: ('A' for Active; 'I' for Inactive)
REMARK    1  A    between atoms: N1_1  and  C1_2 
REMARK    2  A    between atoms: C1_2  and  C2_3 
REMARK    3  A    between atoms: C2_3  and  C3_4 
REMARK    4  A    between atoms: C3_4  and  N2_5 
REMARK    5  A    between atoms: C8_10  and  C9_11 
REMARK    6  A    between atoms: C10_12  and  C11_13 
REMARK    7  A    between atoms: C11_13  and  S1_14 
REMARK    8  A    between atoms: S1_14  and  C12_15 
REMARK    9  A    between atoms: C15_19  and  N4_20 
REMARK   10  A    between atoms: N4_20  and  C16_21 
REMARK   11  A    between atoms: C20_25  and  O1_26 
REMARK   12  A    between atoms: O1_26  and  C21_27 
ROOT
HETATM    1  C12 UNL     1      24.121   2.782  50.659  1.00  0.00     0.125 A 
HETATM    2  C13 UNL     1      22.813   2.709  50.240  1.00  0.00     0.060 A 
HETATM    3  C14 UNL     1      22.095   1.675  50.787  1.00  0.00     0.139 A 
HETATM    4  N3  UNL     1      22.704   0.865  51.640  1.00  0.00    -0.075 NA
HETATM    5  C15 UNL     1      23.970   0.946  52.036  1.00  0.00     0.727 A 
HETATM    6  N5  UNL     1      24.702   1.943  51.524  1.00  0.00    -0.055 NA
ENDROOT
BRANCH   1   7
HETATM    7  S1  UNL     1      25.098   4.068  50.011  1.00  0.00    -0.027 SA
BRANCH   7   8
HETATM    8  C11 UNL     1      25.917   5.129  49.461  1.00  0.00    -0.077 C 
BRANCH   8   9
HETATM    9  C10 UNL     1      26.684   6.137  48.922  1.00  0.00     0.064 C 
HETATM   10  C9  UNL     1      27.834   5.834  48.336  1.00  0.00     0.011 C 
BRANCH  10  11
HETATM   11  C8  UNL     1      28.624   6.886  47.779  1.00  0.00     0.026 C 
HETATM   12  C7  UNL     1      29.966   6.840  47.734  1.00  0.00     0.014 A 
HETATM   13  N2  UNL     1      30.836   7.840  47.199  1.00  0.00    -0.360 N 
HETATM   14  C6  UNL     1      30.769   5.702  48.242  1.00  0.00     0.085 A 
HETATM   15  C4  UNL     1      32.131   7.315  47.379  1.00  0.00     0.087 A 
HETATM   16  C5  UNL     1      32.170   6.128  47.953  1.00  0.00    -0.004 A 
BRANCH  13  17
HETATM   17  C3  UNL     1      30.412   9.082  46.610  1.00  0.00     0.130 C 
BRANCH  17  18
HETATM   18  C2  UNL     1      29.854  10.096  47.537  1.00  0.00     0.050 C 
BRANCH  18  19
HETATM   19  C1  UNL     1      30.766  10.393  48.683  1.00  0.00     0.268 C 
BRANCH  19  20
HETATM   20  N1  UNL     1      30.293   9.795  49.927  1.00  0.00     0.078 N 
HETATM   21  H1  UNL     1      31.086   9.582  50.581  1.00  0.00     0.312 HD
HETATM   22  H2  UNL     1      29.566  10.380  50.363  1.00  0.00     0.312 HD
ENDBRANCH  19  20
ENDBRANCH  18  19
ENDBRANCH  17  18
ENDBRANCH  13  17
ENDBRANCH  10  11
ENDBRANCH   8   9
ENDBRANCH   7   8
ENDBRANCH   1   7
BRANCH   5  23
HETATM   23  N4  UNL     1      24.560   0.038  52.958  1.00  0.00    -0.188 N 
HETATM   24  H18 UNL     1      23.875  -0.538  53.539  1.00  0.00     0.184 HD
BRANCH  23  25
HETATM   25  C16 UNL     1      25.912  -0.224  53.227  1.00  0.00     0.052 A 
HETATM   26  C17 UNL     1      26.567  -1.303  52.654  1.00  0.00     0.030 A 
HETATM   27  C18 UNL     1      27.884  -1.588  52.893  1.00  0.00     0.005 A 
HETATM   28  C19 UNL     1      28.641  -0.810  53.725  1.00  0.00     0.037 A 
HETATM   29  C20 UNL     1      28.053   0.272  54.324  1.00  0.00     0.074 A 
HETATM   30  C22 UNL     1      26.725   0.517  54.051  1.00  0.00     0.066 A 
BRANCH  29  31
HETATM   31  O1  UNL     1      28.800   1.084  55.178  1.00  0.00    -0.322 OA
BRANCH  31  32
HETATM   32  C21 UNL     1      29.667   2.080  54.625  1.00  0.00     0.398 C 
HETATM   33  F1  UNL     1      28.920   2.868  53.757  1.00  0.00    -0.227 F 
ENDBRANCH  31  32
ENDBRANCH  29  31
ENDBRANCH  23  25
ENDBRANCH   5  23
TORSDOF 12
ENDMDL
MODEL 3
REMARK VINA RESULT:      -7.4      4.034     11.136
REMARK  12 active torsions:
REMARK  status: ('A' for Active; 'I' for Inactive)
REMARK    1  A    between atoms: N1_1  and  C1_2 
REMARK    2  A    between atoms: C1_2  and  C2_3 
REMARK    3  A    between atoms: C2_3  and  C3_4 
REMARK    4  A    between atoms: C3_4  and  N2_5 
REMARK    5  A    between atoms: C8_10  and  C9_11 
REMARK    6  A    between atoms: C10_12  and  C11_13 
REMARK    7  A    between atoms: C11_13  and  S1_14 
REMARK    8  A    between atoms: S1_14  and  C12_15 
REMARK    9  A    between atoms: C15_19  and  N4_20 
REMARK   10  A    between atoms: N4_20  and  C16_21 
REMARK   11  A    between atoms: C20_25  and  O1_26 
REMARK   12  A    between atoms: O1_26  and  C21_27 
ROOT
HETATM    1  C12 UNL     1      28.882   5.934  48.133  1.00  0.00     0.125 A 
HETATM    2  C13 UNL     1      28.663   7.115  47.463  1.00  0.00     0.060 A 
HETATM    3  C14 UNL     1      29.802   7.747  47.031  1.00  0.00     0.139 A 
HETATM    4  N3  UNL     1      30.973   7.183  47.290  1.00  0.00    -0.075 NA
HETATM    5  C15 UNL     1      31.171   6.041  47.940  1.00  0.00     0.727 A 
HETATM    6  N5  UNL     1      30.083   5.396  48.375  1.00  0.00    -0.055 NA
ENDROOT
BRANCH   1   7
HETATM    7  S1  UNL     1      27.486   5.071  48.712  1.00  0.00    -0.027 SA
BRANCH   7   8
HETATM    8  C11 UNL     1      26.324   4.361  49.207  1.00  0.00    -0.077 C 
BRANCH   8   9
HETATM    9  C10 UNL     1      25.227   3.687  49.694  1.00  0.00     0.064 C 
HETATM   10  C9  UNL     1      25.379   2.857  50.717  1.00  0.00     0.011 C 
BRANCH  10  11
HETATM   11  C8  UNL     1      24.235   2.161  51.217  1.00  0.00     0.026 C 
HETATM   12  C7  UNL     1      24.328   1.142  52.086  1.00  0.00     0.014 A 
HETATM   13  N2  UNL     1      23.244   0.390  52.639  1.00  0.00    -0.360 N 
HETATM   14  C6  UNL     1      25.612   0.635  52.628  1.00  0.00     0.085 A 
HETATM   15  C4  UNL     1      23.862  -0.545  53.492  1.00  0.00     0.087 A 
HETATM   16  C5  UNL     1      25.179  -0.466  53.536  1.00  0.00    -0.004 A 
BRANCH  13  17
HETATM   17  C3  UNL     1      21.852   0.604  52.350  1.00  0.00     0.130 C 
BRANCH  17  18
HETATM   18  C2  UNL     1      20.937   0.671  53.516  1.00  0.00     0.050 C 
BRANCH  18  19
HETATM   19  C1  UNL     1      19.991  -0.484  53.573  1.00  0.00     0.268 C 
BRANCH  19  20
HETATM   20  N1  UNL     1      20.481  -1.550  54.442  1.00  0.00     0.078 N 
HETATM   21  H1  UNL     1      19.872  -2.403  54.389  1.00  0.00     0.312 HD
HETATM   22  H2  UNL     1      21.471  -1.755  54.249  1.00  0.00     0.312 HD
ENDBRANCH  19  20
ENDBRANCH  18  19
ENDBRANCH  17  18
ENDBRANCH  13  17
ENDBRANCH  10  11
ENDBRANCH   8   9
ENDBRANCH   7   8
ENDBRANCH   1   7
BRANCH   5  23
HETATM   23  N4  UNL     1      32.462   5.493  48.182  1.00  0.00    -0.188 N 
HETATM   24  H18 UNL     1      32.820   5.584  49.182  1.00  0.00     0.184 HD
BRANCH  23  25
HETATM   25  C16 UNL     1      33.345   4.846  47.304  1.00  0.00     0.052 A 
HETATM   26  C17 UNL     1      34.177   3.826  47.739  1.00  0.00     0.030 A 
HETATM   27  C18 UNL     1      35.050   3.173  46.911  1.00  0.00     0.005 A 
HETATM   28  C19 UNL     1      35.153   3.497  45.586  1.00  0.00     0.037 A 
HETATM   29  C20 UNL     1      34.358   4.497  45.095  1.00  0.00     0.074 A 
HETATM   30  C22 UNL     1      33.496   5.123  45.967  1.00  0.00     0.066 A 
BRANCH  29  31
HETATM   31  O1  UNL     1      34.441   4.849  43.747  1.00  0.00    -0.322 OA
BRANCH  31  32
HETATM   32  C21 UNL     1      33.254   5.226  43.041  1.00  0.00     0.398 C 
HETATM   33  F1  UNL     1      32.921   4.193  42.174  1.00  0.00    -0.227 F 
ENDBRANCH  31  32
ENDBRANCH  29  31
ENDBRANCH  23  25
ENDBRANCH   5  23
TORSDOF 12
ENDMDL
MODEL 4
REMARK VINA RESULT:      -7.3      2.134      3.167
REMARK  12 active torsions:
REMARK  status: ('A' for Active; 'I' for Inactive)
REMARK    1  A    between atoms: N1_1  and  C1_2 
REMARK    2  A    between atoms: C1_2  and  C2_3 
REMARK    3  A    between atoms: C2_3  and  C3_4 
REMARK    4  A    between atoms: C3_4  and  N2_5 
REMARK    5  A    between atoms: C8_10  and  C9_11 
REMARK    6  A    between atoms: C10_12  and  C11_13 
REMARK    7  A    between atoms: C11_13  and  S1_14 
REMARK    8  A    between atoms: S1_14  and  C12_15 
REMARK    9  A    between atoms: C15_19  and  N4_20 
REMARK   10  A    between atoms: N4_20  and  C16_21 
REMARK   11  A    between atoms: C20_25  and  O1_26 
REMARK   12  A    between atoms: O1_26  and  C21_27 
ROOT
HETATM    1  C12 UNL     1      23.575   3.478  50.402  1.00  0.00     0.125 A 
HETATM    2  C13 UNL     1      22.575   4.424  50.420  1.00  0.00     0.060 A 
HETATM    3  C14 UNL     1      21.377   3.978  50.919  1.00  0.00     0.139 A 
HETATM    4  N3  UNL     1      21.291   2.720  51.325  1.00  0.00    -0.075 NA
HETATM    5  C15 UNL     1      22.265   1.816  51.302  1.00  0.00     0.727 A 
HETATM    6  N5  UNL     1      23.449   2.214  50.822  1.00  0.00    -0.055 NA
ENDROOT
BRANCH   1   7
HETATM    7  S1  UNL     1      25.126   3.966  49.783  1.00  0.00    -0.027 SA
BRANCH   7   8
HETATM    8  C11 UNL     1      26.413   4.370  49.253  1.00  0.00    -0.077 C 
BRANCH   8   9
HETATM    9  C10 UNL     1      27.627   4.757  48.734  1.00  0.00     0.064 C 
HETATM   10  C9  UNL     1      27.807   6.022  48.379  1.00  0.00     0.011 C 
BRANCH  10  11
HETATM   11  C8  UNL     1      29.071   6.415  47.841  1.00  0.00     0.026 C 
HETATM   12  C7  UNL     1      29.663   7.578  48.158  1.00  0.00     0.014 A 
HETATM   13  N2  UNL     1      30.922   8.054  47.673  1.00  0.00    -0.360 N 
HETATM   14  C6  UNL     1      29.085   8.570  49.095  1.00  0.00     0.085 A 
HETATM   15  C4  UNL     1      31.095   9.301  48.305  1.00  0.00     0.087 A 
HETATM   16  C5  UNL     1      30.112   9.652  49.112  1.00  0.00    -0.004 A 
BRANCH  13  17
HETATM   17  C3  UNL     1      31.776   7.355  46.751  1.00  0.00     0.130 C 
BRANCH  17  18
HETATM   18  C2  UNL     1      32.970   6.691  47.329  1.00  0.00     0.050 C 
BRANCH  18  19
HETATM   19  C1  UNL     1      32.666   5.334  47.876  1.00  0.00     0.268 C 
BRANCH  19  20
HETATM   20  N1  UNL     1      32.503   5.353  49.326  1.00  0.00     0.078 N 
HETATM   21  H1  UNL     1      33.356   4.989  49.816  1.00  0.00     0.312 HD
HETATM   22  H2  UNL     1      32.227   6.289  49.652  1.00  0.00     0.312 HD
ENDBRANCH  19  20
ENDBRANCH  18  19
ENDBRANCH  17  18
ENDBRANCH  13  17
ENDBRANCH  10  11
ENDBRANCH   8   9
ENDBRANCH   7   8
ENDBRANCH   1   7
BRANCH   5  23
HETATM   23  N4  UNL     1      22.100   0.478  51.757  1.00  0.00    -0.188 N 
HETATM   24  H18 UNL     1      21.576  -0.172  51.094  1.00  0.00     0.184 HD
BRANCH  23  25
HETATM   25  C16 UNL     1      22.523  -0.127  52.950  1.00  0.00     0.052 A 
HETATM   26  C17 UNL     1      21.616  -0.688  53.837  1.00  0.00     0.030 A 
HETATM   27  C18 UNL     1      21.994  -1.286  55.009  1.00  0.00     0.005 A 
HETATM   28  C19 UNL     1      23.308  -1.365  55.377  1.00  0.00     0.037 A 
HETATM   29  C20 UNL     1      24.254  -0.830  54.544  1.00  0.00     0.074 A 
HETATM   30  C22 UNL     1      23.825  -0.239  53.377  1.00  0.00     0.066 A 
BRANCH  29  31
HETATM   31  O1  UNL     1      25.603  -0.896  54.894  1.00  0.00    -0.322 OA
BRANCH  31  32
HETATM   32  C21 UNL     1      26.480   0.175  54.530  1.00  0.00     0.398 C 
HETATM   33  F1  UNL     1      27.676   0.007  55.217  1.00  0.00    -0.227 F 
ENDBRANCH  31  32
ENDBRANCH  29  31
ENDBRANCH  23  25
ENDBRANCH   5  23
TORSDOF 12
ENDMDL
MODEL 5
REMARK VINA RESULT:      -7.3      1.181      1.299
REMARK  12 active torsions:
REMARK  status: ('A' for Active; 'I' for Inactive)
REMARK    1  A    between atoms: N1_1  and  C1_2 
REMARK    2  A    between atoms: C1_2  and  C2_3 
REMARK    3  A    between atoms: C2_3  and  C3_4 
REMARK    4  A    between atoms: C3_4  and  N2_5 
REMARK    5  A    between atoms: C8_10  and  C9_11 
REMARK    6  A    between atoms: C10_12  and  C11_13 
REMARK    7  A    between atoms: C11_13  and  S1_14 
REMARK    8  A    between atoms: S1_14  and  C12_15 
REMARK    9  A    between atoms: C15_19  and  N4_20 
REMARK   10  A    between atoms: N4_20  and  C16_21 
REMARK   11  A    between atoms: C20_25  and  O1_26 
REMARK   12  A    between atoms: O1_26  and  C21_27 
ROOT
HETATM    1  C12 UNL     1      24.758   5.146  49.389  1.00  0.00     0.125 A 
HETATM    2  C13 UNL     1      23.747   5.413  48.495  1.00  0.00     0.060 A 
HETATM    3  C14 UNL     1      22.499   5.025  48.912  1.00  0.00     0.139 A 
HETATM    4  N3  UNL     1      22.381   4.449  50.099  1.00  0.00    -0.075 NA
HETATM    5  C15 UNL     1      23.367   4.196  50.954  1.00  0.00     0.727 A 
HETATM    6  N5  UNL     1      24.599   4.560  50.581  1.00  0.00    -0.055 NA
ENDROOT
BRANCH   1   7
HETATM    7  S1  UNL     1      26.373   5.609  48.933  1.00  0.00    -0.027 SA
BRANCH   7   8
HETATM    8  C11 UNL     1      27.716   6.005  48.563  1.00  0.00    -0.077 C 
BRANCH   8   9
HETATM    9  C10 UNL     1      28.994   6.367  48.202  1.00  0.00     0.064 C 
HETATM   10  C9  UNL     1      29.947   5.445  48.181  1.00  0.00     0.011 C 
BRANCH  10  11
HETATM   11  C8  UNL     1      31.271   5.830  47.805  1.00  0.00     0.026 C 
HETATM   12  C7  UNL     1      32.147   4.972  47.257  1.00  0.00     0.014 A 
HETATM   13  N2  UNL     1      33.487   5.264  46.849  1.00  0.00    -0.360 N 
HETATM   14  C6  UNL     1      31.842   3.548  46.975  1.00  0.00     0.085 A 
HETATM   15  C4  UNL     1      33.973   4.046  46.334  1.00  0.00     0.087 A 
HETATM   16  C5  UNL     1      33.111   3.048  46.372  1.00  0.00    -0.004 A 
BRANCH  13  17
HETATM   17  C3  UNL     1      34.128   6.547  46.960  1.00  0.00     0.130 C 
BRANCH  17  18
HETATM   18  C2  UNL     1      34.533   6.967  48.324  1.00  0.00     0.050 C 
BRANCH  18  19
HETATM   19  C1  UNL     1      35.765   6.269  48.799  1.00  0.00     0.268 C 
BRANCH  19  20
HETATM   20  N1  UNL     1      35.451   5.099  49.613  1.00  0.00     0.078 N 
HETATM   21  H1  UNL     1      35.291   4.247  49.022  1.00  0.00     0.312 HD
HETATM   22  H2  UNL     1      36.167   4.951  50.337  1.00  0.00     0.312 HD
ENDBRANCH  19  20
ENDBRANCH  18  19
ENDBRANCH  17  18
ENDBRANCH  13  17
ENDBRANCH  10  11
ENDBRANCH   8   9
ENDBRANCH   7   8
ENDBRANCH   1   7
BRANCH   5  23
HETATM   23  N4  UNL     1      23.165   3.571  52.216  1.00  0.00    -0.188 N 
HETATM   24  H18 UNL     1      22.782   4.201  52.986  1.00  0.00     0.184 HD
BRANCH  23  25
HETATM   25  C16 UNL     1      23.392   2.244  52.611  1.00  0.00     0.052 A 
HETATM   26  C17 UNL     1      22.361   1.318  52.659  1.00  0.00     0.030 A 
HETATM   27  C18 UNL     1      22.547   0.016  53.039  1.00  0.00     0.005 A 
HETATM   28  C19 UNL     1      23.780  -0.452  53.398  1.00  0.00     0.037 A 
HETATM   29  C20 UNL     1      24.841   0.413  53.373  1.00  0.00     0.074 A 
HETATM   30  C22 UNL     1      24.604   1.712  52.983  1.00  0.00     0.066 A 
BRANCH  29  31
HETATM   31  O1  UNL     1      26.111  -0.037  53.734  1.00  0.00    -0.322 OA
BRANCH  31  32
HETATM   32  C21 UNL     1      26.782  -0.995  52.909  1.00  0.00     0.398 C 
HETATM   33  F1  UNL     1      26.651  -0.591  51.585  1.00  0.00    -0.227 F 
ENDBRANCH  31  32
ENDBRANCH  29  31
ENDBRANCH  23  25
ENDBRANCH   5  23
TORSDOF 12
ENDMDL
MODEL 6
REMARK VINA RESULT:      -7.1      2.748      3.690
REMARK  12 active torsions:
REMARK  status: ('A' for Active; 'I' for Inactive)
REMARK    1  A    between atoms: N1_1  and  C1_2 
REMARK    2  A    between atoms: C1_2  and  C2_3 
REMARK    3  A    between atoms: C2_3  and  C3_4 
REMARK    4  A    between atoms: C3_4  and  N2_5 
REMARK    5  A    between atoms: C8_10  and  C9_11 
REMARK    6  A    between atoms: C10_12  and  C11_13 
REMARK    7  A    between atoms: C11_13  and  S1_14 
REMARK    8  A    between atoms: S1_14  and  C12_15 
REMARK    9  A    between atoms: C15_19  and  N4_20 
REMARK   10  A    between atoms: N4_20  and  C16_21 
REMARK   11  A    between atoms: C20_25  and  O1_26 
REMARK   12  A    between atoms: O1_26  and  C21_27 
ROOT
HETATM    1  C12 UNL     1      22.565   3.954  51.365  1.00  0.00     0.125 A 
HETATM    2  C13 UNL     1      21.326   4.512  51.580  1.00  0.00     0.060 A 
HETATM    3  C14 UNL     1      20.381   3.637  52.055  1.00  0.00     0.139 A 
HETATM    4  N3  UNL     1      20.733   2.376  52.256  1.00  0.00    -0.075 NA
HETATM    5  C15 UNL     1      21.935   1.850  52.043  1.00  0.00     0.727 A 
HETATM    6  N5  UNL     1      22.882   2.672  51.580  1.00  0.00    -0.055 NA
ENDROOT
BRANCH   1   7
HETATM    7  S1  UNL     1      23.820   5.000  50.763  1.00  0.00    -0.027 SA
BRANCH   7   8
HETATM    8  C11 UNL     1      24.854   5.876  50.251  1.00  0.00    -0.077 C 
BRANCH   8   9
HETATM    9  C10 UNL     1      25.832   6.704  49.749  1.00  0.00     0.064 C 
HETATM   10  C9  UNL     1      26.337   6.456  48.548  1.00  0.00     0.011 C 
BRANCH  10  11
HETATM   11  C8  UNL     1      27.351   7.321  48.033  1.00  0.00     0.026 C 
HETATM   12  C7  UNL     1      28.630   6.935  47.894  1.00  0.00     0.014 A 
HETATM   13  N2  UNL     1      29.710   7.727  47.390  1.00  0.00    -0.360 N 
HETATM   14  C6  UNL     1      29.127   5.583  48.245  1.00  0.00     0.085 A 
HETATM   15  C4  UNL     1      30.827   6.871  47.436  1.00  0.00     0.087 A 
HETATM   16  C5  UNL     1      30.577   5.661  47.900  1.00  0.00    -0.004 A 
BRANCH  13  17
HETATM   17  C3  UNL     1      29.602   9.090  46.943  1.00  0.00     0.130 C 
BRANCH  17  18
HETATM   18  C2  UNL     1      29.431  10.120  47.996  1.00  0.00     0.050 C 
BRANCH  18  19
HETATM   19  C1  UNL     1      30.689  10.378  48.759  1.00  0.00     0.268 C 
BRANCH  19  20
HETATM   20  N1  UNL     1      30.610   9.882  50.129  1.00  0.00     0.078 N 
HETATM   21  H1  UNL     1      31.384   9.207  50.342  1.00  0.00     0.312 HD
HETATM   22  H2  UNL     1      30.567  10.661  50.800  1.00  0.00     0.312 HD
ENDBRANCH  19  20
ENDBRANCH  18  19
ENDBRANCH  17  18
ENDBRANCH  13  17
ENDBRANCH  10  11
ENDBRANCH   8   9
ENDBRANCH   7   8
ENDBRANCH   1   7
BRANCH   5  23
HETATM   23  N4  UNL     1      22.241   0.481  52.283  1.00  0.00    -0.188 N 
HETATM   24  H18 UNL     1      21.856  -0.209  51.567  1.00  0.00     0.184 HD
BRANCH  23  25
HETATM   25  C16 UNL     1      22.978  -0.109  53.321  1.00  0.00     0.052 A 
HETATM   26  C17 UNL     1      22.350  -0.713  54.400  1.00  0.00     0.030 A 
HETATM   27  C18 UNL     1      23.037  -1.298  55.429  1.00  0.00     0.005 A 
HETATM   28  C19 UNL     1      24.404  -1.320  55.451  1.00  0.00     0.037 A 
HETATM   29  C20 UNL     1      25.084  -0.740  54.414  1.00  0.00     0.074 A 
HETATM   30  C22 UNL     1      24.349  -0.165  53.403  1.00  0.00     0.066 A 
BRANCH  29  31
HETATM   31  O1  UNL     1      26.480  -0.748  54.410  1.00  0.00    -0.322 OA
BRANCH  31  32
HETATM   32  C21 UNL     1      27.182  -0.730  53.163  1.00  0.00     0.398 C 
HETATM   33  F1  UNL     1      27.636  -2.018  52.905  1.00  0.00    -0.227 F 
ENDBRANCH  31  32
ENDBRANCH  29  31
ENDBRANCH  23  25
ENDBRANCH   5  23
TORSDOF 12
ENDMDL
MODEL 7
REMARK VINA RESULT:      -7.1      3.108     10.149
REMARK  12 active torsions:
REMARK  status: ('A' for Active; 'I' for Inactive)
REMARK    1  A    between atoms: N1_1  and  C1_2 
REMARK    2  A    between atoms: C1_2  and  C2_3 
REMARK    3  A    between atoms: C2_3  and  C3_4 
REMARK    4  A    between atoms: C3_4  and  N2_5 
REMARK    5  A    between atoms: C8_10  and  C9_11 
REMARK    6  A    between atoms: C10_12  and  C11_13 
REMARK    7  A    between atoms: C11_13  and  S1_14 
REMARK    8  A    between atoms: S1_14  and  C12_15 
REMARK    9  A    between atoms: C15_19  and  N4_20 
REMARK   10  A    between atoms: N4_20  and  C16_21 
REMARK   11  A    between atoms: C20_25  and  O1_26 
REMARK   12  A    between atoms: O1_26  and  C21_27 
ROOT
HETATM    1  C12 UNL     1      28.428   6.070  48.180  1.00  0.00     0.125 A 
HETATM    2  C13 UNL     1      27.905   7.075  47.400  1.00  0.00     0.060 A 
HETATM    3  C14 UNL     1      28.838   7.932  46.872  1.00  0.00     0.139 A 
HETATM    4  N3  UNL     1      30.116   7.725  47.152  1.00  0.00    -0.075 NA
HETATM    5  C15 UNL     1      30.608   6.749  47.909  1.00  0.00     0.727 A 
HETATM    6  N5  UNL     1      29.728   5.892  48.441  1.00  0.00    -0.055 NA
ENDROOT
BRANCH   1   7
HETATM    7  S1  UNL     1      27.308   4.939  48.885  1.00  0.00    -0.027 SA
BRANCH   7   8
HETATM    8  C11 UNL     1      26.376   3.990  49.459  1.00  0.00    -0.077 C 
BRANCH   8   9
HETATM    9  C10 UNL     1      25.503   3.076  50.004  1.00  0.00     0.064 C 
HETATM   10  C9  UNL     1      25.729   2.613  51.226  1.00  0.00     0.011 C 
BRANCH  10  11
HETATM   11  C8  UNL     1      24.817   1.665  51.784  1.00  0.00     0.026 C 
HETATM   12  C7  UNL     1      25.137   0.876  52.823  1.00  0.00     0.014 A 
HETATM   13  N2  UNL     1      24.294  -0.097  53.446  1.00  0.00    -0.360 N 
HETATM   14  C6  UNL     1      26.452   0.905  53.506  1.00  0.00     0.085 A 
HETATM   15  C4  UNL     1      25.084  -0.638  54.479  1.00  0.00     0.087 A 
HETATM   16  C5  UNL     1      26.297  -0.127  54.572  1.00  0.00    -0.004 A 
BRANCH  13  17
HETATM   17  C3  UNL     1      22.942  -0.398  53.057  1.00  0.00     0.130 C 
BRANCH  17  18
HETATM   18  C2  UNL     1      21.886   0.495  53.594  1.00  0.00     0.050 C 
BRANCH  18  19
HETATM   19  C1  UNL     1      20.858   0.852  52.571  1.00  0.00     0.268 C 
BRANCH  19  20
HETATM   20  N1  UNL     1      20.278   2.169  52.815  1.00  0.00     0.078 N 
HETATM   21  H1  UNL     1      21.019   2.897  52.959  1.00  0.00     0.312 HD
HETATM   22  H2  UNL     1      19.612   2.421  52.071  1.00  0.00     0.312 HD
ENDBRANCH  19  20
ENDBRANCH  18  19
ENDBRANCH  17  18
ENDBRANCH  13  17
ENDBRANCH  10  11
ENDBRANCH   8   9
ENDBRANCH   7   8
ENDBRANCH   1   7
BRANCH   5  23
HETATM   23  N4  UNL     1      31.998   6.586  48.167  1.00  0.00    -0.188 N 
HETATM   24  H18 UNL     1      32.497   7.444  48.558  1.00  0.00     0.184 HD
BRANCH  23  25
HETATM   25  C16 UNL     1      32.823   5.465  47.989  1.00  0.00     0.052 A 
HETATM   26  C17 UNL     1      34.133   5.453  48.442  1.00  0.00     0.030 A 
HETATM   27  C18 UNL     1      34.965   4.377  48.286  1.00  0.00     0.005 A 
HETATM   28  C19 UNL     1      34.543   3.235  47.663  1.00  0.00     0.037 A 
HETATM   29  C20 UNL     1      33.258   3.184  47.192  1.00  0.00     0.074 A 
HETATM   30  C22 UNL     1      32.460   4.291  47.374  1.00  0.00     0.066 A 
BRANCH  29  31
HETATM   31  O1  UNL     1      32.801   2.031  46.552  1.00  0.00    -0.322 OA
BRANCH  31  32
HETATM   32  C21 UNL     1      32.412   0.897  47.335  1.00  0.00     0.398 C 
HETATM   33  F1  UNL     1      32.046  -0.123  46.464  1.00  0.00    -0.227 F 
ENDBRANCH  31  32
ENDBRANCH  29  31
ENDBRANCH  23  25
ENDBRANCH   5  23
TORSDOF 12
ENDMDL
MODEL 8
REMARK VINA RESULT:      -6.9      1.252      1.880
REMARK  12 active torsions:
REMARK  status: ('A' for Active; 'I' for Inactive)
REMARK    1  A    between atoms: N1_1  and  C1_2 
REMARK    2  A    between atoms: C1_2  and  C2_3 
REMARK    3  A    between atoms: C2_3  and  C3_4 
REMARK    4  A    between atoms: C3_4  and  N2_5 
REMARK    5  A    between atoms: C8_10  and  C9_11 
REMARK    6  A    between atoms: C10_12  and  C11_13 
REMARK    7  A    between atoms: C11_13  and  S1_14 
REMARK    8  A    between atoms: S1_14  and  C12_15 
REMARK    9  A    between atoms: C15_19  and  N4_20 
REMARK   10  A    between atoms: N4_20  and  C16_21 
REMARK   11  A    between atoms: C20_25  and  O1_26 
REMARK   12  A    between atoms: O1_26  and  C21_27 
ROOT
HETATM    1  C12 UNL     1      25.047   4.618  49.686  1.00  0.00     0.125 A 
HETATM    2  C13 UNL     1      23.893   4.759  48.950  1.00  0.00     0.060 A 
HETATM    3  C14 UNL     1      22.765   4.264  49.557  1.00  0.00     0.139 A 
HETATM    4  N3  UNL     1      22.883   3.714  50.756  1.00  0.00    -0.075 NA
HETATM    5  C15 UNL     1      24.006   3.583  51.456  1.00  0.00     0.727 A 
HETATM    6  N5  UNL     1      25.126   4.054  50.897  1.00  0.00    -0.055 NA
ENDROOT
BRANCH   1   7
HETATM    7  S1  UNL     1      26.521   5.222  48.985  1.00  0.00    -0.027 SA
BRANCH   7   8
HETATM    8  C11 UNL     1      27.756   5.713  48.409  1.00  0.00    -0.077 C 
BRANCH   8   9
HETATM    9  C10 UNL     1      28.936   6.183  47.878  1.00  0.00     0.064 C 
HETATM   10  C9  UNL     1      30.080   5.621  48.245  1.00  0.00     0.011 C 
BRANCH  10  11
HETATM   11  C8  UNL     1      31.301   6.114  47.689  1.00  0.00     0.026 C 
HETATM   12  C7  UNL     1      32.221   5.309  47.132  1.00  0.00     0.014 A 
HETATM   13  N2  UNL     1      33.465   5.710  46.552  1.00  0.00    -0.360 N 
HETATM   14  C6  UNL     1      32.073   3.838  47.024  1.00  0.00     0.085 A 
HETATM   15  C4  UNL     1      34.050   4.509  46.106  1.00  0.00     0.087 A 
HETATM   16  C5  UNL     1      33.330   3.426  46.335  1.00  0.00    -0.004 A 
BRANCH  13  17
HETATM   17  C3  UNL     1      33.946   7.063  46.468  1.00  0.00     0.130 C 
BRANCH  17  18
HETATM   18  C2  UNL     1      33.821   7.728  45.147  1.00  0.00     0.050 C 
BRANCH  18  19
HETATM   19  C1  UNL     1      32.641   8.642  45.072  1.00  0.00     0.268 C 
BRANCH  19  20
HETATM   20  N1  UNL     1      32.871   9.755  44.157  1.00  0.00     0.078 N 
HETATM   21  H1  UNL     1      32.253  10.574  44.381  1.00  0.00     0.312 HD
HETATM   22  H2  UNL     1      33.868  10.007  44.127  1.00  0.00     0.312 HD
ENDBRANCH  19  20
ENDBRANCH  18  19
ENDBRANCH  17  18
ENDBRANCH  13  17
ENDBRANCH  10  11
ENDBRANCH   8   9
ENDBRANCH   7   8
ENDBRANCH   1   7
BRANCH   5  23
HETATM   23  N4  UNL     1      24.058   2.979  52.743  1.00  0.00    -0.188 N 
HETATM   24  H18 UNL     1      23.460   3.443  53.494  1.00  0.00     0.184 HD
BRANCH  23  25
HETATM   25  C16 UNL     1      24.777   1.857  53.183  1.00  0.00     0.052 A 
HETATM   26  C17 UNL     1      24.300   0.570  52.985  1.00  0.00     0.030 A 
HETATM   27  C18 UNL     1      24.975  -0.546  53.401  1.00  0.00     0.005 A 
HETATM   28  C19 UNL     1      26.177  -0.453  54.046  1.00  0.00     0.037 A 
HETATM   29  C20 UNL     1      26.702   0.792  54.273  1.00  0.00     0.074 A 
HETATM   30  C22 UNL     1      25.986   1.883  53.835  1.00  0.00     0.066 A 
BRANCH  29  31
HETATM   31  O1  UNL     1      27.927   0.917  54.929  1.00  0.00    -0.322 OA
BRANCH  31  32
HETATM   32  C21 UNL     1      29.056   1.444  54.221  1.00  0.00     0.398 C 
HETATM   33  F1  UNL     1      29.330   0.597  53.155  1.00  0.00    -0.227 F 
ENDBRANCH  31  32
ENDBRANCH  29  31
ENDBRANCH  23  25
ENDBRANCH   5  23
TORSDOF 12
ENDMDL
MODEL 9
REMARK VINA RESULT:      -6.9      3.835      5.670
REMARK  12 active torsions:
REMARK  status: ('A' for Active; 'I' for Inactive)
REMARK    1  A    between atoms: N1_1  and  C1_2 
REMARK    2  A    between atoms: C1_2  and  C2_3 
REMARK    3  A    between atoms: C2_3  and  C3_4 
REMARK    4  A    between atoms: C3_4  and  N2_5 
REMARK    5  A    between atoms: C8_10  and  C9_11 
REMARK    6  A    between atoms: C10_12  and  C11_13 
REMARK    7  A    between atoms: C11_13  and  S1_14 
REMARK    8  A    between atoms: S1_14  and  C12_15 
REMARK    9  A    between atoms: C15_19  and  N4_20 
REMARK   10  A    between atoms: N4_20  and  C16_21 
REMARK   11  A    between atoms: C20_25  and  O1_26 
REMARK   12  A    between atoms: O1_26  and  C21_27 
ROOT
HETATM    1  C12 UNL     1      25.976   0.726  52.195  1.00  0.00     0.125 A 
HETATM    2  C13 UNL     1      27.004  -0.187  52.137  1.00  0.00     0.060 A 
HETATM    3  C14 UNL     1      26.801  -1.323  52.880  1.00  0.00     0.139 A 
HETATM    4  N3  UNL     1      25.672  -1.436  53.565  1.00  0.00    -0.075 NA
HETATM    5  C15 UNL     1      24.687  -0.545  53.612  1.00  0.00     0.727 A 
HETATM    6  N5  UNL     1      24.849   0.576  52.899  1.00  0.00    -0.055 NA
ENDROOT
BRANCH   1   7
HETATM    7  S1  UNL     1      26.158   2.194  51.278  1.00  0.00    -0.027 SA
BRANCH   7   8
HETATM    8  C11 UNL     1      26.319   3.408  50.504  1.00  0.00    -0.077 C 
BRANCH   8   9
HETATM    9  C10 UNL     1      26.460   4.557  49.758  1.00  0.00     0.064 C 
HETATM   10  C9  UNL     1      27.575   4.748  49.067  1.00  0.00     0.011 C 
BRANCH  10  11
HETATM   11  C8  UNL     1      27.712   5.943  48.295  1.00  0.00     0.026 C 
HETATM   12  C7  UNL     1      28.886   6.344  47.782  1.00  0.00     0.014 A 
HETATM   13  N2  UNL     1      29.119   7.519  47.000  1.00  0.00    -0.360 N 
HETATM   14  C6  UNL     1      30.157   5.599  47.948  1.00  0.00     0.085 A 
HETATM   15  C4  UNL     1      30.495   7.479  46.703  1.00  0.00     0.087 A 
HETATM   16  C5  UNL     1      31.136   6.437  47.198  1.00  0.00    -0.004 A 
BRANCH  13  17
HETATM   17  C3  UNL     1      28.117   8.481  46.627  1.00  0.00     0.130 C 
BRANCH  17  18
HETATM   18  C2  UNL     1      27.724   9.463  47.668  1.00  0.00     0.050 C 
BRANCH  18  19
HETATM   19  C1  UNL     1      28.856   9.825  48.574  1.00  0.00     0.268 C 
BRANCH  19  20
HETATM   20  N1  UNL     1      28.630   9.368  49.941  1.00  0.00     0.078 N 
HETATM   21  H1  UNL     1      28.037  10.044  50.482  1.00  0.00     0.312 HD
HETATM   22  H2  UNL     1      28.250   8.412  49.951  1.00  0.00     0.312 HD
ENDBRANCH  19  20
ENDBRANCH  18  19
ENDBRANCH  17  18
ENDBRANCH  13  17
ENDBRANCH  10  11
ENDBRANCH   8   9
ENDBRANCH   7   8
ENDBRANCH   1   7
BRANCH   5  23
HETATM   23  N4  UNL     1      23.499  -0.734  54.371  1.00  0.00    -0.188 N 
HETATM   24  H18 UNL     1      23.643  -0.968  55.402  1.00  0.00     0.184 HD
BRANCH  23  25
HETATM   25  C16 UNL     1      22.154  -0.660  53.975  1.00  0.00     0.052 A 
HETATM   26  C17 UNL     1      21.243  -1.645  54.326  1.00  0.00     0.030 A 
HETATM   27  C18 UNL     1      19.925  -1.604  53.958  1.00  0.00     0.005 A 
HETATM   28  C19 UNL     1      19.425  -0.574  53.211  1.00  0.00     0.037 A 
HETATM   29  C20 UNL     1      20.275   0.431  52.831  1.00  0.00     0.074 A 
HETATM   30  C22 UNL     1      21.591   0.345  53.227  1.00  0.00     0.066 A 
BRANCH  29  31
HETATM   31  O1  UNL     1      19.793   1.495  52.069  1.00  0.00    -0.322 OA
BRANCH  31  32
HETATM   32  C21 UNL     1      20.650   2.607  51.788  1.00  0.00     0.398 C 
HETATM   33  F1  UNL     1      20.539   3.513  52.836  1.00  0.00    -0.227 F 
ENDBRANCH  31  32
ENDBRANCH  29  31
ENDBRANCH  23  25
ENDBRANCH   5  23
TORSDOF 12
ENDMDL
