MODEL 1
REMARK VINA RESULT:      -6.4      0.000      0.000
REMARK  6 active torsions:
REMARK  status: ('A' for Active; 'I' for Inactive)
REMARK       I    between atoms: N1_5  and  C5_6 
REMARK    1  A    between atoms: C5_6  and  C6_8 
REMARK    2  A    between atoms: C9_11  and  N2_12 
REMARK    3  A    between atoms: N2_12  and  C10_13 
REMARK    4  A    between atoms: N2_12  and  C12_16 
REMARK    5  A    between atoms: C10_13  and  C11_14 
REMARK    6  A    between atoms: C12_16  and  C13_17 
ROOT
HETATM    1  C6  UNL     1      23.601   1.736  52.211  1.00  0.00     0.032 A 
HETATM    2  C7  UNL     1      22.927   1.539  51.021  1.00  0.00     0.019 A 
HETATM    3  C8  UNL     1      22.420   2.649  50.389  1.00  0.00     0.030 A 
HETATM    4  C9  UNL     1      22.494   3.964  50.791  1.00  0.00     0.030 A 
HETATM    5  C14 UNL     1      23.175   4.064  51.980  1.00  0.00     0.030 A 
HETATM    6  C15 UNL     1      23.727   3.038  52.703  1.00  0.00     0.019 A 
ENDROOT
BRANCH   1   7
HETATM    7  C5  UNL     1      24.151   0.564  52.903  1.00  0.00     0.254 C 
HETATM    8  N1  UNL     1      25.536   0.230  52.672  1.00  0.00    -0.344 N 
HETATM    9  C4  UNL     1      26.551   0.843  51.842  1.00  0.00     0.153 C 
HETATM   10  C16 UNL     1      25.899  -0.927  53.459  1.00  0.00     0.130 C 
HETATM   11  C3  UNL     1      27.837   0.802  52.635  1.00  0.00    -0.005 C 
HETATM   12  C2  UNL     1      28.214  -0.338  53.218  1.00  0.00    -0.084 C 
HETATM   13  C1  UNL     1      29.428  -0.562  54.025  1.00  0.00     0.043 C 
HETATM   14  C17 UNL     1      27.243  -1.469  52.980  1.00  0.00     0.053 C 
HETATM   15  O1  UNL     1      23.286  -0.004  53.634  1.00  0.00    -0.267 OA
ENDBRANCH   1   7
BRANCH   4  16
HETATM   16  N2  UNL     1      21.952   5.107  50.084  1.00  0.00    -0.379 N 
BRANCH  16  17
HETATM   17  C10 UNL     1      21.509   6.045  51.096  1.00  0.00     0.138 C 
BRANCH  17  18
HETATM   18  C11 UNL     1      21.828   7.447  50.732  1.00  0.00     0.134 C 
HETATM   19 CL1  UNL     1      23.576   7.829  50.929  1.00  0.00    -0.129 Cl
ENDBRANCH  17  18
ENDBRANCH  16  17
BRANCH  16  20
HETATM   20  C12 UNL     1      22.011   5.098  48.669  1.00  0.00     0.138 C 
BRANCH  20  21
HETATM   21  C13 UNL     1      23.155   5.592  47.893  1.00  0.00     0.134 C 
HETATM   22 CL2  UNL     1      24.741   5.541  48.636  1.00  0.00    -0.129 Cl
ENDBRANCH  20  21
ENDBRANCH  16  20
ENDBRANCH   4  16
TORSDOF 6
ENDMDL
MODEL 2
REMARK VINA RESULT:      -6.4      3.583      7.648
REMARK  6 active torsions:
REMARK  status: ('A' for Active; 'I' for Inactive)
REMARK       I    between atoms: N1_5  and  C5_6 
REMARK    1  A    between atoms: C5_6  and  C6_8 
REMARK    2  A    between atoms: C9_11  and  N2_12 
REMARK    3  A    between atoms: N2_12  and  C10_13 
REMARK    4  A    between atoms: N2_12  and  C12_16 
REMARK    5  A    between atoms: C10_13  and  C11_14 
REMARK    6  A    between atoms: C12_16  and  C13_17 
ROOT
HETATM    1  C6  UNL     1      24.842   3.426  50.504  1.00  0.00     0.032 A 
HETATM    2  C7  UNL     1      24.267   3.290  51.754  1.00  0.00     0.019 A 
HETATM    3  C8  UNL     1      25.003   2.654  52.725  1.00  0.00     0.030 A 
HETATM    4  C9  UNL     1      26.268   2.121  52.619  1.00  0.00     0.030 A 
HETATM    5  C14 UNL     1      26.759   2.298  51.349  1.00  0.00     0.030 A 
HETATM    6  C15 UNL     1      26.127   2.914  50.298  1.00  0.00     0.019 A 
ENDROOT
BRANCH   1   7
HETATM    7  C5  UNL     1      24.073   4.101  49.452  1.00  0.00     0.254 C 
HETATM    8  N1  UNL     1      24.461   5.443  49.087  1.00  0.00    -0.344 N 
HETATM    9  C4  UNL     1      25.506   6.314  49.581  1.00  0.00     0.153 C 
HETATM   10  C16 UNL     1      23.612   5.925  48.020  1.00  0.00     0.130 C 
HETATM   11  C3  UNL     1      26.081   7.021  48.375  1.00  0.00    -0.005 C 
HETATM   12  C2  UNL     1      25.259   7.590  47.492  1.00  0.00    -0.084 C 
HETATM   13  C1  UNL     1      25.638   8.317  46.266  1.00  0.00     0.043 C 
HETATM   14  C17 UNL     1      23.802   7.430  47.857  1.00  0.00     0.053 C 
HETATM   15  O1  UNL     1      23.143   3.369  49.002  1.00  0.00    -0.267 OA
ENDBRANCH   1   7
BRANCH   4  16
HETATM   16  N2  UNL     1      27.013   1.467  53.677  1.00  0.00    -0.379 N 
BRANCH  16  17
HETATM   17  C10 UNL     1      28.325   2.082  53.698  1.00  0.00     0.138 C 
BRANCH  17  18
HETATM   18  C11 UNL     1      29.320   1.242  54.407  1.00  0.00     0.134 C 
HETATM   19 CL1  UNL     1      29.811  -0.201  53.450  1.00  0.00    -0.129 Cl
ENDBRANCH  17  18
ENDBRANCH  16  17
BRANCH  16  20
HETATM   20  C12 UNL     1      26.343   0.481  54.443  1.00  0.00     0.138 C 
BRANCH  20  21
HETATM   21  C13 UNL     1      25.791  -0.758  53.883  1.00  0.00     0.134 C 
HETATM   22 CL2  UNL     1      26.564  -1.440  52.467  1.00  0.00    -0.129 Cl
ENDBRANCH  20  21
ENDBRANCH  16  20
ENDBRANCH   4  16
TORSDOF 6
ENDMDL
MODEL 3
REMARK VINA RESULT:      -6.3      1.170      1.547
REMARK  6 active torsions:
REMARK  status: ('A' for Active; 'I' for Inactive)
REMARK       I    between atoms: N1_5  and  C5_6 
REMARK    1  A    between atoms: C5_6  and  C6_8 
REMARK    2  A    between atoms: C9_11  and  N2_12 
REMARK    3  A    between atoms: N2_12  and  C10_13 
REMARK    4  A    between atoms: N2_12  and  C12_16 
REMARK    5  A    between atoms: C10_13  and  C11_14 
REMARK    6  A    between atoms: C12_16  and  C13_17 
ROOT
HETATM    1  C6  UNL     1      23.819   2.027  52.469  1.00  0.00     0.032 A 
HETATM    2  C7  UNL     1      23.091   2.043  51.295  1.00  0.00     0.019 A 
HETATM    3  C8  UNL     1      22.662   3.264  50.832  1.00  0.00     0.030 A 
HETATM    4  C9  UNL     1      22.865   4.504  51.393  1.00  0.00     0.030 A 
HETATM    5  C14 UNL     1      23.591   4.393  52.553  1.00  0.00     0.030 A 
HETATM    6  C15 UNL     1      24.075   3.239  53.116  1.00  0.00     0.019 A 
ENDROOT
BRANCH   1   7
HETATM    7  C5  UNL     1      24.287   0.733  52.982  1.00  0.00     0.254 C 
HETATM    8  N1  UNL     1      25.649   0.347  52.701  1.00  0.00    -0.344 N 
HETATM    9  C4  UNL     1      26.707   1.006  51.965  1.00  0.00     0.153 C 
HETATM   10  C16 UNL     1      25.931  -0.934  53.311  1.00  0.00     0.130 C 
HETATM   11  C3  UNL     1      27.982   0.767  52.740  1.00  0.00    -0.005 C 
HETATM   12  C2  UNL     1      28.281  -0.467  53.151  1.00  0.00    -0.084 C 
HETATM   13  C1  UNL     1      29.472  -0.886  53.913  1.00  0.00     0.043 C 
HETATM   14  C17 UNL     1      27.240  -1.487  52.754  1.00  0.00     0.053 C 
HETATM   15  O1  UNL     1      23.382   0.124  53.626  1.00  0.00    -0.267 OA
ENDBRANCH   1   7
BRANCH   4  16
HETATM   16  N2  UNL     1      22.401   5.771  50.862  1.00  0.00    -0.379 N 
BRANCH  16  17
HETATM   17  C10 UNL     1      23.547   6.657  50.852  1.00  0.00     0.138 C 
BRANCH  17  18
HETATM   18  C11 UNL     1      24.312   6.562  49.585  1.00  0.00     0.134 C 
HETATM   19 CL1  UNL     1      25.798   5.560  49.751  1.00  0.00    -0.129 Cl
ENDBRANCH  17  18
ENDBRANCH  16  17
BRANCH  16  20
HETATM   20  C12 UNL     1      21.050   5.857  50.446  1.00  0.00     0.138 C 
BRANCH  20  21
HETATM   21  C13 UNL     1      20.628   5.930  49.041  1.00  0.00     0.134 C 
HETATM   22 CL2  UNL     1      21.522   4.994  47.861  1.00  0.00    -0.129 Cl
ENDBRANCH  20  21
ENDBRANCH  16  20
ENDBRANCH   4  16
TORSDOF 6
ENDMDL
MODEL 4
REMARK VINA RESULT:      -6.3      1.249      1.842
REMARK  6 active torsions:
REMARK  status: ('A' for Active; 'I' for Inactive)
REMARK       I    between atoms: N1_5  and  C5_6 
REMARK    1  A    between atoms: C5_6  and  C6_8 
REMARK    2  A    between atoms: C9_11  and  N2_12 
REMARK    3  A    between atoms: N2_12  and  C10_13 
REMARK    4  A    between atoms: N2_12  and  C12_16 
REMARK    5  A    between atoms: C10_13  and  C11_14 
REMARK    6  A    between atoms: C12_16  and  C13_17 
ROOT
HETATM    1  C6  UNL     1      23.923   2.182  52.219  1.00  0.00     0.032 A 
HETATM    2  C7  UNL     1      23.929   3.264  53.080  1.00  0.00     0.019 A 
HETATM    3  C8  UNL     1      23.558   4.484  52.568  1.00  0.00     0.030 A 
HETATM    4  C9  UNL     1      23.171   4.783  51.281  1.00  0.00     0.030 A 
HETATM    5  C14 UNL     1      23.198   3.655  50.498  1.00  0.00     0.030 A 
HETATM    6  C15 UNL     1      23.546   2.387  50.889  1.00  0.00     0.019 A 
ENDROOT
BRANCH   1   7
HETATM    7  C5  UNL     1      24.317   0.870  52.745  1.00  0.00     0.254 C 
HETATM    8  N1  UNL     1      25.688   0.455  52.567  1.00  0.00    -0.344 N 
HETATM    9  C4  UNL     1      26.817   1.098  51.929  1.00  0.00     0.153 C 
HETATM   10  C16 UNL     1      25.890  -0.842  53.174  1.00  0.00     0.130 C 
HETATM   11  C3  UNL     1      28.020   0.815  52.799  1.00  0.00    -0.005 C 
HETATM   12  C2  UNL     1      28.255  -0.433  53.211  1.00  0.00    -0.084 C 
HETATM   13  C1  UNL     1      29.372  -0.892  54.057  1.00  0.00     0.043 C 
HETATM   14  C17 UNL     1      27.226  -1.420  52.714  1.00  0.00     0.053 C 
HETATM   15  O1  UNL     1      23.350   0.273  53.304  1.00  0.00    -0.267 OA
ENDBRANCH   1   7
BRANCH   4  16
HETATM   16  N2  UNL     1      22.776   6.087  50.786  1.00  0.00    -0.379 N 
BRANCH  16  17
HETATM   17  C10 UNL     1      21.386   5.974  50.393  1.00  0.00     0.138 C 
BRANCH  17  18
HETATM   18  C11 UNL     1      21.140   6.556  49.051  1.00  0.00     0.134 C 
HETATM   19 CL1  UNL     1      22.114   5.759  47.764  1.00  0.00    -0.129 Cl
ENDBRANCH  17  18
ENDBRANCH  16  17
BRANCH  16  20
HETATM   20  C12 UNL     1      23.734   7.130  50.836  1.00  0.00     0.138 C 
BRANCH  20  21
HETATM   21  C13 UNL     1      25.138   6.973  50.438  1.00  0.00     0.134 C 
HETATM   22 CL2  UNL     1      25.481   6.171  48.919  1.00  0.00    -0.129 Cl
ENDBRANCH  20  21
ENDBRANCH  16  20
ENDBRANCH   4  16
TORSDOF 6
ENDMDL
MODEL 5
REMARK VINA RESULT:      -6.1      3.906      4.870
REMARK  6 active torsions:
REMARK  status: ('A' for Active; 'I' for Inactive)
REMARK       I    between atoms: N1_5  and  C5_6 
REMARK    1  A    between atoms: C5_6  and  C6_8 
REMARK    2  A    between atoms: C9_11  and  N2_12 
REMARK    3  A    between atoms: N2_12  and  C10_13 
REMARK    4  A    between atoms: N2_12  and  C12_16 
REMARK    5  A    between atoms: C10_13  and  C11_14 
REMARK    6  A    between atoms: C12_16  and  C13_17 
ROOT
HETATM    1  C6  UNL     1      23.882   1.620  51.990  1.00  0.00     0.032 A 
HETATM    2  C7  UNL     1      23.221   1.699  50.779  1.00  0.00     0.019 A 
HETATM    3  C8  UNL     1      21.921   1.255  50.736  1.00  0.00     0.030 A 
HETATM    4  C9  UNL     1      21.168   0.730  51.762  1.00  0.00     0.030 A 
HETATM    5  C14 UNL     1      21.902   0.687  52.922  1.00  0.00     0.030 A 
HETATM    6  C15 UNL     1      23.199   1.098  53.093  1.00  0.00     0.019 A 
ENDROOT
BRANCH   1   7
HETATM    7  C5  UNL     1      25.271   2.087  52.058  1.00  0.00     0.254 C 
HETATM    8  N1  UNL     1      26.201   1.327  52.859  1.00  0.00    -0.344 N 
HETATM    9  C4  UNL     1      26.033   0.136  53.665  1.00  0.00     0.153 C 
HETATM   10  C16 UNL     1      27.517   1.921  52.778  1.00  0.00     0.130 C 
HETATM   11  C3  UNL     1      27.266  -0.709  53.444  1.00  0.00    -0.005 C 
HETATM   12  C2  UNL     1      28.473  -0.148  53.532  1.00  0.00    -0.084 C 
HETATM   13  C1  UNL     1      29.777  -0.813  53.349  1.00  0.00     0.043 C 
HETATM   14  C17 UNL     1      28.414   1.325  53.860  1.00  0.00     0.053 C 
HETATM   15  O1  UNL     1      25.453   3.135  51.371  1.00  0.00    -0.267 OA
ENDBRANCH   1   7
BRANCH   4  16
HETATM   16  N2  UNL     1      19.792   0.284  51.673  1.00  0.00    -0.379 N 
BRANCH  16  17
HETATM   17  C10 UNL     1      19.502  -0.409  52.912  1.00  0.00     0.138 C 
BRANCH  17  18
HETATM   18  C11 UNL     1      18.141  -0.997  52.915  1.00  0.00     0.134 C 
HETATM   19 CL1  UNL     1      18.060  -2.543  53.833  1.00  0.00    -0.129 Cl
ENDBRANCH  17  18
ENDBRANCH  16  17
BRANCH  16  20
HETATM   20  C12 UNL     1      19.057   0.636  50.514  1.00  0.00     0.138 C 
BRANCH  20  21
HETATM   21  C13 UNL     1      18.204   1.826  50.413  1.00  0.00     0.134 C 
HETATM   22 CL2  UNL     1      18.978   3.378  50.162  1.00  0.00    -0.129 Cl
ENDBRANCH  20  21
ENDBRANCH  16  20
ENDBRANCH   4  16
TORSDOF 6
ENDMDL
MODEL 6
REMARK VINA RESULT:      -6.0      4.293      5.183
REMARK  6 active torsions:
REMARK  status: ('A' for Active; 'I' for Inactive)
REMARK       I    between atoms: N1_5  and  C5_6 
REMARK    1  A    between atoms: C5_6  and  C6_8 
REMARK    2  A    between atoms: C9_11  and  N2_12 
REMARK    3  A    between atoms: N2_12  and  C10_13 
REMARK    4  A    between atoms: N2_12  and  C12_16 
REMARK    5  A    between atoms: C10_13  and  C11_14 
REMARK    6  A    between atoms: C12_16  and  C13_17 
ROOT
HETATM    1  C6  UNL     1      22.935   1.414  52.564  1.00  0.00     0.032 A 
HETATM    2  C7  UNL     1      21.962   1.182  53.519  1.00  0.00     0.019 A 
HETATM    3  C8  UNL     1      20.722   0.786  53.078  1.00  0.00     0.030 A 
HETATM    4  C9  UNL     1      20.307   0.583  51.781  1.00  0.00     0.030 A 
HETATM    5  C14 UNL     1      21.332   0.839  50.903  1.00  0.00     0.030 A 
HETATM    6  C15 UNL     1      22.607   1.236  51.217  1.00  0.00     0.019 A 
ENDROOT
BRANCH   1   7
HETATM    7  C5  UNL     1      24.266   1.838  53.013  1.00  0.00     0.254 C 
HETATM    8  N1  UNL     1      25.197   0.816  53.428  1.00  0.00    -0.344 N 
HETATM    9  C4  UNL     1      25.077  -0.625  53.507  1.00  0.00     0.153 C 
HETATM   10  C16 UNL     1      26.455   1.422  53.804  1.00  0.00     0.130 C 
HETATM   11  C3  UNL     1      26.396  -1.191  53.035  1.00  0.00    -0.005 C 
HETATM   12  C2  UNL     1      27.536  -0.704  53.528  1.00  0.00    -0.084 C 
HETATM   13  C1  UNL     1      28.906  -1.131  53.187  1.00  0.00     0.043 C 
HETATM   14  C17 UNL     1      27.316   0.398  54.538  1.00  0.00     0.053 C 
HETATM   15  O1  UNL     1      24.403   3.096  52.966  1.00  0.00    -0.267 OA
ENDBRANCH   1   7
BRANCH   4  16
HETATM   16  N2  UNL     1      18.988   0.154  51.361  1.00  0.00    -0.379 N 
BRANCH  16  17
HETATM   17  C10 UNL     1      18.741   0.775  50.076  1.00  0.00     0.138 C 
BRANCH  17  18
HETATM   18  C11 UNL     1      17.682   1.811  50.154  1.00  0.00     0.134 C 
HETATM   19 CL1  UNL     1      17.881   2.895  51.577  1.00  0.00    -0.129 Cl
ENDBRANCH  17  18
ENDBRANCH  16  17
BRANCH  16  20
HETATM   20  C12 UNL     1      18.292  -0.753  52.199  1.00  0.00     0.138 C 
BRANCH  20  21
HETATM   21  C13 UNL     1      16.859  -0.653  52.504  1.00  0.00     0.134 C 
HETATM   22 CL2  UNL     1      15.888  -2.106  52.397  1.00  0.00    -0.129 Cl
ENDBRANCH  20  21
ENDBRANCH  16  20
ENDBRANCH   4  16
TORSDOF 6
ENDMDL
MODEL 7
REMARK VINA RESULT:      -6.0      3.679      7.752
REMARK  6 active torsions:
REMARK  status: ('A' for Active; 'I' for Inactive)
REMARK       I    between atoms: N1_5  and  C5_6 
REMARK    1  A    between atoms: C5_6  and  C6_8 
REMARK    2  A    between atoms: C9_11  and  N2_12 
REMARK    3  A    between atoms: N2_12  and  C10_13 
REMARK    4  A    between atoms: N2_12  and  C12_16 
REMARK    5  A    between atoms: C10_13  and  C11_14 
REMARK    6  A    between atoms: C12_16  and  C13_17 
ROOT
HETATM    1  C6  UNL     1      24.825   3.706  50.192  1.00  0.00     0.032 A 
HETATM    2  C7  UNL     1      24.221   3.507  51.419  1.00  0.00     0.019 A 
HETATM    3  C8  UNL     1      24.912   2.775  52.354  1.00  0.00     0.030 A 
HETATM    4  C9  UNL     1      26.156   2.198  52.232  1.00  0.00     0.030 A 
HETATM    5  C14 UNL     1      26.678   2.443  50.985  1.00  0.00     0.030 A 
HETATM    6  C15 UNL     1      26.091   3.156  49.971  1.00  0.00     0.019 A 
ENDROOT
BRANCH   1   7
HETATM    7  C5  UNL     1      24.104   4.484  49.178  1.00  0.00     0.254 C 
HETATM    8  N1  UNL     1      24.637   5.775  48.811  1.00  0.00    -0.344 N 
HETATM    9  C4  UNL     1      25.798   6.506  49.273  1.00  0.00     0.153 C 
HETATM   10  C16 UNL     1      23.813   6.372  47.784  1.00  0.00     0.130 C 
HETATM   11  C3  UNL     1      26.408   7.157  48.054  1.00  0.00    -0.005 C 
HETATM   12  C2  UNL     1      25.628   7.835  47.209  1.00  0.00    -0.084 C 
HETATM   13  C1  UNL     1      26.046   8.530  45.977  1.00  0.00     0.043 C 
HETATM   14  C17 UNL     1      24.178   7.846  47.629  1.00  0.00     0.053 C 
HETATM   15  O1  UNL     1      23.075   3.877  48.756  1.00  0.00    -0.267 OA
ENDBRANCH   1   7
BRANCH   4  16
HETATM   16  N2  UNL     1      26.853   1.441  53.252  1.00  0.00    -0.379 N 
BRANCH  16  17
HETATM   17  C10 UNL     1      25.840   0.714  53.990  1.00  0.00     0.138 C 
BRANCH  17  18
HETATM   18  C11 UNL     1      25.903  -0.745  53.731  1.00  0.00     0.134 C 
HETATM   19 CL1  UNL     1      26.643  -1.130  52.136  1.00  0.00    -0.129 Cl
ENDBRANCH  17  18
ENDBRANCH  16  17
BRANCH  16  20
HETATM   20  C12 UNL     1      28.268   1.518  53.280  1.00  0.00     0.138 C 
BRANCH  20  21
HETATM   21  C13 UNL     1      29.112   0.753  54.207  1.00  0.00     0.134 C 
HETATM   22 CL2  UNL     1      30.046  -0.582  53.563  1.00  0.00    -0.129 Cl
ENDBRANCH  20  21
ENDBRANCH  16  20
ENDBRANCH   4  16
TORSDOF 6
ENDMDL
MODEL 8
REMARK VINA RESULT:      -5.8      4.313      6.659
REMARK  6 active torsions:
REMARK  status: ('A' for Active; 'I' for Inactive)
REMARK       I    between atoms: N1_5  and  C5_6 
REMARK    1  A    between atoms: C5_6  and  C6_8 
REMARK    2  A    between atoms: C9_11  and  N2_12 
REMARK    3  A    between atoms: N2_12  and  C10_13 
REMARK    4  A    between atoms: N2_12  and  C12_16 
REMARK    5  A    between atoms: C10_13  and  C11_14 
REMARK    6  A    between atoms: C12_16  and  C13_17 
ROOT
HETATM    1  C6  UNL     1      24.995   3.143  50.368  1.00  0.00     0.032 A 
HETATM    2  C7  UNL     1      25.259   2.642  51.629  1.00  0.00     0.019 A 
HETATM    3  C8  UNL     1      24.221   2.046  52.304  1.00  0.00     0.030 A 
HETATM    4  C9  UNL     1      22.920   1.875  51.884  1.00  0.00     0.030 A 
HETATM    5  C14 UNL     1      22.749   2.404  50.628  1.00  0.00     0.030 A 
HETATM    6  C15 UNL     1      23.700   3.019  49.855  1.00  0.00     0.019 A 
ENDROOT
BRANCH   1   7
HETATM    7  C5  UNL     1      26.089   3.784  49.629  1.00  0.00     0.254 C 
HETATM    8  N1  UNL     1      26.024   5.213  49.432  1.00  0.00    -0.344 N 
HETATM    9  C4  UNL     1      25.040   6.198  49.825  1.00  0.00     0.153 C 
HETATM   10  C16 UNL     1      27.197   5.662  48.715  1.00  0.00     0.130 C 
HETATM   11  C3  UNL     1      25.810   7.422  50.264  1.00  0.00    -0.005 C 
HETATM   12  C2  UNL     1      26.788   7.897  49.491  1.00  0.00    -0.084 C 
HETATM   13  C1  UNL     1      27.639   9.072  49.757  1.00  0.00     0.043 C 
HETATM   14  C17 UNL     1      26.982   7.092  48.228  1.00  0.00     0.053 C 
HETATM   15  O1  UNL     1      26.966   2.948  49.261  1.00  0.00    -0.267 OA
ENDBRANCH   1   7
BRANCH   4  16
HETATM   16  N2  UNL     1      21.858   1.229  52.629  1.00  0.00    -0.379 N 
BRANCH  16  17
HETATM   17  C10 UNL     1      22.394  -0.031  53.101  1.00  0.00     0.138 C 
BRANCH  17  18
HETATM   18  C11 UNL     1      21.673  -0.527  54.299  1.00  0.00     0.134 C 
HETATM   19 CL1  UNL     1      22.760  -1.379  55.453  1.00  0.00    -0.129 Cl
ENDBRANCH  17  18
ENDBRANCH  16  17
BRANCH  16  20
HETATM   20  C12 UNL     1      20.634   1.928  52.775  1.00  0.00     0.138 C 
BRANCH  20  21
HETATM   21  C13 UNL     1      19.406   1.593  52.043  1.00  0.00     0.134 C 
HETATM   22 CL2  UNL     1      19.441   0.219  50.957  1.00  0.00    -0.129 Cl
ENDBRANCH  20  21
ENDBRANCH  16  20
ENDBRANCH   4  16
TORSDOF 6
ENDMDL
MODEL 9
REMARK VINA RESULT:      -5.7      4.247      5.051
REMARK  6 active torsions:
REMARK  status: ('A' for Active; 'I' for Inactive)
REMARK       I    between atoms: N1_5  and  C5_6 
REMARK    1  A    between atoms: C5_6  and  C6_8 
REMARK    2  A    between atoms: C9_11  and  N2_12 
REMARK    3  A    between atoms: N2_12  and  C10_13 
REMARK    4  A    between atoms: N2_12  and  C12_16 
REMARK    5  A    between atoms: C10_13  and  C11_14 
REMARK    6  A    between atoms: C12_16  and  C13_17 
ROOT
HETATM    1  C6  UNL     1      25.683   4.426  50.066  1.00  0.00     0.032 A 
HETATM    2  C7  UNL     1      25.351   5.767  50.010  1.00  0.00     0.019 A 
HETATM    3  C8  UNL     1      26.142   6.584  49.238  1.00  0.00     0.030 A 
HETATM    4  C9  UNL     1      27.248   6.240  48.495  1.00  0.00     0.030 A 
HETATM    5  C14 UNL     1      27.506   4.896  48.611  1.00  0.00     0.030 A 
HETATM    6  C15 UNL     1      26.795   3.981  49.344  1.00  0.00     0.019 A 
ENDROOT
BRANCH   1   7
HETATM    7  C5  UNL     1      24.853   3.535  50.884  1.00  0.00     0.254 C 
HETATM    8  N1  UNL     1      25.503   2.437  51.560  1.00  0.00    -0.344 N 
HETATM    9  C4  UNL     1      26.883   2.002  51.588  1.00  0.00     0.153 C 
HETATM   10  C16 UNL     1      24.533   1.696  52.335  1.00  0.00     0.130 C 
HETATM   11  C3  UNL     1      27.170   1.578  53.010  1.00  0.00    -0.005 C 
HETATM   12  C2  UNL     1      26.320   0.763  53.639  1.00  0.00    -0.084 C 
HETATM   13  C1  UNL     1      26.437   0.249  55.016  1.00  0.00     0.043 C 
HETATM   14  C17 UNL     1      25.141   0.369  52.781  1.00  0.00     0.053 C 
HETATM   15  O1  UNL     1      23.634   3.882  50.875  1.00  0.00    -0.267 OA
ENDBRANCH   1   7
BRANCH   4  16
HETATM   16  N2  UNL     1      28.048   7.138  47.685  1.00  0.00    -0.379 N 
BRANCH  16  17
HETATM   17  C10 UNL     1      27.159   8.188  47.232  1.00  0.00     0.138 C 
BRANCH  17  18
HETATM   18  C11 UNL     1      27.656   9.535  47.602  1.00  0.00     0.134 C 
HETATM   19 CL1  UNL     1      26.613  10.343  48.826  1.00  0.00    -0.129 Cl
ENDBRANCH  17  18
ENDBRANCH  16  17
BRANCH  16  20
HETATM   20  C12 UNL     1      29.431   6.856  47.557  1.00  0.00     0.138 C 
BRANCH  20  21
HETATM   21  C13 UNL     1      30.410   7.053  48.633  1.00  0.00     0.134 C 
HETATM   22 CL2  UNL     1      30.603   8.666  49.290  1.00  0.00    -0.129 Cl
ENDBRANCH  20  21
ENDBRANCH  16  20
ENDBRANCH   4  16
TORSDOF 6
ENDMDL
