MODEL 1
REMARK VINA RESULT:      -8.1      0.000      0.000
REMARK  3 active torsions:
REMARK  status: ('A' for Active; 'I' for Inactive)
REMARK    1  A    between atoms: O1_2  and  C2_3 
REMARK    2  A    between atoms: N1_8  and  C7_9 
REMARK    3  A    between atoms: C8_11  and  O2_12 
ROOT
HETATM    1  C2  UNL     1      22.722   2.745  49.391  1.00  0.00     0.177 C 
HETATM    2  C3  UNL     1      24.186   3.177  49.633  1.00  0.00     0.013 C 
HETATM    3  C4  UNL     1      25.340   2.745  50.276  1.00  0.00    -0.067 C 
HETATM    4  C5  UNL     1      26.549   3.622  50.182  1.00  0.00     0.045 C 
HETATM    5  C6  UNL     1      25.585   1.495  50.984  1.00  0.00     0.159 C 
HETATM    6  N1  UNL     1      25.760   1.565  52.442  1.00  0.00    -0.347 N 
HETATM    7  C10 UNL     1      24.643   1.869  53.419  1.00  0.00     0.116 C 
HETATM    8  C11 UNL     1      24.519   3.360  53.451  1.00  0.00     0.037 C 
HETATM    9  C12 UNL     1      23.423   1.250  52.794  1.00  0.00    -0.029 A 
HETATM   10  C13 UNL     1      23.267   1.951  51.620  1.00  0.00     0.019 A 
HETATM   11  C14 UNL     1      22.436   1.810  50.532  1.00  0.00    -0.025 A 
HETATM   12  C15 UNL     1      21.605   0.735  50.735  1.00  0.00     0.010 A 
HETATM   13  C16 UNL     1      21.677  -0.017  51.877  1.00  0.00     0.008 A 
HETATM   14  C17 UNL     1      22.554   0.199  52.911  1.00  0.00    -0.054 A 
HETATM   15  C18 UNL     1      22.832  -0.445  54.200  1.00  0.00     0.049 C 
ENDROOT
BRANCH   6  16
HETATM   16  C7  UNL     1      27.039   1.354  53.102  1.00  0.00     0.172 A 
HETATM   17  N2  UNL     1      27.854   1.906  53.642  1.00  0.00    -0.200 NA
HETATM   18  C8  UNL     1      28.980   1.483  54.180  1.00  0.00     0.171 A 
HETATM   19  C9  UNL     1      29.189   0.129  54.058  1.00  0.00     0.111 A 
HETATM   20  S1  UNL     1      27.653  -0.430  53.125  1.00  0.00    -0.060 SA
BRANCH  18  21
HETATM   21  O2  UNL     1      29.802   2.450  54.796  1.00  0.00    -0.344 OA
HETATM   22  H11 UNL     1      29.895   2.505  55.794  1.00  0.00     0.219 HD
ENDBRANCH  18  21
ENDBRANCH   6  16
BRANCH   1  23
HETATM   23  O1  UNL     1      21.952   3.864  49.526  1.00  0.00    -0.382 OA
HETATM   24  C1  UNL     1      22.585   5.037  49.191  1.00  0.00     0.202 C 
ENDBRANCH   1  23
TORSDOF 3
ENDMDL
MODEL 2
REMARK VINA RESULT:      -7.8      3.041      5.429
REMARK  3 active torsions:
REMARK  status: ('A' for Active; 'I' for Inactive)
REMARK    1  A    between atoms: O1_2  and  C2_3 
REMARK    2  A    between atoms: N1_8  and  C7_9 
REMARK    3  A    between atoms: C8_11  and  O2_12 
ROOT
HETATM    1  C2  UNL     1      25.902  -0.582  53.185  1.00  0.00     0.177 C 
HETATM    2  C3  UNL     1      26.236   0.724  52.429  1.00  0.00     0.013 C 
HETATM    3  C4  UNL     1      25.778   2.029  52.284  1.00  0.00    -0.067 C 
HETATM    4  C5  UNL     1      26.530   2.923  51.350  1.00  0.00     0.045 C 
HETATM    5  C6  UNL     1      24.690   2.703  52.982  1.00  0.00     0.159 C 
HETATM    6  N1  UNL     1      23.494   3.047  52.200  1.00  0.00    -0.347 N 
HETATM    7  C10 UNL     1      22.496   2.032  51.682  1.00  0.00     0.116 C 
HETATM    8  C11 UNL     1      23.071   1.504  50.405  1.00  0.00     0.037 C 
HETATM    9  C12 UNL     1      22.476   0.958  52.735  1.00  0.00    -0.029 A 
HETATM   10  C13 UNL     1      23.758   0.458  52.715  1.00  0.00     0.019 A 
HETATM   11  C14 UNL     1      24.440  -0.441  53.504  1.00  0.00    -0.025 A 
HETATM   12  C15 UNL     1      23.601  -0.906  54.488  1.00  0.00     0.010 A 
HETATM   13  C16 UNL     1      22.305  -0.474  54.583  1.00  0.00     0.008 A 
HETATM   14  C17 UNL     1      21.713   0.439  53.746  1.00  0.00    -0.054 A 
HETATM   15  C18 UNL     1      20.385   1.055  53.641  1.00  0.00     0.049 C 
ENDROOT
BRANCH   6  16
HETATM   16  C7  UNL     1      23.145   4.411  51.833  1.00  0.00     0.172 A 
HETATM   17  N2  UNL     1      23.579   5.445  51.768  1.00  0.00    -0.200 NA
HETATM   18  C8  UNL     1      23.044   6.587  51.389  1.00  0.00     0.171 A 
HETATM   19  C9  UNL     1      21.726   6.494  51.005  1.00  0.00     0.111 A 
HETATM   20  S1  UNL     1      21.369   4.661  51.245  1.00  0.00    -0.060 SA
BRANCH  18  21
HETATM   21  O2  UNL     1      23.873   7.728  51.423  1.00  0.00    -0.344 OA
HETATM   22  H11 UNL     1      23.757   8.444  52.118  1.00  0.00     0.219 HD
ENDBRANCH  18  21
ENDBRANCH   6  16
BRANCH   1  23
HETATM   23  O1  UNL     1      26.069  -1.606  52.299  1.00  0.00    -0.382 OA
HETATM   24  C1  UNL     1      27.182  -2.382  52.526  1.00  0.00     0.202 C 
ENDBRANCH   1  23
TORSDOF 3
ENDMDL
MODEL 3
REMARK VINA RESULT:      -7.5      3.692      6.611
REMARK  3 active torsions:
REMARK  status: ('A' for Active; 'I' for Inactive)
REMARK    1  A    between atoms: O1_2  and  C2_3 
REMARK    2  A    between atoms: N1_8  and  C7_9 
REMARK    3  A    between atoms: C8_11  and  O2_12 
ROOT
HETATM    1  C2  UNL     1      25.086   0.800  52.943  1.00  0.00     0.177 C 
HETATM    2  C3  UNL     1      24.507   1.970  52.115  1.00  0.00     0.013 C 
HETATM    3  C4  UNL     1      23.333   2.698  51.960  1.00  0.00    -0.067 C 
HETATM    4  C5  UNL     1      23.330   3.789  50.937  1.00  0.00     0.045 C 
HETATM    5  C6  UNL     1      22.090   2.610  52.716  1.00  0.00     0.159 C 
HETATM    6  N1  UNL     1      20.909   2.080  52.020  1.00  0.00    -0.347 N 
HETATM    7  C10 UNL     1      20.737   0.629  51.620  1.00  0.00     0.116 C 
HETATM    8  C11 UNL     1      21.465   0.471  50.322  1.00  0.00     0.037 C 
HETATM    9  C12 UNL     1      21.430  -0.142  52.711  1.00  0.00    -0.029 A 
HETATM   10  C13 UNL     1      22.743   0.255  52.607  1.00  0.00     0.019 A 
HETATM   11  C14 UNL     1      23.867   0.034  53.372  1.00  0.00    -0.025 A 
HETATM   12  C15 UNL     1      23.537  -0.772  54.435  1.00  0.00     0.010 A 
HETATM   13  C16 UNL     1      22.258  -1.226  54.617  1.00  0.00     0.008 A 
HETATM   14  C17 UNL     1      21.194  -0.940  53.797  1.00  0.00    -0.054 A 
HETATM   15  C18 UNL     1      19.768  -1.285  53.775  1.00  0.00     0.049 C 
ENDROOT
BRANCH   6  16
HETATM   16  C7  UNL     1      19.775   2.905  51.632  1.00  0.00     0.172 A 
HETATM   17  N2  UNL     1      18.780   3.267  52.004  1.00  0.00    -0.200 NA
HETATM   18  C8  UNL     1      17.877   4.048  51.447  1.00  0.00     0.171 A 
HETATM   19  C9  UNL     1      18.217   4.498  50.193  1.00  0.00     0.111 A 
HETATM   20  S1  UNL     1      19.901   3.702  49.926  1.00  0.00    -0.060 SA
BRANCH  18  21
HETATM   21  O2  UNL     1      16.709   4.315  52.193  1.00  0.00    -0.344 OA
HETATM   22  H11 UNL     1      16.727   4.383  53.195  1.00  0.00     0.219 HD
ENDBRANCH  18  21
ENDBRANCH   6  16
BRANCH   1  23
HETATM   23  O1  UNL     1      25.818   0.032  52.085  1.00  0.00    -0.382 OA
HETATM   24  C1  UNL     1      26.921  -0.563  52.650  1.00  0.00     0.202 C 
ENDBRANCH   1  23
TORSDOF 3
ENDMDL
MODEL 4
REMARK VINA RESULT:      -7.5      2.931      6.527
REMARK  3 active torsions:
REMARK  status: ('A' for Active; 'I' for Inactive)
REMARK    1  A    between atoms: O1_2  and  C2_3 
REMARK    2  A    between atoms: N1_8  and  C7_9 
REMARK    3  A    between atoms: C8_11  and  O2_12 
ROOT
HETATM    1  C2  UNL     1      26.877   1.971  51.379  1.00  0.00     0.177 C 
HETATM    2  C3  UNL     1      25.647   1.334  52.065  1.00  0.00     0.013 C 
HETATM    3  C4  UNL     1      24.265   1.252  51.931  1.00  0.00    -0.067 C 
HETATM    4  C5  UNL     1      23.521   0.453  52.953  1.00  0.00     0.045 C 
HETATM    5  C6  UNL     1      23.412   1.778  50.872  1.00  0.00     0.159 C 
HETATM    6  N1  UNL     1      22.510   2.886  51.217  1.00  0.00    -0.347 N 
HETATM    7  C10 UNL     1      22.971   4.299  51.509  1.00  0.00     0.116 C 
HETATM    8  C11 UNL     1      23.387   4.307  52.947  1.00  0.00     0.037 C 
HETATM    9  C12 UNL     1      24.164   4.493  50.613  1.00  0.00    -0.029 A 
HETATM   10  C13 UNL     1      25.070   3.565  51.071  1.00  0.00     0.019 A 
HETATM   11  C14 UNL     1      26.297   3.131  50.621  1.00  0.00    -0.025 A 
HETATM   12  C15 UNL     1      26.630   3.824  49.482  1.00  0.00     0.010 A 
HETATM   13  C16 UNL     1      25.797   4.776  48.956  1.00  0.00     0.008 A 
HETATM   14  C17 UNL     1      24.579   5.134  49.477  1.00  0.00    -0.054 A 
HETATM   15  C18 UNL     1      23.524   6.088  49.113  1.00  0.00     0.049 C 
ENDROOT
BRANCH   6  16
HETATM   16  C7  UNL     1      21.066   2.736  51.320  1.00  0.00     0.172 A 
HETATM   17  N2  UNL     1      20.140   3.300  51.609  1.00  0.00    -0.200 NA
HETATM   18  C8  UNL     1      18.873   2.938  51.625  1.00  0.00     0.171 A 
HETATM   19  C9  UNL     1      18.651   1.644  51.214  1.00  0.00     0.111 A 
HETATM   20  S1  UNL     1      20.392   1.045  50.824  1.00  0.00    -0.060 SA
BRANCH  18  21
HETATM   21  O2  UNL     1      17.934   3.902  52.050  1.00  0.00    -0.344 OA
HETATM   22  H11 UNL     1      17.226   4.257  51.433  1.00  0.00     0.219 HD
ENDBRANCH  18  21
ENDBRANCH   6  16
BRANCH   1  23
HETATM   23  O1  UNL     1      27.683   2.445  52.373  1.00  0.00    -0.382 OA
HETATM   24  C1  UNL     1      27.607   1.743  53.553  1.00  0.00     0.202 C 
ENDBRANCH   1  23
TORSDOF 3
ENDMDL
MODEL 5
REMARK VINA RESULT:      -7.4      3.947      6.428
REMARK  3 active torsions:
REMARK  status: ('A' for Active; 'I' for Inactive)
REMARK    1  A    between atoms: O1_2  and  C2_3 
REMARK    2  A    between atoms: N1_8  and  C7_9 
REMARK    3  A    between atoms: C8_11  and  O2_12 
ROOT
HETATM    1  C2  UNL     1      22.956   4.863  51.759  1.00  0.00     0.177 C 
HETATM    2  C3  UNL     1      21.478   4.510  51.476  1.00  0.00     0.013 C 
HETATM    3  C4  UNL     1      20.508   3.581  51.837  1.00  0.00    -0.067 C 
HETATM    4  C5  UNL     1      19.159   3.716  51.206  1.00  0.00     0.045 C 
HETATM    5  C6  UNL     1      20.582   2.511  52.824  1.00  0.00     0.159 C 
HETATM    6  N1  UNL     1      20.576   1.128  52.326  1.00  0.00    -0.347 N 
HETATM    7  C10 UNL     1      21.729   0.487  51.583  1.00  0.00     0.116 C 
HETATM    8  C11 UNL     1      21.585   0.909  50.154  1.00  0.00     0.037 C 
HETATM    9  C12 UNL     1      22.957   1.106  52.195  1.00  0.00    -0.029 A 
HETATM   10  C13 UNL     1      22.839   2.441  51.882  1.00  0.00     0.019 A 
HETATM   11  C14 UNL     1      23.543   3.568  52.242  1.00  0.00    -0.025 A 
HETATM   12  C15 UNL     1      24.574   3.208  53.077  1.00  0.00     0.010 A 
HETATM   13  C16 UNL     1      24.778   1.902  53.437  1.00  0.00     0.008 A 
HETATM   14  C17 UNL     1      24.008   0.841  53.029  1.00  0.00    -0.054 A 
HETATM   15  C18 UNL     1      24.011  -0.608  53.269  1.00  0.00     0.049 C 
ENDROOT
BRANCH   6  16
HETATM   16  C7  UNL     1      19.446   0.227  52.490  1.00  0.00     0.172 A 
HETATM   17  N2  UNL     1      19.058  -0.589  53.156  1.00  0.00    -0.200 NA
HETATM   18  C8  UNL     1      17.950  -1.299  53.104  1.00  0.00     0.171 A 
HETATM   19  C9  UNL     1      17.125  -0.981  52.050  1.00  0.00     0.111 A 
HETATM   20  S1  UNL     1      18.088   0.388  51.189  1.00  0.00    -0.060 SA
BRANCH  18  21
HETATM   21  O2  UNL     1      17.758  -2.267  54.113  1.00  0.00    -0.344 OA
HETATM   22  H11 UNL     1      16.893  -2.339  54.617  1.00  0.00     0.219 HD
ENDBRANCH  18  21
ENDBRANCH   6  16
BRANCH   1  23
HETATM   23  O1  UNL     1      23.521   5.191  50.561  1.00  0.00    -0.382 OA
HETATM   24  C1  UNL     1      24.470   6.184  50.629  1.00  0.00     0.202 C 
ENDBRANCH   1  23
TORSDOF 3
ENDMDL
MODEL 6
REMARK VINA RESULT:      -7.4      2.069      2.284
REMARK  3 active torsions:
REMARK  status: ('A' for Active; 'I' for Inactive)
REMARK    1  A    between atoms: O1_2  and  C2_3 
REMARK    2  A    between atoms: N1_8  and  C7_9 
REMARK    3  A    between atoms: C8_11  and  O2_12 
ROOT
HETATM    1  C2  UNL     1      22.820   2.780  51.167  1.00  0.00     0.177 C 
HETATM    2  C3  UNL     1      24.361   2.745  51.052  1.00  0.00     0.013 C 
HETATM    3  C4  UNL     1      25.432   1.877  51.236  1.00  0.00    -0.067 C 
HETATM    4  C5  UNL     1      26.804   2.411  50.968  1.00  0.00     0.045 C 
HETATM    5  C6  UNL     1      25.419   0.462  51.586  1.00  0.00     0.159 C 
HETATM    6  N1  UNL     1      25.924   0.088  52.914  1.00  0.00    -0.347 N 
HETATM    7  C10 UNL     1      25.205   0.388  54.213  1.00  0.00     0.116 C 
HETATM    8  C11 UNL     1      25.568   1.796  54.569  1.00  0.00     0.037 C 
HETATM    9  C12 UNL     1      23.745   0.292  53.862  1.00  0.00    -0.029 A 
HETATM   10  C13 UNL     1      23.565   1.301  52.943  1.00  0.00     0.019 A 
HETATM   11  C14 UNL     1      22.513   1.675  52.137  1.00  0.00    -0.025 A 
HETATM   12  C15 UNL     1      21.451   0.832  52.360  1.00  0.00     0.010 A 
HETATM   13  C16 UNL     1      21.532  -0.195  53.263  1.00  0.00     0.008 A 
HETATM   14  C17 UNL     1      22.638  -0.496  54.019  1.00  0.00    -0.054 A 
HETATM   15  C18 UNL     1      22.974  -1.514  55.021  1.00  0.00     0.049 C 
ENDROOT
BRANCH   6  16
HETATM   16  C7  UNL     1      27.184  -0.610  53.121  1.00  0.00     0.172 A 
HETATM   17  N2  UNL     1      27.619  -1.643  53.187  1.00  0.00    -0.200 NA
HETATM   18  C8  UNL     1      28.854  -2.052  53.393  1.00  0.00     0.171 A 
HETATM   19  C9  UNL     1      29.767  -1.035  53.553  1.00  0.00     0.111 A 
HETATM   20  S1  UNL     1      28.689   0.499  53.381  1.00  0.00    -0.060 SA
BRANCH  18  21
HETATM   21  O2  UNL     1      29.074  -3.445  53.420  1.00  0.00    -0.344 OA
HETATM   22  H11 UNL     1      29.295  -3.928  54.273  1.00  0.00     0.219 HD
ENDBRANCH  18  21
ENDBRANCH   6  16
BRANCH   1  23
HETATM   23  O1  UNL     1      22.493   3.978  51.734  1.00  0.00    -0.382 OA
HETATM   24  C1  UNL     1      21.210   4.399  51.478  1.00  0.00     0.202 C 
ENDBRANCH   1  23
TORSDOF 3
ENDMDL
MODEL 7
REMARK VINA RESULT:      -7.3      3.682      6.447
REMARK  3 active torsions:
REMARK  status: ('A' for Active; 'I' for Inactive)
REMARK    1  A    between atoms: O1_2  and  C2_3 
REMARK    2  A    between atoms: N1_8  and  C7_9 
REMARK    3  A    between atoms: C8_11  and  O2_12 
ROOT
HETATM    1  C2  UNL     1      25.231   2.810  51.708  1.00  0.00     0.177 C 
HETATM    2  C3  UNL     1      24.070   3.630  51.099  1.00  0.00     0.013 C 
HETATM    3  C4  UNL     1      22.701   3.823  51.244  1.00  0.00    -0.067 C 
HETATM    4  C5  UNL     1      22.043   4.796  50.317  1.00  0.00     0.045 C 
HETATM    5  C6  UNL     1      21.794   3.266  52.239  1.00  0.00     0.159 C 
HETATM    6  N1  UNL     1      20.797   2.290  51.776  1.00  0.00    -0.347 N 
HETATM    7  C10 UNL     1      21.129   0.882  51.328  1.00  0.00     0.116 C 
HETATM    8  C11 UNL     1      21.555   0.994  49.897  1.00  0.00     0.037 C 
HETATM    9  C12 UNL     1      22.291   0.480  52.195  1.00  0.00    -0.029 A 
HETATM   10  C13 UNL     1      23.283   1.366  51.841  1.00  0.00     0.019 A 
HETATM   11  C14 UNL     1      24.541   1.632  52.334  1.00  0.00    -0.025 A 
HETATM   12  C15 UNL     1      24.799   0.790  53.389  1.00  0.00     0.010 A 
HETATM   13  C16 UNL     1      23.877  -0.133  53.808  1.00  0.00     0.008 A 
HETATM   14  C17 UNL     1      22.635  -0.317  53.252  1.00  0.00    -0.054 A 
HETATM   15  C18 UNL     1      21.494  -1.204  53.510  1.00  0.00     0.049 C 
ENDROOT
BRANCH   6  16
HETATM   16  C7  UNL     1      19.374   2.584  51.691  1.00  0.00     0.172 A 
HETATM   17  N2  UNL     1      18.651   3.441  51.666  1.00  0.00    -0.200 NA
HETATM   18  C8  UNL     1      17.336   3.465  51.583  1.00  0.00     0.171 A 
HETATM   19  C9  UNL     1      16.752   2.222  51.516  1.00  0.00     0.111 A 
HETATM   20  S1  UNL     1      18.244   1.076  51.582  1.00  0.00    -0.060 SA
BRANCH  18  21
HETATM   21  O2  UNL     1      16.715   4.732  51.574  1.00  0.00    -0.344 OA
HETATM   22  H11 UNL     1      16.618   5.279  52.411  1.00  0.00     0.219 HD
ENDBRANCH  18  21
ENDBRANCH   6  16
BRANCH   1  23
HETATM   23  O1  UNL     1      25.998   2.376  50.666  1.00  0.00    -0.382 OA
HETATM   24  C1  UNL     1      26.356   3.358  49.773  1.00  0.00     0.202 C 
ENDBRANCH   1  23
TORSDOF 3
ENDMDL
MODEL 8
REMARK VINA RESULT:      -7.2      2.920      4.355
REMARK  3 active torsions:
REMARK  status: ('A' for Active; 'I' for Inactive)
REMARK    1  A    between atoms: O1_2  and  C2_3 
REMARK    2  A    between atoms: N1_8  and  C7_9 
REMARK    3  A    between atoms: C8_11  and  O2_12 
ROOT
HETATM    1  C2  UNL     1      20.965   0.510  51.547  1.00  0.00     0.177 C 
HETATM    2  C3  UNL     1      21.204   1.657  50.538  1.00  0.00     0.013 C 
HETATM    3  C4  UNL     1      22.242   2.347  49.923  1.00  0.00    -0.067 C 
HETATM    4  C5  UNL     1      21.873   3.445  48.977  1.00  0.00     0.045 C 
HETATM    5  C6  UNL     1      23.678   2.107  50.001  1.00  0.00     0.159 C 
HETATM    6  N1  UNL     1      24.495   3.109  50.700  1.00  0.00    -0.347 N 
HETATM    7  C10 UNL     1      24.477   3.325  52.199  1.00  0.00     0.116 C 
HETATM    8  C11 UNL     1      23.307   4.218  52.472  1.00  0.00     0.037 C 
HETATM    9  C12 UNL     1      24.240   1.954  52.770  1.00  0.00    -0.029 A 
HETATM   10  C13 UNL     1      22.993   1.615  52.297  1.00  0.00     0.019 A 
HETATM   11  C14 UNL     1      22.242   0.462  52.336  1.00  0.00    -0.025 A 
HETATM   12  C15 UNL     1      22.939  -0.507  53.018  1.00  0.00     0.010 A 
HETATM   13  C16 UNL     1      24.183  -0.261  53.535  1.00  0.00     0.008 A 
HETATM   14  C17 UNL     1      24.858   0.930  53.435  1.00  0.00    -0.054 A 
HETATM   15  C18 UNL     1      26.163   1.434  53.881  1.00  0.00     0.049 C 
ENDROOT
BRANCH   6  16
HETATM   16  C7  UNL     1      25.410   4.010  50.015  1.00  0.00     0.172 A 
HETATM   17  N2  UNL     1      26.429   4.044  49.548  1.00  0.00    -0.200 NA
HETATM   18  C8  UNL     1      27.082   5.025  48.958  1.00  0.00     0.171 A 
HETATM   19  C9  UNL     1      26.389   6.213  48.908  1.00  0.00     0.111 A 
HETATM   20  S1  UNL     1      24.773   5.770  49.766  1.00  0.00    -0.060 SA
BRANCH  18  21
HETATM   21  O2  UNL     1      28.372   4.736  48.468  1.00  0.00    -0.344 OA
HETATM   22  H11 UNL     1      28.767   3.814  48.530  1.00  0.00     0.219 HD
ENDBRANCH  18  21
ENDBRANCH   6  16
BRANCH   1  23
HETATM   23  O1  UNL     1      19.948   0.908  52.366  1.00  0.00    -0.382 OA
HETATM   24  C1  UNL     1      19.005   1.704  51.760  1.00  0.00     0.202 C 
ENDBRANCH   1  23
TORSDOF 3
ENDMDL
MODEL 9
REMARK VINA RESULT:      -7.2      2.666      3.760
REMARK  3 active torsions:
REMARK  status: ('A' for Active; 'I' for Inactive)
REMARK    1  A    between atoms: O1_2  and  C2_3 
REMARK    2  A    between atoms: N1_8  and  C7_9 
REMARK    3  A    between atoms: C8_11  and  O2_12 
ROOT
HETATM    1  C2  UNL     1      18.681   1.237  49.703  1.00  0.00     0.177 C 
HETATM    2  C3  UNL     1      19.976   1.902  49.182  1.00  0.00     0.013 C 
HETATM    3  C4  UNL     1      21.352   1.875  49.382  1.00  0.00    -0.067 C 
HETATM    4  C5  UNL     1      22.185   2.799  48.551  1.00  0.00     0.045 C 
HETATM    5  C6  UNL     1      22.138   1.005  50.247  1.00  0.00     0.159 C 
HETATM    6  N1  UNL     1      22.787   1.618  51.415  1.00  0.00    -0.347 N 
HETATM    7  C10 UNL     1      22.044   2.117  52.637  1.00  0.00     0.116 C 
HETATM    8  C11 UNL     1      21.562   3.492  52.293  1.00  0.00     0.037 C 
HETATM    9  C12 UNL     1      20.882   1.171  52.778  1.00  0.00    -0.029 A 
HETATM   10  C13 UNL     1      20.154   1.376  51.629  1.00  0.00     0.019 A 
HETATM   11  C14 UNL     1      19.060   0.751  51.073  1.00  0.00    -0.025 A 
HETATM   12  C15 UNL     1      18.656  -0.270  51.899  1.00  0.00     0.010 A 
HETATM   13  C16 UNL     1      19.312  -0.544  53.069  1.00  0.00     0.008 A 
HETATM   14  C17 UNL     1      20.408   0.136  53.538  1.00  0.00    -0.054 A 
HETATM   15  C18 UNL     1      21.273   0.040  54.720  1.00  0.00     0.049 C 
ENDROOT
BRANCH   6  16
HETATM   16  C7  UNL     1      24.225   1.818  51.515  1.00  0.00     0.172 A 
HETATM   17  N2  UNL     1      25.048   2.492  51.157  1.00  0.00    -0.200 NA
HETATM   18  C8  UNL     1      26.345   2.476  51.390  1.00  0.00     0.171 A 
HETATM   19  C9  UNL     1      26.757   1.457  52.217  1.00  0.00     0.111 A 
HETATM   20  S1  UNL     1      25.141   0.572  52.597  1.00  0.00    -0.060 SA
BRANCH  18  21
HETATM   21  O2  UNL     1      27.120   3.483  50.777  1.00  0.00    -0.344 OA
HETATM   22  H11 UNL     1      27.895   3.261  50.178  1.00  0.00     0.219 HD
ENDBRANCH  18  21
ENDBRANCH   6  16
BRANCH   1  23
HETATM   23  O1  UNL     1      17.748   2.227  49.822  1.00  0.00    -0.382 OA
HETATM   24  C1  UNL     1      16.496   1.889  49.367  1.00  0.00     0.202 C 
ENDBRANCH   1  23
TORSDOF 3
ENDMDL
