MODEL 1
REMARK VINA RESULT:      -9.9      0.000      0.000
REMARK  5 active torsions:
REMARK  status: ('A' for Active; 'I' for Inactive)
REMARK    1  A    between atoms: C2_2  and  N1_3 
REMARK    2  A    between atoms: C2_2  and  C19_28 
REMARK    3  A    between atoms: N1_3  and  C3_4 
REMARK    4  A    between atoms: C4_5  and  C5_6 
REMARK    5  A    between atoms: C17_24  and  O4_25 
ROOT
HETATM    1  C5  UNL     1      24.868   2.471  52.407  1.00  0.00     0.104 C 
HETATM    2  C6  UNL     1      24.208   3.762  52.643  1.00  0.00     0.130 C 
HETATM    3  N2  UNL     1      23.288   4.637  52.508  1.00  0.00    -0.253 NA
HETATM    4  C7  UNL     1      22.169   4.383  51.677  1.00  0.00     0.264 C 
HETATM    5  N3  UNL     1      20.966   4.713  51.982  1.00  0.00    -0.093 NA
HETATM    6  O1  UNL     1      19.922   4.456  51.165  1.00  0.00    -0.021 OA
HETATM    7  N4  UNL     1      18.874   3.626  51.448  1.00  0.00     0.238 N 
HETATM    8  C8  UNL     1      17.988   2.516  51.584  1.00  0.00     0.390 A 
HETATM    9  O2  UNL     1      19.083   2.293  51.009  1.00  0.00    -0.120 OA
HETATM   10  C9  UNL     1      17.878   1.092  51.272  1.00  0.00     0.084 C 
HETATM   11  C10 UNL     1      19.119   0.410  50.793  1.00  0.00     0.005 C 
HETATM   12  C11 UNL     1      20.244   0.304  51.734  1.00  0.00     0.000 C 
HETATM   13  C12 UNL     1      19.995  -0.524  52.979  1.00  0.00     0.002 C 
HETATM   14  C13 UNL     1      21.201  -0.402  53.920  1.00  0.00     0.027 C 
HETATM   15  C14 UNL     1      22.482  -0.783  53.244  1.00  0.00     0.176 C 
HETATM   16  O3  UNL     1      23.569  -0.546  54.165  1.00  0.00    -0.348 OA
HETATM   17  C15 UNL     1      24.616   0.299  53.747  1.00  0.00     0.102 C 
HETATM   18  C16 UNL     1      24.122   1.396  53.121  1.00  0.00     0.053 C 
HETATM   19  C17 UNL     1      26.053   0.226  53.856  1.00  0.00     0.114 C 
HETATM   20  C18 UNL     1      26.772   1.210  53.348  1.00  0.00     0.124 C 
HETATM   21  N5  UNL     1      26.224   2.470  52.987  1.00  0.00    -0.376 N 
HETATM   22  H10 UNL     1      18.386   4.476  51.885  1.00  0.00     0.365 HD
HETATM   23  H26 UNL     1      26.860   3.298  53.175  1.00  0.00     0.160 HD
ENDROOT
BRANCH   1  24
HETATM   24  C4  UNL     1      25.050   2.129  50.986  1.00  0.00     0.030 C 
HETATM   25  C3  UNL     1      25.568   3.015  50.152  1.00  0.00     0.082 C 
BRANCH  25  26
HETATM   26  N1  UNL     1      25.965   4.313  50.581  1.00  0.00    -0.391 N 
HETATM   27  H5  UNL     1      26.524   4.475  51.468  1.00  0.00     0.159 HD
BRANCH  26  28
HETATM   28  C2  UNL     1      25.559   5.433  49.732  1.00  0.00     0.110 C 
HETATM   29  C1  UNL     1      24.451   5.042  48.784  1.00  0.00     0.037 C 
BRANCH  28  30
HETATM   30  C19 UNL     1      26.694   5.933  48.923  1.00  0.00    -0.036 A 
HETATM   31  C20 UNL     1      26.596   7.168  48.284  1.00  0.00     0.009 A 
HETATM   32  C21 UNL     1      27.675   7.606  47.537  1.00  0.00     0.001 A 
HETATM   33  C22 UNL     1      28.827   6.865  47.406  1.00  0.00     0.000 A 
HETATM   34  C23 UNL     1      28.951   5.630  48.032  1.00  0.00     0.001 A 
HETATM   35  C24 UNL     1      27.851   5.207  48.781  1.00  0.00     0.009 A 
ENDBRANCH  28  30
ENDBRANCH  26  28
ENDBRANCH  25  26
ENDBRANCH   1  24
BRANCH  19  36
HETATM   36  O4  UNL     1      26.455  -0.923  54.506  1.00  0.00    -0.357 OA
HETATM   37  H24 UNL     1      25.958  -1.779  54.237  1.00  0.00     0.218 HD
ENDBRANCH  19  36
TORSDOF 5
ENDMDL
MODEL 2
REMARK VINA RESULT:      -9.2      1.153      2.095
REMARK  5 active torsions:
REMARK  status: ('A' for Active; 'I' for Inactive)
REMARK    1  A    between atoms: C2_2  and  N1_3 
REMARK    2  A    between atoms: C2_2  and  C19_28 
REMARK    3  A    between atoms: N1_3  and  C3_4 
REMARK    4  A    between atoms: C4_5  and  C5_6 
REMARK    5  A    between atoms: C17_24  and  O4_25 
ROOT
HETATM    1  C5  UNL     1      25.176   2.605  52.149  1.00  0.00     0.104 C 
HETATM    2  C6  UNL     1      24.501   3.899  52.312  1.00  0.00     0.130 C 
HETATM    3  N2  UNL     1      23.559   4.744  52.151  1.00  0.00    -0.253 NA
HETATM    4  C7  UNL     1      22.408   4.406  51.397  1.00  0.00     0.264 C 
HETATM    5  N3  UNL     1      21.214   4.738  51.730  1.00  0.00    -0.093 NA
HETATM    6  O1  UNL     1      20.140   4.400  50.986  1.00  0.00    -0.021 OA
HETATM    7  N4  UNL     1      19.122   3.577  51.383  1.00  0.00     0.238 N 
HETATM    8  C8  UNL     1      18.267   2.467  51.649  1.00  0.00     0.390 A 
HETATM    9  O2  UNL     1      19.339   2.217  51.043  1.00  0.00    -0.120 OA
HETATM   10  C9  UNL     1      18.171   1.021  51.456  1.00  0.00     0.084 C 
HETATM   11  C10 UNL     1      19.403   0.323  50.976  1.00  0.00     0.005 C 
HETATM   12  C11 UNL     1      20.572   0.312  51.868  1.00  0.00     0.000 C 
HETATM   13  C12 UNL     1      20.396  -0.416  53.185  1.00  0.00     0.002 C 
HETATM   14  C13 UNL     1      21.642  -0.199  54.056  1.00  0.00     0.027 C 
HETATM   15  C14 UNL     1      22.898  -0.612  53.353  1.00  0.00     0.176 C 
HETATM   16  O3  UNL     1      24.020  -0.284  54.200  1.00  0.00    -0.348 OA
HETATM   17  C15 UNL     1      25.030   0.543  53.668  1.00  0.00     0.102 C 
HETATM   18  C16 UNL     1      24.486   1.577  52.980  1.00  0.00     0.053 C 
HETATM   19  C17 UNL     1      26.472   0.503  53.714  1.00  0.00     0.114 C 
HETATM   20  C18 UNL     1      27.146   1.455  53.096  1.00  0.00     0.124 C 
HETATM   21  N5  UNL     1      26.557   2.672  52.662  1.00  0.00    -0.376 N 
HETATM   22  H10 UNL     1      18.637   4.451  51.774  1.00  0.00     0.365 HD
HETATM   23  H26 UNL     1      27.184   3.523  52.754  1.00  0.00     0.160 HD
ENDROOT
BRANCH   1  24
HETATM   24  C4  UNL     1      25.300   2.152  50.752  1.00  0.00     0.030 C 
HETATM   25  C3  UNL     1      25.756   2.979  49.825  1.00  0.00     0.082 C 
BRANCH  25  26
HETATM   26  N1  UNL     1      26.139   4.316  50.130  1.00  0.00    -0.391 N 
HETATM   27  H5  UNL     1      26.478   4.607  51.092  1.00  0.00     0.159 HD
BRANCH  26  28
HETATM   28  C2  UNL     1      26.040   5.286  49.040  1.00  0.00     0.110 C 
HETATM   29  C1  UNL     1      27.350   6.002  48.808  1.00  0.00     0.037 C 
BRANCH  28  30
HETATM   30  C19 UNL     1      25.006   6.309  49.322  1.00  0.00    -0.036 A 
HETATM   31  C20 UNL     1      25.206   7.227  50.351  1.00  0.00     0.009 A 
HETATM   32  C21 UNL     1      24.220   8.170  50.587  1.00  0.00     0.001 A 
HETATM   33  C22 UNL     1      23.063   8.224  49.844  1.00  0.00     0.000 A 
HETATM   34  C23 UNL     1      22.840   7.320  48.812  1.00  0.00     0.001 A 
HETATM   35  C24 UNL     1      23.845   6.378  48.591  1.00  0.00     0.009 A 
ENDBRANCH  28  30
ENDBRANCH  26  28
ENDBRANCH  25  26
ENDBRANCH   1  24
BRANCH  19  36
HETATM   36  O4  UNL     1      26.927  -0.583  54.434  1.00  0.00    -0.357 OA
HETATM   37  H24 UNL     1      26.247  -1.000  55.079  1.00  0.00     0.218 HD
ENDBRANCH  19  36
TORSDOF 5
ENDMDL
MODEL 3
REMARK VINA RESULT:      -9.0      2.583      5.411
REMARK  5 active torsions:
REMARK  status: ('A' for Active; 'I' for Inactive)
REMARK    1  A    between atoms: C2_2  and  N1_3 
REMARK    2  A    between atoms: C2_2  and  C19_28 
REMARK    3  A    between atoms: N1_3  and  C3_4 
REMARK    4  A    between atoms: C4_5  and  C5_6 
REMARK    5  A    between atoms: C17_24  and  O4_25 
ROOT
HETATM    1  C5  UNL     1      24.218   4.953  49.254  1.00  0.00     0.104 C 
HETATM    2  C6  UNL     1      25.532   4.307  49.370  1.00  0.00     0.130 C 
HETATM    3  N2  UNL     1      26.431   3.599  49.936  1.00  0.00    -0.253 NA
HETATM    4  C7  UNL     1      26.195   3.014  51.205  1.00  0.00     0.264 C 
HETATM    5  N3  UNL     1      26.565   1.827  51.522  1.00  0.00    -0.093 NA
HETATM    6  O1  UNL     1      26.324   1.302  52.743  1.00  0.00    -0.021 OA
HETATM    7  N4  UNL     1      25.530   0.219  53.002  1.00  0.00     0.238 N 
HETATM    8  C8  UNL     1      24.449  -0.660  53.310  1.00  0.00     0.390 A 
HETATM    9  O2  UNL     1      24.184   0.568  53.281  1.00  0.00    -0.120 OA
HETATM   10  C9  UNL     1      23.024  -0.654  53.633  1.00  0.00     0.084 C 
HETATM   11  C10 UNL     1      22.296   0.639  53.449  1.00  0.00     0.005 C 
HETATM   12  C11 UNL     1      22.175   1.163  52.080  1.00  0.00     0.000 C 
HETATM   13  C12 UNL     1      21.379   0.313  51.110  1.00  0.00     0.002 C 
HETATM   14  C13 UNL     1      21.482   0.915  49.703  1.00  0.00     0.027 C 
HETATM   15  C14 UNL     1      21.051   2.350  49.671  1.00  0.00     0.176 C 
HETATM   16  O3  UNL     1      21.273   2.861  48.340  1.00  0.00    -0.348 OA
HETATM   17  C15 UNL     1      22.080   4.009  48.199  1.00  0.00     0.102 C 
HETATM   18  C16 UNL     1      23.179   3.919  48.989  1.00  0.00     0.053 C 
HETATM   19  C17 UNL     1      21.967   5.210  47.407  1.00  0.00     0.114 C 
HETATM   20  C18 UNL     1      22.919   6.118  47.505  1.00  0.00     0.124 C 
HETATM   21  N5  UNL     1      24.188   5.858  48.089  1.00  0.00    -0.376 N 
HETATM   22  H10 UNL     1      26.402  -0.390  52.858  1.00  0.00     0.365 HD
HETATM   23  H26 UNL     1      25.000   6.352  47.618  1.00  0.00     0.160 HD
ENDROOT
BRANCH   1  24
HETATM   24  C4  UNL     1      23.844   5.789  50.408  1.00  0.00     0.030 C 
HETATM   25  C3  UNL     1      24.717   6.642  50.919  1.00  0.00     0.082 C 
BRANCH  25  26
HETATM   26  N1  UNL     1      26.030   6.786  50.389  1.00  0.00    -0.391 N 
HETATM   27  H5  UNL     1      26.674   5.959  50.224  1.00  0.00     0.159 HD
BRANCH  26  28
HETATM   28  C2  UNL     1      26.460   8.149  50.077  1.00  0.00     0.110 C 
HETATM   29  C1  UNL     1      25.342   8.964  49.473  1.00  0.00     0.037 C 
BRANCH  28  30
HETATM   30  C19 UNL     1      27.592   8.151  49.121  1.00  0.00    -0.036 A 
HETATM   31  C20 UNL     1      27.640   7.197  48.106  1.00  0.00     0.009 A 
HETATM   32  C21 UNL     1      28.711   7.228  47.230  1.00  0.00     0.001 A 
HETATM   33  C22 UNL     1      29.717   8.161  47.332  1.00  0.00     0.000 A 
HETATM   34  C23 UNL     1      29.693   9.123  48.336  1.00  0.00     0.001 A 
HETATM   35  C24 UNL     1      28.605   9.074  49.209  1.00  0.00     0.009 A 
ENDBRANCH  28  30
ENDBRANCH  26  28
ENDBRANCH  25  26
ENDBRANCH   1  24
BRANCH  19  36
HETATM   36  O4  UNL     1      20.818   5.206  46.641  1.00  0.00    -0.357 OA
HETATM   37  H24 UNL     1      20.017   4.713  47.050  1.00  0.00     0.218 HD
ENDBRANCH  19  36
TORSDOF 5
ENDMDL
MODEL 4
REMARK VINA RESULT:      -8.6      2.401      3.590
REMARK  5 active torsions:
REMARK  status: ('A' for Active; 'I' for Inactive)
REMARK    1  A    between atoms: C2_2  and  N1_3 
REMARK    2  A    between atoms: C2_2  and  C19_28 
REMARK    3  A    between atoms: N1_3  and  C3_4 
REMARK    4  A    between atoms: C4_5  and  C5_6 
REMARK    5  A    between atoms: C17_24  and  O4_25 
ROOT
HETATM    1  C5  UNL     1      21.345   1.249  52.430  1.00  0.00     0.104 C 
HETATM    2  C6  UNL     1      20.842   2.629  52.446  1.00  0.00     0.130 C 
HETATM    3  N2  UNL     1      20.114   3.603  52.058  1.00  0.00    -0.253 NA
HETATM    4  C7  UNL     1      19.193   3.435  50.994  1.00  0.00     0.264 C 
HETATM    5  N3  UNL     1      18.014   3.940  50.987  1.00  0.00    -0.093 NA
HETATM    6  O1  UNL     1      17.161   3.761  49.955  1.00  0.00    -0.021 OA
HETATM    7  N4  UNL     1      15.968   3.097  50.013  1.00  0.00     0.238 N 
HETATM    8  C8  UNL     1      14.924   2.125  49.979  1.00  0.00     0.390 A 
HETATM    9  O2  UNL     1      16.078   1.719  49.694  1.00  0.00    -0.120 OA
HETATM   10  C9  UNL     1      14.685   0.708  49.710  1.00  0.00     0.084 C 
HETATM   11  C10 UNL     1      15.891  -0.164  49.572  1.00  0.00     0.005 C 
HETATM   12  C11 UNL     1      16.741  -0.344  50.759  1.00  0.00     0.000 C 
HETATM   13  C12 UNL     1      16.093  -1.036  51.942  1.00  0.00     0.002 C 
HETATM   14  C13 UNL     1      17.053  -1.002  53.138  1.00  0.00     0.027 C 
HETATM   15  C14 UNL     1      18.388  -1.596  52.806  1.00  0.00     0.176 C 
HETATM   16  O3  UNL     1      19.254  -1.434  53.950  1.00  0.00    -0.348 OA
HETATM   17  C15 UNL     1      20.480  -0.765  53.761  1.00  0.00     0.102 C 
HETATM   18  C16 UNL     1      20.308   0.336  52.988  1.00  0.00     0.053 C 
HETATM   19  C17 UNL     1      21.827  -1.016  54.213  1.00  0.00     0.114 C 
HETATM   20  C18 UNL     1      22.778  -0.175  53.852  1.00  0.00     0.124 C 
HETATM   21  N5  UNL     1      22.516   1.115  53.317  1.00  0.00    -0.376 N 
HETATM   22  H10 UNL     1      15.519   4.034  50.284  1.00  0.00     0.365 HD
HETATM   23  H26 UNL     1      23.204   1.865  53.617  1.00  0.00     0.160 HD
ENDROOT
BRANCH   1  24
HETATM   24  C4  UNL     1      21.801   0.781  51.109  1.00  0.00     0.030 C 
HETATM   25  C3  UNL     1      22.522   1.575  50.336  1.00  0.00     0.082 C 
BRANCH  25  26
HETATM   26  N1  UNL     1      22.884   2.892  50.737  1.00  0.00    -0.391 N 
HETATM   27  H5  UNL     1      23.076   3.149  51.749  1.00  0.00     0.159 HD
BRANCH  26  28
HETATM   28  C2  UNL     1      22.977   3.894  49.676  1.00  0.00     0.110 C 
HETATM   29  C1  UNL     1      22.387   3.391  48.379  1.00  0.00     0.037 C 
BRANCH  28  30
HETATM   30  C19 UNL     1      24.386   4.274  49.416  1.00  0.00    -0.036 A 
HETATM   31  C20 UNL     1      24.682   5.553  48.951  1.00  0.00     0.009 A 
HETATM   32  C21 UNL     1      26.008   5.875  48.720  1.00  0.00     0.001 A 
HETATM   33  C22 UNL     1      27.029   4.978  48.933  1.00  0.00     0.000 A 
HETATM   34  C23 UNL     1      26.761   3.695  49.396  1.00  0.00     0.001 A 
HETATM   35  C24 UNL     1      25.417   3.391  49.622  1.00  0.00     0.009 A 
ENDBRANCH  28  30
ENDBRANCH  26  28
ENDBRANCH  25  26
ENDBRANCH   1  24
BRANCH  19  36
HETATM   36  O4  UNL     1      21.898  -2.156  54.989  1.00  0.00    -0.357 OA
HETATM   37  H24 UNL     1      21.012  -2.461  55.406  1.00  0.00     0.218 HD
ENDBRANCH  19  36
TORSDOF 5
ENDMDL
MODEL 5
REMARK VINA RESULT:      -8.5      2.858      4.634
REMARK  5 active torsions:
REMARK  status: ('A' for Active; 'I' for Inactive)
REMARK    1  A    between atoms: C2_2  and  N1_3 
REMARK    2  A    between atoms: C2_2  and  C19_28 
REMARK    3  A    between atoms: N1_3  and  C3_4 
REMARK    4  A    between atoms: C4_5  and  C5_6 
REMARK    5  A    between atoms: C17_24  and  O4_25 
ROOT
HETATM    1  C5  UNL     1      23.580   4.244  49.895  1.00  0.00     0.104 C 
HETATM    2  C6  UNL     1      22.452   4.758  50.683  1.00  0.00     0.130 C 
HETATM    3  N2  UNL     1      21.395   4.667  51.392  1.00  0.00    -0.253 NA
HETATM    4  C7  UNL     1      20.839   3.400  51.697  1.00  0.00     0.264 C 
HETATM    5  N3  UNL     1      20.356   3.091  52.845  1.00  0.00    -0.093 NA
HETATM    6  O1  UNL     1      19.833   1.873  53.101  1.00  0.00    -0.021 OA
HETATM    7  N4  UNL     1      20.324   0.967  53.999  1.00  0.00     0.238 N 
HETATM    8  C8  UNL     1      21.018  -0.096  54.650  1.00  0.00     0.390 A 
HETATM    9  O2  UNL     1      21.246   0.054  53.424  1.00  0.00    -0.120 OA
HETATM   10  C9  UNL     1      21.978  -1.167  54.390  1.00  0.00     0.084 C 
HETATM   11  C10 UNL     1      22.671  -1.144  53.066  1.00  0.00     0.005 C 
HETATM   12  C11 UNL     1      23.575  -0.017  52.789  1.00  0.00     0.000 C 
HETATM   13  C12 UNL     1      24.792   0.094  53.684  1.00  0.00     0.002 C 
HETATM   14  C13 UNL     1      25.537   1.399  53.369  1.00  0.00     0.027 C 
HETATM   15  C14 UNL     1      25.899   1.504  51.919  1.00  0.00     0.176 C 
HETATM   16  O3  UNL     1      26.503   2.795  51.695  1.00  0.00    -0.348 OA
HETATM   17  C15 UNL     1      25.932   3.631  50.714  1.00  0.00     0.102 C 
HETATM   18  C16 UNL     1      24.579   3.619  50.808  1.00  0.00     0.053 C 
HETATM   19  C17 UNL     1      26.487   4.463  49.674  1.00  0.00     0.114 C 
HETATM   20  C18 UNL     1      25.657   5.140  48.903  1.00  0.00     0.124 C 
HETATM   21  N5  UNL     1      24.289   5.348  49.223  1.00  0.00    -0.376 N 
HETATM   22  H10 UNL     1      19.707   1.441  54.737  1.00  0.00     0.365 HD
HETATM   23  H26 UNL     1      23.910   6.298  48.940  1.00  0.00     0.160 HD
ENDROOT
BRANCH   1  24
HETATM   24  C4  UNL     1      23.199   3.312  48.819  1.00  0.00     0.030 C 
HETATM   25  C3  UNL     1      22.172   3.592  48.033  1.00  0.00     0.082 C 
BRANCH  25  26
HETATM   26  N1  UNL     1      21.405   4.781  48.188  1.00  0.00    -0.391 N 
HETATM   27  H5  UNL     1      20.886   5.012  49.084  1.00  0.00     0.159 HD
BRANCH  26  28
HETATM   28  C2  UNL     1      21.363   5.684  47.039  1.00  0.00     0.110 C 
HETATM   29  C1  UNL     1      21.951   5.044  45.803  1.00  0.00     0.037 C 
BRANCH  28  30
HETATM   30  C19 UNL     1      22.115   6.932  47.306  1.00  0.00    -0.036 A 
HETATM   31  C20 UNL     1      21.748   7.743  48.378  1.00  0.00     0.009 A 
HETATM   32  C21 UNL     1      22.473   8.902  48.599  1.00  0.00     0.001 A 
HETATM   33  C22 UNL     1      23.530   9.271  47.800  1.00  0.00     0.000 A 
HETATM   34  C23 UNL     1      23.915   8.480  46.724  1.00  0.00     0.001 A 
HETATM   35  C24 UNL     1      23.172   7.316  46.518  1.00  0.00     0.009 A 
ENDBRANCH  28  30
ENDBRANCH  26  28
ENDBRANCH  25  26
ENDBRANCH   1  24
BRANCH  19  36
HETATM   36  O4  UNL     1      27.866   4.406  49.660  1.00  0.00    -0.357 OA
HETATM   37  H24 UNL     1      28.329   4.717  50.521  1.00  0.00     0.218 HD
ENDBRANCH  19  36
TORSDOF 5
ENDMDL
MODEL 6
REMARK VINA RESULT:      -8.5      3.343      7.579
REMARK  5 active torsions:
REMARK  status: ('A' for Active; 'I' for Inactive)
REMARK    1  A    between atoms: C2_2  and  N1_3 
REMARK    2  A    between atoms: C2_2  and  C19_28 
REMARK    3  A    between atoms: N1_3  and  C3_4 
REMARK    4  A    between atoms: C4_5  and  C5_6 
REMARK    5  A    between atoms: C17_24  and  O4_25 
ROOT
HETATM    1  C5  UNL     1      24.111   3.945  50.189  1.00  0.00     0.104 C 
HETATM    2  C6  UNL     1      22.891   3.317  49.666  1.00  0.00     0.130 C 
HETATM    3  N2  UNL     1      21.644   3.246  49.401  1.00  0.00    -0.253 NA
HETATM    4  C7  UNL     1      20.773   4.309  49.745  1.00  0.00     0.264 C 
HETATM    5  N3  UNL     1      19.825   4.728  48.988  1.00  0.00    -0.093 NA
HETATM    6  O1  UNL     1      19.012   5.744  49.349  1.00  0.00    -0.021 OA
HETATM    7  N4  UNL     1      18.918   6.952  48.717  1.00  0.00     0.238 N 
HETATM    8  C8  UNL     1      19.072   8.306  48.294  1.00  0.00     0.390 A 
HETATM    9  O2  UNL     1      19.790   7.933  49.255  1.00  0.00    -0.120 OA
HETATM   10  C9  UNL     1      19.822   9.523  48.597  1.00  0.00     0.084 C 
HETATM   11  C10 UNL     1      20.971   9.388  49.544  1.00  0.00     0.005 C 
HETATM   12  C11 UNL     1      22.115   8.570  49.114  1.00  0.00     0.000 C 
HETATM   13  C12 UNL     1      22.876   9.073  47.904  1.00  0.00     0.002 C 
HETATM   14  C13 UNL     1      23.928   8.032  47.497  1.00  0.00     0.027 C 
HETATM   15  C14 UNL     1      24.846   7.687  48.629  1.00  0.00     0.176 C 
HETATM   16  O3  UNL     1      25.734   6.637  48.189  1.00  0.00    -0.348 OA
HETATM   17  C15 UNL     1      25.775   5.448  48.944  1.00  0.00     0.102 C 
HETATM   18  C16 UNL     1      24.522   5.058  49.288  1.00  0.00     0.053 C 
HETATM   19  C17 UNL     1      26.849   4.599  49.401  1.00  0.00     0.114 C 
HETATM   20  C18 UNL     1      26.544   3.527  50.107  1.00  0.00     0.124 C 
HETATM   21  N5  UNL     1      25.232   2.987  50.178  1.00  0.00    -0.376 N 
HETATM   22  H10 UNL     1      18.167   6.509  48.092  1.00  0.00     0.365 HD
HETATM   23  H26 UNL     1      25.193   1.927  50.217  1.00  0.00     0.160 HD
ENDROOT
BRANCH   1  24
HETATM   24  C4  UNL     1      24.008   4.410  51.584  1.00  0.00     0.030 C 
HETATM   25  C3  UNL     1      23.578   3.588  52.527  1.00  0.00     0.082 C 
BRANCH  25  26
HETATM   26  N1  UNL     1      23.202   2.245  52.243  1.00  0.00    -0.391 N 
HETATM   27  H5  UNL     1      22.638   1.980  51.384  1.00  0.00     0.159 HD
BRANCH  26  28
HETATM   28  C2  UNL     1      23.633   1.231  53.204  1.00  0.00     0.110 C 
HETATM   29  C1  UNL     1      24.802   0.428  52.684  1.00  0.00     0.037 C 
BRANCH  28  30
HETATM   30  C19 UNL     1      22.536   0.285  53.517  1.00  0.00    -0.036 A 
HETATM   31  C20 UNL     1      21.246   0.549  53.063  1.00  0.00     0.009 A 
HETATM   32  C21 UNL     1      20.245  -0.356  53.373  1.00  0.00     0.001 A 
HETATM   33  C22 UNL     1      20.486  -1.492  54.110  1.00  0.00     0.000 A 
HETATM   34  C23 UNL     1      21.764  -1.779  54.575  1.00  0.00     0.001 A 
HETATM   35  C24 UNL     1      22.758  -0.854  54.251  1.00  0.00     0.009 A 
ENDBRANCH  28  30
ENDBRANCH  26  28
ENDBRANCH  25  26
ENDBRANCH   1  24
BRANCH  19  36
HETATM   36  O4  UNL     1      28.080   5.080  49.003  1.00  0.00    -0.357 OA
HETATM   37  H24 UNL     1      28.644   5.514  49.742  1.00  0.00     0.218 HD
ENDBRANCH  19  36
TORSDOF 5
ENDMDL
MODEL 7
REMARK VINA RESULT:      -8.2      3.058      8.032
REMARK  5 active torsions:
REMARK  status: ('A' for Active; 'I' for Inactive)
REMARK    1  A    between atoms: C2_2  and  N1_3 
REMARK    2  A    between atoms: C2_2  and  C19_28 
REMARK    3  A    between atoms: N1_3  and  C3_4 
REMARK    4  A    between atoms: C4_5  and  C5_6 
REMARK    5  A    between atoms: C17_24  and  O4_25 
ROOT
HETATM    1  C5  UNL     1      22.679   1.782  51.441  1.00  0.00     0.104 C 
HETATM    2  C6  UNL     1      22.051   1.109  50.297  1.00  0.00     0.130 C 
HETATM    3  N2  UNL     1      21.327   1.037  49.248  1.00  0.00    -0.253 NA
HETATM    4  C7  UNL     1      20.658   2.183  48.753  1.00  0.00     0.264 C 
HETATM    5  N3  UNL     1      20.567   2.472  47.506  1.00  0.00    -0.093 NA
HETATM    6  O1  UNL     1      19.921   3.575  47.069  1.00  0.00    -0.021 OA
HETATM    7  N4  UNL     1      20.494   4.626  46.410  1.00  0.00     0.238 N 
HETATM    8  C8  UNL     1      21.128   5.854  46.055  1.00  0.00     0.390 A 
HETATM    9  O2  UNL     1      20.925   5.661  47.279  1.00  0.00    -0.120 OA
HETATM   10  C9  UNL     1      21.674   7.075  46.644  1.00  0.00     0.084 C 
HETATM   11  C10 UNL     1      21.830   7.094  48.130  1.00  0.00     0.005 C 
HETATM   12  C11 UNL     1      22.794   6.157  48.726  1.00  0.00     0.000 C 
HETATM   13  C12 UNL     1      24.246   6.362  48.342  1.00  0.00     0.002 C 
HETATM   14  C13 UNL     1      25.090   5.217  48.916  1.00  0.00     0.027 C 
HETATM   15  C14 UNL     1      24.919   5.079  50.398  1.00  0.00     0.176 C 
HETATM   16  O3  UNL     1      25.666   3.925  50.836  1.00  0.00    -0.348 OA
HETATM   17  C15 UNL     1      24.975   2.919  51.542  1.00  0.00     0.102 C 
HETATM   18  C16 UNL     1      23.779   2.663  50.957  1.00  0.00     0.053 C 
HETATM   19  C17 UNL     1      25.284   2.142  52.717  1.00  0.00     0.114 C 
HETATM   20  C18 UNL     1      24.400   1.255  53.133  1.00  0.00     0.124 C 
HETATM   21  N5  UNL     1      23.319   0.797  52.333  1.00  0.00    -0.376 N 
HETATM   22  H10 UNL     1      20.302   4.093  45.499  1.00  0.00     0.365 HD
HETATM   23  H26 UNL     1      23.078  -0.229  52.462  1.00  0.00     0.160 HD
ENDROOT
BRANCH   1  24
HETATM   24  C4  UNL     1      21.743   2.533  52.297  1.00  0.00     0.030 C 
HETATM   25  C3  UNL     1      20.641   1.953  52.743  1.00  0.00     0.082 C 
BRANCH  25  26
HETATM   26  N1  UNL     1      20.316   0.605  52.423  1.00  0.00    -0.391 N 
HETATM   27  H5  UNL     1      20.359   0.227  51.433  1.00  0.00     0.159 HD
BRANCH  26  28
HETATM   28  C2  UNL     1      19.911  -0.250  53.538  1.00  0.00     0.110 C 
HETATM   29  C1  UNL     1      20.984  -1.251  53.895  1.00  0.00     0.037 C 
BRANCH  28  30
HETATM   30  C19 UNL     1      18.675  -1.003  53.219  1.00  0.00    -0.036 A 
HETATM   31  C20 UNL     1      17.723  -0.440  52.371  1.00  0.00     0.009 A 
HETATM   32  C21 UNL     1      16.581  -1.171  52.093  1.00  0.00     0.001 A 
HETATM   33  C22 UNL     1      16.362  -2.420  52.626  1.00  0.00     0.000 A 
HETATM   34  C23 UNL     1      17.295  -3.004  53.475  1.00  0.00     0.001 A 
HETATM   35  C24 UNL     1      18.439  -2.251  53.742  1.00  0.00     0.009 A 
ENDBRANCH  28  30
ENDBRANCH  26  28
ENDBRANCH  25  26
ENDBRANCH   1  24
BRANCH  19  36
HETATM   36  O4  UNL     1      26.518   2.477  53.238  1.00  0.00    -0.357 OA
HETATM   37  H24 UNL     1      26.959   1.759  53.824  1.00  0.00     0.218 HD
ENDBRANCH  19  36
TORSDOF 5
ENDMDL
MODEL 8
REMARK VINA RESULT:      -8.1      3.286      8.983
REMARK  5 active torsions:
REMARK  status: ('A' for Active; 'I' for Inactive)
REMARK    1  A    between atoms: C2_2  and  N1_3 
REMARK    2  A    between atoms: C2_2  and  C19_28 
REMARK    3  A    between atoms: N1_3  and  C3_4 
REMARK    4  A    between atoms: C4_5  and  C5_6 
REMARK    5  A    between atoms: C17_24  and  O4_25 
ROOT
HETATM    1  C5  UNL     1      22.942   5.119  49.620  1.00  0.00     0.104 C 
HETATM    2  C6  UNL     1      23.993   4.360  50.311  1.00  0.00     0.130 C 
HETATM    3  N2  UNL     1      25.160   3.867  50.460  1.00  0.00    -0.253 NA
HETATM    4  C7  UNL     1      26.158   4.067  49.474  1.00  0.00     0.264 C 
HETATM    5  N3  UNL     1      27.387   4.316  49.745  1.00  0.00    -0.093 NA
HETATM    6  O1  UNL     1      28.313   4.501  48.779  1.00  0.00    -0.021 OA
HETATM    7  N4  UNL     1      29.003   5.658  48.546  1.00  0.00     0.238 N 
HETATM    8  C8  UNL     1      29.450   6.931  48.081  1.00  0.00     0.390 A 
HETATM    9  O2  UNL     1      28.369   6.506  47.602  1.00  0.00    -0.120 OA
HETATM   10  C9  UNL     1      29.080   8.014  47.172  1.00  0.00     0.084 C 
HETATM   11  C10 UNL     1      27.701   7.969  46.597  1.00  0.00     0.005 C 
HETATM   12  C11 UNL     1      26.570   8.116  47.527  1.00  0.00     0.000 C 
HETATM   13  C12 UNL     1      26.472   9.444  48.250  1.00  0.00     0.002 C 
HETATM   14  C13 UNL     1      25.344   9.375  49.288  1.00  0.00     0.027 C 
HETATM   15  C14 UNL     1      24.037   8.977  48.672  1.00  0.00     0.176 C 
HETATM   16  O3  UNL     1      23.061   8.841  49.727  1.00  0.00    -0.348 OA
HETATM   17  C15 UNL     1      22.383   7.612  49.846  1.00  0.00     0.102 C 
HETATM   18  C16 UNL     1      23.246   6.575  49.702  1.00  0.00     0.053 C 
HETATM   19  C17 UNL     1      21.004   7.258  50.083  1.00  0.00     0.114 C 
HETATM   20  C18 UNL     1      20.686   5.978  50.142  1.00  0.00     0.124 C 
HETATM   21  N5  UNL     1      21.645   4.943  50.299  1.00  0.00    -0.376 N 
HETATM   22  H10 UNL     1      29.734   5.302  49.247  1.00  0.00     0.365 HD
HETATM   23  H26 UNL     1      21.322   4.131  50.902  1.00  0.00     0.160 HD
ENDROOT
BRANCH   1  24
HETATM   24  C4  UNL     1      22.711   4.709  48.224  1.00  0.00     0.030 C 
HETATM   25  C3  UNL     1      22.638   3.425  47.913  1.00  0.00     0.082 C 
BRANCH  25  26
HETATM   26  N1  UNL     1      22.777   2.403  48.894  1.00  0.00    -0.391 N 
HETATM   27  H5  UNL     1      23.643   2.306  49.499  1.00  0.00     0.159 HD
BRANCH  26  28
HETATM   28  C2  UNL     1      21.655   1.475  49.031  1.00  0.00     0.110 C 
HETATM   29  C1  UNL     1      20.364   2.080  48.531  1.00  0.00     0.037 C 
BRANCH  28  30
HETATM   30  C19 UNL     1      21.453   1.080  50.444  1.00  0.00    -0.036 A 
HETATM   31  C20 UNL     1      20.210   0.606  50.859  1.00  0.00     0.009 A 
HETATM   32  C21 UNL     1      20.056   0.245  52.186  1.00  0.00     0.001 A 
HETATM   33  C22 UNL     1      21.083   0.341  53.096  1.00  0.00     0.000 A 
HETATM   34  C23 UNL     1      22.333   0.810  52.709  1.00  0.00     0.001 A 
HETATM   35  C24 UNL     1      22.466   1.169  51.367  1.00  0.00     0.009 A 
ENDBRANCH  28  30
ENDBRANCH  26  28
ENDBRANCH  25  26
ENDBRANCH   1  24
BRANCH  19  36
HETATM   36  O4  UNL     1      20.208   8.378  50.214  1.00  0.00    -0.357 OA
HETATM   37  H24 UNL     1      20.687   9.223  50.542  1.00  0.00     0.218 HD
ENDBRANCH  19  36
TORSDOF 5
ENDMDL
MODEL 9
REMARK VINA RESULT:      -8.0      2.030      5.554
REMARK  5 active torsions:
REMARK  status: ('A' for Active; 'I' for Inactive)
REMARK    1  A    between atoms: C2_2  and  N1_3 
REMARK    2  A    between atoms: C2_2  and  C19_28 
REMARK    3  A    between atoms: N1_3  and  C3_4 
REMARK    4  A    between atoms: C4_5  and  C5_6 
REMARK    5  A    between atoms: C17_24  and  O4_25 
ROOT
HETATM    1  C5  UNL     1      22.232   3.254  50.796  1.00  0.00     0.104 C 
HETATM    2  C6  UNL     1      23.421   3.349  49.940  1.00  0.00     0.130 C 
HETATM    3  N2  UNL     1      24.672   3.403  49.694  1.00  0.00    -0.253 NA
HETATM    4  C7  UNL     1      25.617   3.363  50.750  1.00  0.00     0.264 C 
HETATM    5  N3  UNL     1      26.716   2.703  50.697  1.00  0.00    -0.093 NA
HETATM    6  O1  UNL     1      27.594   2.687  51.723  1.00  0.00    -0.021 OA
HETATM    7  N4  UNL     1      27.946   1.587  52.454  1.00  0.00     0.238 N 
HETATM    8  C8  UNL     1      28.042   0.547  53.426  1.00  0.00     0.390 A 
HETATM    9  O2  UNL     1      27.142   1.404  53.609  1.00  0.00    -0.120 OA
HETATM   10  C9  UNL     1      27.425   0.074  54.664  1.00  0.00     0.084 C 
HETATM   11  C10 UNL     1      26.139   0.720  55.065  1.00  0.00     0.005 C 
HETATM   12  C11 UNL     1      24.973   0.518  54.191  1.00  0.00     0.000 C 
HETATM   13  C12 UNL     1      24.480  -0.910  54.061  1.00  0.00     0.002 C 
HETATM   14  C13 UNL     1      23.371  -0.969  53.001  1.00  0.00     0.027 C 
HETATM   15  C14 UNL     1      22.254  -0.018  53.302  1.00  0.00     0.176 C 
HETATM   16  O3  UNL     1      21.310  -0.067  52.211  1.00  0.00    -0.348 OA
HETATM   17  C15 UNL     1      20.994   1.139  51.555  1.00  0.00     0.102 C 
HETATM   18  C16 UNL     1      22.116   1.868  51.333  1.00  0.00     0.053 C 
HETATM   19  C17 UNL     1      19.759   1.723  51.091  1.00  0.00     0.114 C 
HETATM   20  C18 UNL     1      19.806   2.900  50.497  1.00  0.00     0.124 C 
HETATM   21  N5  UNL     1      21.006   3.480  50.008  1.00  0.00    -0.376 N 
HETATM   22  H10 UNL     1      28.716   1.413  51.728  1.00  0.00     0.365 HD
HETATM   23  H26 UNL     1      20.896   4.028  49.105  1.00  0.00     0.160 HD
ENDROOT
BRANCH   1  24
HETATM   24  C4  UNL     1      22.183   4.244  51.886  1.00  0.00     0.030 C 
HETATM   25  C3  UNL     1      22.446   5.517  51.638  1.00  0.00     0.082 C 
BRANCH  25  26
HETATM   26  N1  UNL     1      22.782   5.977  50.334  1.00  0.00    -0.391 N 
HETATM   27  H5  UNL     1      22.631   5.388  49.464  1.00  0.00     0.159 HD
BRANCH  26  28
HETATM   28  C2  UNL     1      23.355   7.319  50.244  1.00  0.00     0.110 C 
HETATM   29  C1  UNL     1      22.360   8.318  49.702  1.00  0.00     0.037 C 
BRANCH  28  30
HETATM   30  C19 UNL     1      24.545   7.338  49.361  1.00  0.00    -0.036 A 
HETATM   31  C20 UNL     1      25.785   6.952  49.865  1.00  0.00     0.009 A 
HETATM   32  C21 UNL     1      26.875   6.981  49.012  1.00  0.00     0.001 A 
HETATM   33  C22 UNL     1      26.770   7.378  47.699  1.00  0.00     0.000 A 
HETATM   34  C23 UNL     1      25.545   7.769  47.172  1.00  0.00     0.001 A 
HETATM   35  C24 UNL     1      24.459   7.732  48.048  1.00  0.00     0.009 A 
ENDBRANCH  28  30
ENDBRANCH  26  28
ENDBRANCH  25  26
ENDBRANCH   1  24
BRANCH  19  36
HETATM   36  O4  UNL     1      18.679   0.908  51.364  1.00  0.00    -0.357 OA
HETATM   37  H24 UNL     1      17.911   0.951  50.684  1.00  0.00     0.218 HD
ENDBRANCH  19  36
TORSDOF 5
ENDMDL
