MODEL 1
REMARK VINA RESULT:      -8.0      0.000      0.000
REMARK  5 active torsions:
REMARK  status: ('A' for Active; 'I' for Inactive)
REMARK    1  A    between atoms: C7_7  and  C8_8 
REMARK    2  A    between atoms: C16_20  and  O3_21 
REMARK    3  A    between atoms: O3_21  and  C17_22 
REMARK    4  A    between atoms: C17_22  and  C19_24 
REMARK    5  A    between atoms: C19_24  and  N3_25 
ROOT
HETATM    1  C1  UNL     1      28.905   5.666  48.137  1.00  0.00     0.018 C 
HETATM    2  C2  UNL     1      27.783   5.631  48.577  1.00  0.00    -0.078 C 
HETATM    3  C3  UNL     1      26.442   5.594  49.086  1.00  0.00     0.017 A 
HETATM    4  C4  UNL     1      25.973   6.715  49.735  1.00  0.00     0.020 A 
HETATM    5  C5  UNL     1      24.691   6.704  50.233  1.00  0.00     0.002 A 
HETATM    6  C6  UNL     1      23.929   5.574  50.061  1.00  0.00     0.014 A 
HETATM    7  C7  UNL     1      24.325   4.412  49.422  1.00  0.00    -0.005 A 
HETATM    8  C20 UNL     1      25.619   4.523  48.964  1.00  0.00     0.034 A 
ENDROOT
BRANCH   7   9
HETATM    9  C8  UNL     1      23.451   3.255  49.403  1.00  0.00     0.079 C 
HETATM   10  N1  UNL     1      23.033   2.943  48.200  1.00  0.00    -0.241 NA
HETATM   11  C9  UNL     1      22.147   1.855  48.049  1.00  0.00     0.227 C 
HETATM   12  N2  UNL     1      21.675   1.129  48.972  1.00  0.00    -0.278 NA
HETATM   13  C10 UNL     1      22.006   1.353  50.396  1.00  0.00     0.194 C 
HETATM   14  C11 UNL     1      23.153   2.277  50.444  1.00  0.00     0.028 C 
HETATM   15  C12 UNL     1      24.135   2.167  51.365  1.00  0.00     0.114 C 
HETATM   16  O1  UNL     1      25.369   2.777  51.508  1.00  0.00    -0.345 OA
HETATM   17  C15 UNL     1      24.215   1.343  52.565  1.00  0.00     0.124 C 
HETATM   18  C13 UNL     1      26.590   2.092  51.709  1.00  0.00     0.202 C 
HETATM   19  C14 UNL     1      26.584   1.372  53.040  1.00  0.00     0.202 C 
HETATM   20  O2  UNL     1      25.247   1.274  53.468  1.00  0.00    -0.344 OA
HETATM   21  C16 UNL     1      23.165   0.566  52.846  1.00  0.00     0.174 C 
BRANCH  21  22
HETATM   22  O3  UNL     1      23.070  -0.270  53.929  1.00  0.00    -0.354 OA
BRANCH  22  23
HETATM   23  C17 UNL     1      21.941  -0.559  54.707  1.00  0.00     0.151 C 
HETATM   24  C18 UNL     1      21.657  -2.030  54.658  1.00  0.00     0.042 C 
BRANCH  23  25
HETATM   25  C19 UNL     1      20.720   0.246  54.396  1.00  0.00     0.298 C 
BRANCH  25  26
HETATM   26  N3  UNL     1      19.649  -0.669  53.945  1.00  0.00     0.080 N 
HETATM   27  H19 UNL     1      19.981  -1.261  53.142  1.00  0.00     0.312 HD
HETATM   28  H20 UNL     1      18.851  -0.114  53.575  1.00  0.00     0.312 HD
ENDBRANCH  25  26
ENDBRANCH  23  25
ENDBRANCH  22  23
ENDBRANCH  21  22
ENDBRANCH   7   9
TORSDOF 5
ENDMDL
MODEL 2
REMARK VINA RESULT:      -7.7      2.533      5.222
REMARK  5 active torsions:
REMARK  status: ('A' for Active; 'I' for Inactive)
REMARK    1  A    between atoms: C7_7  and  C8_8 
REMARK    2  A    between atoms: C16_20  and  O3_21 
REMARK    3  A    between atoms: O3_21  and  C17_22 
REMARK    4  A    between atoms: C17_22  and  C19_24 
REMARK    5  A    between atoms: C19_24  and  N3_25 
ROOT
HETATM    1  C1  UNL     1      28.861  -2.838  53.187  1.00  0.00     0.018 C 
HETATM    2  C2  UNL     1      28.626  -1.658  53.259  1.00  0.00    -0.078 C 
HETATM    3  C3  UNL     1      28.357  -0.250  53.335  1.00  0.00     0.017 A 
HETATM    4  C4  UNL     1      28.904   0.449  54.388  1.00  0.00     0.020 A 
HETATM    5  C5  UNL     1      28.661   1.800  54.484  1.00  0.00     0.002 A 
HETATM    6  C6  UNL     1      27.883   2.396  53.522  1.00  0.00     0.014 A 
HETATM    7  C7  UNL     1      27.301   1.766  52.436  1.00  0.00    -0.005 A 
HETATM    8  C20 UNL     1      27.601   0.422  52.432  1.00  0.00     0.034 A 
ENDROOT
BRANCH   7   9
HETATM    9  C8  UNL     1      26.416   2.502  51.553  1.00  0.00     0.079 C 
HETATM   10  N1  UNL     1      26.966   2.796  50.399  1.00  0.00    -0.241 NA
HETATM   11  C9  UNL     1      26.220   3.542  49.461  1.00  0.00     0.227 C 
HETATM   12  N2  UNL     1      25.048   3.995  49.613  1.00  0.00    -0.278 NA
HETATM   13  C10 UNL     1      24.282   3.791  50.862  1.00  0.00     0.194 C 
HETATM   14  C11 UNL     1      24.984   2.762  51.649  1.00  0.00     0.028 C 
HETATM   15  C12 UNL     1      24.327   1.840  52.388  1.00  0.00     0.114 C 
HETATM   16  O1  UNL     1      24.734   0.695  53.051  1.00  0.00    -0.345 OA
HETATM   17  C15 UNL     1      22.918   1.754  52.752  1.00  0.00     0.124 C 
HETATM   18  C13 UNL     1      24.134  -0.577  52.906  1.00  0.00     0.202 C 
HETATM   19  C14 UNL     1      22.712  -0.558  53.425  1.00  0.00     0.202 C 
HETATM   20  O2  UNL     1      22.306   0.786  53.510  1.00  0.00    -0.344 OA
HETATM   21  C16 UNL     1      22.112   2.727  52.318  1.00  0.00     0.174 C 
BRANCH  21  22
HETATM   22  O3  UNL     1      20.765   2.803  52.565  1.00  0.00    -0.354 OA
BRANCH  22  23
HETATM   23  C17 UNL     1      19.706   2.504  51.697  1.00  0.00     0.151 C 
HETATM   24  C18 UNL     1      18.814   3.701  51.556  1.00  0.00     0.042 C 
BRANCH  23  25
HETATM   25  C19 UNL     1      18.924   1.274  52.033  1.00  0.00     0.298 C 
BRANCH  25  26
HETATM   26  N3  UNL     1      19.739   0.086  51.698  1.00  0.00     0.080 N 
HETATM   27  H19 UNL     1      19.471  -0.729  52.306  1.00  0.00     0.312 HD
HETATM   28  H20 UNL     1      20.739   0.280  51.911  1.00  0.00     0.312 HD
ENDBRANCH  25  26
ENDBRANCH  23  25
ENDBRANCH  22  23
ENDBRANCH  21  22
ENDBRANCH   7   9
TORSDOF 5
ENDMDL
MODEL 3
REMARK VINA RESULT:      -7.3      3.550      6.584
REMARK  5 active torsions:
REMARK  status: ('A' for Active; 'I' for Inactive)
REMARK    1  A    between atoms: C7_7  and  C8_8 
REMARK    2  A    between atoms: C16_20  and  O3_21 
REMARK    3  A    between atoms: O3_21  and  C17_22 
REMARK    4  A    between atoms: C17_22  and  C19_24 
REMARK    5  A    between atoms: C19_24  and  N3_25 
ROOT
HETATM    1  C1  UNL     1      15.387   3.592  52.441  1.00  0.00     0.018 C 
HETATM    2  C2  UNL     1      16.425   3.245  51.936  1.00  0.00    -0.078 C 
HETATM    3  C3  UNL     1      17.661   2.845  51.325  1.00  0.00     0.017 A 
HETATM    4  C4  UNL     1      17.593   2.005  50.236  1.00  0.00     0.020 A 
HETATM    5  C5  UNL     1      18.764   1.606  49.633  1.00  0.00     0.002 A 
HETATM    6  C6  UNL     1      19.954   2.064  50.143  1.00  0.00     0.014 A 
HETATM    7  C7  UNL     1      20.106   2.908  51.229  1.00  0.00    -0.005 A 
HETATM    8  C20 UNL     1      18.880   3.246  51.761  1.00  0.00     0.034 A 
ENDROOT
BRANCH   7   9
HETATM    9  C8  UNL     1      21.430   3.230  51.724  1.00  0.00     0.079 C 
HETATM   10  N1  UNL     1      21.576   4.499  52.020  1.00  0.00    -0.241 NA
HETATM   11  C9  UNL     1      22.833   4.950  52.481  1.00  0.00     0.227 C 
HETATM   12  N2  UNL     1      23.879   4.254  52.629  1.00  0.00    -0.278 NA
HETATM   13  C10 UNL     1      23.914   2.809  52.312  1.00  0.00     0.194 C 
HETATM   14  C11 UNL     1      22.521   2.359  52.147  1.00  0.00     0.028 C 
HETATM   15  C12 UNL     1      22.099   1.142  52.556  1.00  0.00     0.114 C 
HETATM   16  O1  UNL     1      20.845   0.567  52.674  1.00  0.00    -0.345 OA
HETATM   17  C15 UNL     1      22.858  -0.015  53.016  1.00  0.00     0.124 C 
HETATM   18  C13 UNL     1      20.356  -0.072  53.837  1.00  0.00     0.202 C 
HETATM   19  C14 UNL     1      21.161  -1.318  54.138  1.00  0.00     0.202 C 
HETATM   20  O2  UNL     1      22.368  -1.231  53.422  1.00  0.00    -0.344 OA
HETATM   21  C16 UNL     1      24.189   0.097  53.041  1.00  0.00     0.174 C 
BRANCH  21  22
HETATM   22  O3  UNL     1      25.055  -0.887  53.446  1.00  0.00    -0.354 OA
BRANCH  22  23
HETATM   23  C17 UNL     1      26.415  -1.028  53.135  1.00  0.00     0.151 C 
HETATM   24  C18 UNL     1      26.895   0.190  52.403  1.00  0.00     0.042 C 
BRANCH  23  25
HETATM   25  C19 UNL     1      26.785  -2.284  52.413  1.00  0.00     0.298 C 
BRANCH  25  26
HETATM   26  N3  UNL     1      28.003  -2.848  53.034  1.00  0.00     0.080 N 
HETATM   27  H19 UNL     1      27.890  -3.881  53.198  1.00  0.00     0.312 HD
HETATM   28  H20 UNL     1      28.140  -2.427  53.975  1.00  0.00     0.312 HD
ENDBRANCH  25  26
ENDBRANCH  23  25
ENDBRANCH  22  23
ENDBRANCH  21  22
ENDBRANCH   7   9
TORSDOF 5
ENDMDL
MODEL 4
REMARK VINA RESULT:      -7.2      2.868      5.380
REMARK  5 active torsions:
REMARK  status: ('A' for Active; 'I' for Inactive)
REMARK    1  A    between atoms: C7_7  and  C8_8 
REMARK    2  A    between atoms: C16_20  and  O3_21 
REMARK    3  A    between atoms: O3_21  and  C17_22 
REMARK    4  A    between atoms: C17_22  and  C19_24 
REMARK    5  A    between atoms: C19_24  and  N3_25 
ROOT
HETATM    1  C1  UNL     1      27.165  -2.450  52.332  1.00  0.00     0.018 C 
HETATM    2  C2  UNL     1      26.771  -1.338  52.584  1.00  0.00    -0.078 C 
HETATM    3  C3  UNL     1      26.316  -0.009  52.877  1.00  0.00     0.017 A 
HETATM    4  C4  UNL     1      26.549   0.481  54.144  1.00  0.00     0.020 A 
HETATM    5  C5  UNL     1      26.122   1.752  54.450  1.00  0.00     0.002 A 
HETATM    6  C6  UNL     1      25.482   2.482  53.478  1.00  0.00     0.014 A 
HETATM    7  C7  UNL     1      25.213   2.064  52.187  1.00  0.00    -0.005 A 
HETATM    8  C20 UNL     1      25.676   0.782  51.982  1.00  0.00     0.034 A 
ENDROOT
BRANCH   7   9
HETATM    9  C8  UNL     1      24.436   2.902  51.295  1.00  0.00     0.079 C 
HETATM   10  N1  UNL     1      25.076   3.216  50.194  1.00  0.00    -0.241 NA
HETATM   11  C9  UNL     1      24.442   4.058  49.255  1.00  0.00     0.227 C 
HETATM   12  N2  UNL     1      23.295   4.582  49.362  1.00  0.00    -0.278 NA
HETATM   13  C10 UNL     1      22.440   4.369  50.550  1.00  0.00     0.194 C 
HETATM   14  C11 UNL     1      23.021   3.255  51.319  1.00  0.00     0.028 C 
HETATM   15  C12 UNL     1      22.260   2.344  51.965  1.00  0.00     0.114 C 
HETATM   16  O1  UNL     1      22.548   1.142  52.587  1.00  0.00    -0.345 OA
HETATM   17  C15 UNL     1      20.828   2.336  52.239  1.00  0.00     0.124 C 
HETATM   18  C13 UNL     1      21.876  -0.078  52.338  1.00  0.00     0.202 C 
HETATM   19  C14 UNL     1      20.429   0.013  52.771  1.00  0.00     0.202 C 
HETATM   20  O2  UNL     1      20.107   1.376  52.905  1.00  0.00    -0.344 OA
HETATM   21  C16 UNL     1      20.116   3.384  51.813  1.00  0.00     0.174 C 
BRANCH  21  22
HETATM   22  O3  UNL     1      18.764   3.540  51.982  1.00  0.00    -0.354 OA
BRANCH  22  23
HETATM   23  C17 UNL     1      17.743   3.331  51.045  1.00  0.00     0.151 C 
HETATM   24  C18 UNL     1      16.787   2.298  51.561  1.00  0.00     0.042 C 
BRANCH  23  25
HETATM   25  C19 UNL     1      18.195   3.015  49.656  1.00  0.00     0.298 C 
BRANCH  25  26
HETATM   26  N3  UNL     1      17.960   1.578  49.395  1.00  0.00     0.080 N 
HETATM   27  H19 UNL     1      17.145   1.448  48.744  1.00  0.00     0.312 HD
HETATM   28  H20 UNL     1      17.691   1.104  50.281  1.00  0.00     0.312 HD
ENDBRANCH  25  26
ENDBRANCH  23  25
ENDBRANCH  22  23
ENDBRANCH  21  22
ENDBRANCH   7   9
TORSDOF 5
ENDMDL
MODEL 5
REMARK VINA RESULT:      -7.2      3.397      6.827
REMARK  5 active torsions:
REMARK  status: ('A' for Active; 'I' for Inactive)
REMARK    1  A    between atoms: C7_7  and  C8_8 
REMARK    2  A    between atoms: C16_20  and  O3_21 
REMARK    3  A    between atoms: O3_21  and  C17_22 
REMARK    4  A    between atoms: C17_22  and  C19_24 
REMARK    5  A    between atoms: C19_24  and  N3_25 
ROOT
HETATM    1  C1  UNL     1      17.662  -1.806  53.483  1.00  0.00     0.018 C 
HETATM    2  C2  UNL     1      18.179  -0.978  52.776  1.00  0.00    -0.078 C 
HETATM    3  C3  UNL     1      18.785   0.019  51.940  1.00  0.00     0.017 A 
HETATM    4  C4  UNL     1      18.307   0.152  50.655  1.00  0.00     0.020 A 
HETATM    5  C5  UNL     1      18.872   1.101  49.834  1.00  0.00     0.002 A 
HETATM    6  C6  UNL     1      19.889   1.878  50.331  1.00  0.00     0.014 A 
HETATM    7  C7  UNL     1      20.423   1.806  51.606  1.00  0.00    -0.005 A 
HETATM    8  C20 UNL     1      19.794   0.829  52.345  1.00  0.00     0.034 A 
ENDROOT
BRANCH   7   9
HETATM    9  C8  UNL     1      21.569   2.620  51.965  1.00  0.00     0.079 C 
HETATM   10  N1  UNL     1      21.280   3.894  52.082  1.00  0.00    -0.241 NA
HETATM   11  C9  UNL     1      22.317   4.800  52.395  1.00  0.00     0.227 C 
HETATM   12  N2  UNL     1      23.541   4.522  52.562  1.00  0.00    -0.278 NA
HETATM   13  C10 UNL     1      24.058   3.142  52.435  1.00  0.00     0.194 C 
HETATM   14  C11 UNL     1      22.899   2.234  52.424  1.00  0.00     0.028 C 
HETATM   15  C12 UNL     1      22.922   1.019  53.015  1.00  0.00     0.114 C 
HETATM   16  O1  UNL     1      21.941   0.083  53.291  1.00  0.00    -0.345 OA
HETATM   17  C15 UNL     1      24.038   0.262  53.571  1.00  0.00     0.124 C 
HETATM   18  C13 UNL     1      21.720  -0.507  54.558  1.00  0.00     0.202 C 
HETATM   19  C14 UNL     1      22.905  -1.354  54.964  1.00  0.00     0.202 C 
HETATM   20  O2  UNL     1      23.998  -0.975  54.164  1.00  0.00    -0.344 OA
HETATM   21  C16 UNL     1      25.252   0.814  53.492  1.00  0.00     0.174 C 
BRANCH  21  22
HETATM   22  O3  UNL     1      26.408   0.245  53.962  1.00  0.00    -0.354 OA
BRANCH  22  23
HETATM   23  C17 UNL     1      27.731   0.646  53.727  1.00  0.00     0.151 C 
HETATM   24  C18 UNL     1      28.636   0.023  54.747  1.00  0.00     0.042 C 
BRANCH  23  25
HETATM   25  C19 UNL     1      27.950   2.121  53.627  1.00  0.00     0.298 C 
BRANCH  25  26
HETATM   26  N3  UNL     1      29.320   2.431  54.089  1.00  0.00     0.080 N 
HETATM   27  H19 UNL     1      29.324   2.646  55.119  1.00  0.00     0.312 HD
HETATM   28  H20 UNL     1      29.658   3.296  53.620  1.00  0.00     0.312 HD
ENDBRANCH  25  26
ENDBRANCH  23  25
ENDBRANCH  22  23
ENDBRANCH  21  22
ENDBRANCH   7   9
TORSDOF 5
ENDMDL
MODEL 6
REMARK VINA RESULT:      -7.2      2.372      6.199
REMARK  5 active torsions:
REMARK  status: ('A' for Active; 'I' for Inactive)
REMARK    1  A    between atoms: C7_7  and  C8_8 
REMARK    2  A    between atoms: C16_20  and  O3_21 
REMARK    3  A    between atoms: O3_21  and  C17_22 
REMARK    4  A    between atoms: C17_22  and  C19_24 
REMARK    5  A    between atoms: C19_24  and  N3_25 
ROOT
HETATM    1  C1  UNL     1      28.563  -2.317  52.853  1.00  0.00     0.018 C 
HETATM    2  C2  UNL     1      27.793  -1.405  53.021  1.00  0.00    -0.078 C 
HETATM    3  C3  UNL     1      26.878  -0.314  53.206  1.00  0.00     0.017 A 
HETATM    4  C4  UNL     1      27.366   0.838  53.783  1.00  0.00     0.020 A 
HETATM    5  C5  UNL     1      26.509   1.898  53.972  1.00  0.00     0.002 A 
HETATM    6  C6  UNL     1      25.202   1.764  53.575  1.00  0.00     0.014 A 
HETATM    7  C7  UNL     1      24.637   0.644  52.989  1.00  0.00    -0.005 A 
HETATM    8  C20 UNL     1      25.572  -0.357  52.846  1.00  0.00     0.034 A 
ENDROOT
BRANCH   7   9
HETATM    9  C8  UNL     1      23.214   0.604  52.713  1.00  0.00     0.079 C 
HETATM   10  N1  UNL     1      22.486   0.406  53.786  1.00  0.00    -0.241 NA
HETATM   11  C9  UNL     1      21.084   0.312  53.648  1.00  0.00     0.227 C 
HETATM   12  N2  UNL     1      20.422   0.377  52.571  1.00  0.00    -0.278 NA
HETATM   13  C10 UNL     1      21.075   0.562  51.257  1.00  0.00     0.194 C 
HETATM   14  C11 UNL     1      22.471   0.961  51.509  1.00  0.00     0.028 C 
HETATM   15  C12 UNL     1      23.123   1.854  50.731  1.00  0.00     0.114 C 
HETATM   16  O1  UNL     1      24.335   2.509  50.856  1.00  0.00    -0.345 OA
HETATM   17  C15 UNL     1      22.749   2.435  49.447  1.00  0.00     0.124 C 
HETATM   18  C13 UNL     1      24.514   3.907  50.733  1.00  0.00     0.202 C 
HETATM   19  C14 UNL     1      24.202   4.361  49.324  1.00  0.00     0.202 C 
HETATM   20  O2  UNL     1      23.458   3.344  48.701  1.00  0.00    -0.344 OA
HETATM   21  C16 UNL     1      21.592   2.040  48.909  1.00  0.00     0.174 C 
BRANCH  21  22
HETATM   22  O3  UNL     1      21.087   2.482  47.713  1.00  0.00    -0.354 OA
BRANCH  22  23
HETATM   23  C17 UNL     1      20.234   3.570  47.481  1.00  0.00     0.151 C 
HETATM   24  C18 UNL     1      19.125   3.155  46.561  1.00  0.00     0.042 C 
BRANCH  23  25
HETATM   25  C19 UNL     1      20.899   4.823  47.008  1.00  0.00     0.298 C 
BRANCH  25  26
HETATM   26  N3  UNL     1      22.066   4.457  46.177  1.00  0.00     0.080 N 
HETATM   27  H19 UNL     1      22.157   5.111  45.358  1.00  0.00     0.312 HD
HETATM   28  H20 UNL     1      21.918   3.512  45.767  1.00  0.00     0.312 HD
ENDBRANCH  25  26
ENDBRANCH  23  25
ENDBRANCH  22  23
ENDBRANCH  21  22
ENDBRANCH   7   9
TORSDOF 5
ENDMDL
MODEL 7
REMARK VINA RESULT:      -7.0      8.745     11.599
REMARK  5 active torsions:
REMARK  status: ('A' for Active; 'I' for Inactive)
REMARK    1  A    between atoms: C7_7  and  C8_8 
REMARK    2  A    between atoms: C16_20  and  O3_21 
REMARK    3  A    between atoms: O3_21  and  C17_22 
REMARK    4  A    between atoms: C17_22  and  C19_24 
REMARK    5  A    between atoms: C19_24  and  N3_25 
ROOT
HETATM    1  C1  UNL     1      31.979   0.173  46.828  1.00  0.00     0.018 C 
HETATM    2  C2  UNL     1      32.478   1.270  46.836  1.00  0.00    -0.078 C 
HETATM    3  C3  UNL     1      33.082   2.572  46.833  1.00  0.00     0.017 A 
HETATM    4  C4  UNL     1      34.058   2.826  47.772  1.00  0.00     0.020 A 
HETATM    5  C5  UNL     1      34.653   4.066  47.791  1.00  0.00     0.002 A 
HETATM    6  C6  UNL     1      34.249   5.001  46.870  1.00  0.00     0.014 A 
HETATM    7  C7  UNL     1      33.280   4.825  45.897  1.00  0.00    -0.005 A 
HETATM    8  C20 UNL     1      32.747   3.556  45.964  1.00  0.00     0.034 A 
ENDROOT
BRANCH   7   9
HETATM    9  C8  UNL     1      32.880   5.935  45.055  1.00  0.00     0.079 C 
HETATM   10  N1  UNL     1      32.964   5.668  43.774  1.00  0.00    -0.241 NA
HETATM   11  C9  UNL     1      32.635   6.679  42.845  1.00  0.00     0.227 C 
HETATM   12  N2  UNL     1      32.275   7.863  43.111  1.00  0.00    -0.278 NA
HETATM   13  C10 UNL     1      32.157   8.357  44.500  1.00  0.00     0.194 C 
HETATM   14  C11 UNL     1      32.206   7.185  45.392  1.00  0.00     0.028 C 
HETATM   15  C12 UNL     1      31.467   7.099  46.520  1.00  0.00     0.114 C 
HETATM   16  O1  UNL     1      31.206   6.067  47.404  1.00  0.00    -0.345 OA
HETATM   17  C15 UNL     1      30.679   8.114  47.210  1.00  0.00     0.124 C 
HETATM   18  C13 UNL     1      29.915   5.669  47.823  1.00  0.00     0.202 C 
HETATM   19  C14 UNL     1      29.252   6.769  48.622  1.00  0.00     0.202 C 
HETATM   20  O2  UNL     1      29.944   7.966  48.360  1.00  0.00    -0.344 OA
HETATM   21  C16 UNL     1      30.667   9.343  46.684  1.00  0.00     0.174 C 
BRANCH  21  22
HETATM   22  O3  UNL     1      29.980  10.413  47.199  1.00  0.00    -0.354 OA
BRANCH  22  23
HETATM   23  C17 UNL     1      30.470  11.687  47.514  1.00  0.00     0.151 C 
HETATM   24  C18 UNL     1      31.950  11.617  47.746  1.00  0.00     0.042 C 
BRANCH  23  25
HETATM   25  C19 UNL     1      29.773  12.388  48.636  1.00  0.00     0.298 C 
BRANCH  25  26
HETATM   26  N3  UNL     1      28.784  11.464  49.232  1.00  0.00     0.080 N 
HETATM   27  H19 UNL     1      27.833  11.911  49.267  1.00  0.00     0.312 HD
HETATM   28  H20 UNL     1      29.041  11.272  50.222  1.00  0.00     0.312 HD
ENDBRANCH  25  26
ENDBRANCH  23  25
ENDBRANCH  22  23
ENDBRANCH  21  22
ENDBRANCH   7   9
TORSDOF 5
ENDMDL
MODEL 8
REMARK VINA RESULT:      -6.8      2.787      4.579
REMARK  5 active torsions:
REMARK  status: ('A' for Active; 'I' for Inactive)
REMARK    1  A    between atoms: C7_7  and  C8_8 
REMARK    2  A    between atoms: C16_20  and  O3_21 
REMARK    3  A    between atoms: O3_21  and  C17_22 
REMARK    4  A    between atoms: C17_22  and  C19_24 
REMARK    5  A    between atoms: C19_24  and  N3_25 
ROOT
HETATM    1  C1  UNL     1      21.217   5.642  46.425  1.00  0.00     0.018 C 
HETATM    2  C2  UNL     1      21.339   5.431  47.605  1.00  0.00    -0.078 C 
HETATM    3  C3  UNL     1      21.470   5.178  49.012  1.00  0.00     0.017 A 
HETATM    4  C4  UNL     1      21.448   6.262  49.862  1.00  0.00     0.020 A 
HETATM    5  C5  UNL     1      21.572   6.045  51.214  1.00  0.00     0.002 A 
HETATM    6  C6  UNL     1      21.711   4.754  51.663  1.00  0.00     0.014 A 
HETATM    7  C7  UNL     1      21.740   3.616  50.876  1.00  0.00    -0.005 A 
HETATM    8  C20 UNL     1      21.612   3.939  49.544  1.00  0.00     0.034 A 
ENDROOT
BRANCH   7   9
HETATM    9  C8  UNL     1      21.996   2.320  51.476  1.00  0.00     0.079 C 
HETATM   10  N1  UNL     1      21.018   1.466  51.297  1.00  0.00    -0.241 NA
HETATM   11  C9  UNL     1      21.129   0.177  51.863  1.00  0.00     0.227 C 
HETATM   12  N2  UNL     1      22.086  -0.262  52.565  1.00  0.00    -0.278 NA
HETATM   13  C10 UNL     1      23.261   0.570  52.901  1.00  0.00     0.194 C 
HETATM   14  C11 UNL     1      23.223   1.761  52.034  1.00  0.00     0.028 C 
HETATM   15  C12 UNL     1      24.341   2.325  51.526  1.00  0.00     0.114 C 
HETATM   16  O1  UNL     1      24.556   3.306  50.574  1.00  0.00    -0.345 OA
HETATM   17  C15 UNL     1      25.745   2.081  51.835  1.00  0.00     0.124 C 
HETATM   18  C13 UNL     1      25.422   3.177  49.463  1.00  0.00     0.202 C 
HETATM   19  C14 UNL     1      26.858   3.045  49.920  1.00  0.00     0.202 C 
HETATM   20  O2  UNL     1      26.843   2.690  51.281  1.00  0.00    -0.344 OA
HETATM   21  C16 UNL     1      26.015   1.172  52.776  1.00  0.00     0.174 C 
BRANCH  21  22
HETATM   22  O3  UNL     1      27.274   0.817  53.190  1.00  0.00    -0.354 OA
BRANCH  22  23
HETATM   23  C17 UNL     1      27.745  -0.454  53.546  1.00  0.00     0.151 C 
HETATM   24  C18 UNL     1      29.244  -0.453  53.559  1.00  0.00     0.042 C 
BRANCH  23  25
HETATM   25  C19 UNL     1      27.204  -1.592  52.739  1.00  0.00     0.298 C 
BRANCH  25  26
HETATM   26  N3  UNL     1      27.961  -2.816  53.077  1.00  0.00     0.080 N 
HETATM   27  H19 UNL     1      28.594  -2.646  53.900  1.00  0.00     0.312 HD
HETATM   28  H20 UNL     1      28.590  -3.066  52.287  1.00  0.00     0.312 HD
ENDBRANCH  25  26
ENDBRANCH  23  25
ENDBRANCH  22  23
ENDBRANCH  21  22
ENDBRANCH   7   9
TORSDOF 5
ENDMDL
MODEL 9
REMARK VINA RESULT:      -6.8      3.378      5.023
REMARK  5 active torsions:
REMARK  status: ('A' for Active; 'I' for Inactive)
REMARK    1  A    between atoms: C7_7  and  C8_8 
REMARK    2  A    between atoms: C16_20  and  O3_21 
REMARK    3  A    between atoms: O3_21  and  C17_22 
REMARK    4  A    between atoms: C17_22  and  C19_24 
REMARK    5  A    between atoms: C19_24  and  N3_25 
ROOT
HETATM    1  C1  UNL     1      27.422  -0.417  53.658  1.00  0.00     0.018 C 
HETATM    2  C2  UNL     1      26.546   0.366  53.389  1.00  0.00    -0.078 C 
HETATM    3  C3  UNL     1      25.513   1.305  53.057  1.00  0.00     0.017 A 
HETATM    4  C4  UNL     1      25.475   2.489  53.760  1.00  0.00     0.020 A 
HETATM    5  C5  UNL     1      24.494   3.406  53.461  1.00  0.00     0.002 A 
HETATM    6  C6  UNL     1      23.592   3.102  52.471  1.00  0.00     0.014 A 
HETATM    7  C7  UNL     1      23.563   1.940  51.721  1.00  0.00    -0.005 A 
HETATM    8  C20 UNL     1      24.580   1.091  52.097  1.00  0.00     0.034 A 
ENDROOT
BRANCH   7   9
HETATM    9  C8  UNL     1      22.488   1.707  50.776  1.00  0.00     0.079 C 
HETATM   10  N1  UNL     1      22.882   1.749  49.525  1.00  0.00    -0.241 NA
HETATM   11  C9  UNL     1      21.922   1.571  48.505  1.00  0.00     0.227 C 
HETATM   12  N2  UNL     1      20.679   1.390  48.657  1.00  0.00    -0.278 NA
HETATM   13  C10 UNL     1      20.048   1.348  49.993  1.00  0.00     0.194 C 
HETATM   14  C11 UNL     1      21.127   1.225  50.989  1.00  0.00     0.028 C 
HETATM   15  C12 UNL     1      20.999   0.483  52.111  1.00  0.00     0.114 C 
HETATM   16  O1  UNL     1      21.896   0.074  53.082  1.00  0.00    -0.345 OA
HETATM   17  C15 UNL     1      19.820  -0.146  52.696  1.00  0.00     0.124 C 
HETATM   18  C13 UNL     1      22.059  -1.261  53.520  1.00  0.00     0.202 C 
HETATM   19  C14 UNL     1      20.804  -1.753  54.207  1.00  0.00     0.202 C 
HETATM   20  O2  UNL     1      19.752  -0.892  53.846  1.00  0.00    -0.344 OA
HETATM   21  C16 UNL     1      18.657   0.023  52.060  1.00  0.00     0.174 C 
BRANCH  21  22
HETATM   22  O3  UNL     1      17.454  -0.497  52.466  1.00  0.00    -0.354 OA
BRANCH  22  23
HETATM   23  C17 UNL     1      16.188  -0.300  51.899  1.00  0.00     0.151 C 
HETATM   24  C18 UNL     1      16.282  -0.395  50.406  1.00  0.00     0.042 C 
BRANCH  23  25
HETATM   25  C19 UNL     1      15.476   0.945  52.325  1.00  0.00     0.298 C 
BRANCH  25  26
HETATM   26  N3  UNL     1      15.865   2.048  51.421  1.00  0.00     0.080 N 
HETATM   27  H19 UNL     1      15.107   2.776  51.378  1.00  0.00     0.312 HD
HETATM   28  H20 UNL     1      15.961   1.685  50.451  1.00  0.00     0.312 HD
ENDBRANCH  25  26
ENDBRANCH  23  25
ENDBRANCH  22  23
ENDBRANCH  21  22
ENDBRANCH   7   9
TORSDOF 5
ENDMDL
