MODEL 1
REMARK VINA RESULT:      -7.4      0.000      0.000
REMARK  4 active torsions:
REMARK  status: ('A' for Active; 'I' for Inactive)
REMARK    1  A    between atoms: C2_2  and  C3_3 
REMARK       I    between atoms: C3_3  and  N1_5 
REMARK    2  A    between atoms: N1_5  and  C4_6 
REMARK    3  A    between atoms: S1_14  and  N3_15 
REMARK    4  A    between atoms: N3_15  and  C11_16 
ROOT
HETATM    1  C4  UNL     1      22.080   1.144  52.727  1.00  0.00     0.029 C 
HETATM    2  C5  UNL     1      22.711   0.091  53.101  1.00  0.00     0.023 C 
HETATM    3  C6  UNL     1      21.940  -1.256  53.241  1.00  0.00     0.108 C 
HETATM    4  C7  UNL     1      21.757  -0.695  54.703  1.00  0.00     0.037 C 
HETATM    5  C8  UNL     1      20.822   0.304  54.589  1.00  0.00     0.007 C 
HETATM    6  C9  UNL     1      20.689   1.084  53.255  1.00  0.00     0.087 C 
HETATM    7  N2  UNL     1      22.737  -1.430  55.394  1.00  0.00    -0.242 NA
HETATM    8  C10 UNL     1      24.021  -1.364  55.157  1.00  0.00     0.143 C 
HETATM    9  S1  UNL     1      24.330  -0.305  53.903  1.00  0.00    -0.037 SA
ENDROOT
BRANCH   9  10
HETATM   10  N3  UNL     1      25.234   1.236  54.208  1.00  0.00    -0.330 N 
HETATM   11  H12 UNL     1      24.844   2.160  54.539  1.00  0.00     0.174 HD
BRANCH  10  12
HETATM   12  C11 UNL     1      26.662   1.174  53.962  1.00  0.00     0.039 A 
HETATM   13  C12 UNL     1      27.383   2.364  53.888  1.00  0.00     0.030 A 
HETATM   14  C13 UNL     1      28.729   2.236  53.654  1.00  0.00     0.004 A 
HETATM   15  C14 UNL     1      29.432   1.068  53.488  1.00  0.00     0.019 A 
HETATM   16  C15 UNL     1      28.693  -0.072  53.568  1.00  0.00     0.013 A 
HETATM   17 BR1  UNL     1      29.444  -1.834  53.376  1.00  0.00    -0.051 Br
HETATM   18  C16 UNL     1      27.306  -0.059  53.804  1.00  0.00     0.049 A 
ENDBRANCH  10  12
ENDBRANCH   9  10
BRANCH   1  19
HETATM   19  N1  UNL     1      22.987   1.856  51.984  1.00  0.00    -0.329 N 
HETATM   20  C3  UNL     1      23.885   2.616  51.346  1.00  0.00     0.221 C 
HETATM   21  O1  UNL     1      24.127   3.401  52.336  1.00  0.00    -0.273 OA
HETATM   22  H6  UNL     1      22.755   1.187  51.163  1.00  0.00     0.168 HD
BRANCH  20  23
HETATM   23  C2  UNL     1      24.590   2.843  50.100  1.00  0.00     0.098 C 
HETATM   24  C1  UNL     1      26.087   2.949  50.347  1.00  0.00     0.014 C 
ENDBRANCH  20  23
ENDBRANCH   1  19
TORSDOF 4
ENDMDL
MODEL 2
REMARK VINA RESULT:      -7.2      3.246      5.548
REMARK  4 active torsions:
REMARK  status: ('A' for Active; 'I' for Inactive)
REMARK    1  A    between atoms: C2_2  and  C3_3 
REMARK       I    between atoms: C3_3  and  N1_5 
REMARK    2  A    between atoms: N1_5  and  C4_6 
REMARK    3  A    between atoms: S1_14  and  N3_15 
REMARK    4  A    between atoms: N3_15  and  C11_16 
ROOT
HETATM    1  C4  UNL     1      24.493  -0.109  53.525  1.00  0.00     0.029 C 
HETATM    2  C5  UNL     1      25.572   0.373  53.024  1.00  0.00     0.023 C 
HETATM    3  C6  UNL     1      26.889  -0.456  53.099  1.00  0.00     0.108 C 
HETATM    4  C7  UNL     1      27.009   0.350  54.449  1.00  0.00     0.037 C 
HETATM    5  C8  UNL     1      26.104  -0.239  55.298  1.00  0.00     0.007 C 
HETATM    6  C9  UNL     1      24.841  -0.929  54.720  1.00  0.00     0.087 C 
HETATM    7  N2  UNL     1      27.915   1.358  54.077  1.00  0.00    -0.242 NA
HETATM    8  C10 UNL     1      27.690   2.258  53.156  1.00  0.00     0.143 C 
HETATM    9  S1  UNL     1      26.186   2.026  52.468  1.00  0.00    -0.037 SA
ENDROOT
BRANCH   9  10
HETATM   10  N3  UNL     1      24.874   3.255  52.699  1.00  0.00    -0.330 N 
HETATM   11  H12 UNL     1      24.449   3.585  53.607  1.00  0.00     0.174 HD
BRANCH  10  12
HETATM   12  C11 UNL     1      24.358   3.844  51.478  1.00  0.00     0.039 A 
HETATM   13  C12 UNL     1      24.730   3.290  50.254  1.00  0.00     0.030 A 
HETATM   14  C13 UNL     1      24.207   3.893  49.138  1.00  0.00     0.004 A 
HETATM   15  C14 UNL     1      23.363   4.976  49.103  1.00  0.00     0.019 A 
HETATM   16  C15 UNL     1      23.023   5.489  50.318  1.00  0.00     0.013 A 
HETATM   17 BR1  UNL     1      21.851   7.000  50.536  1.00  0.00    -0.051 Br
HETATM   18  C16 UNL     1      23.500   4.950  51.526  1.00  0.00     0.049 A 
ENDBRANCH  10  12
ENDBRANCH   9  10
BRANCH   1  19
HETATM   19  N1  UNL     1      23.488   0.347  52.711  1.00  0.00    -0.329 N 
HETATM   20  C3  UNL     1      22.477   0.857  51.998  1.00  0.00     0.221 C 
HETATM   21  O1  UNL     1      22.076   1.681  52.901  1.00  0.00    -0.273 OA
HETATM   22  H6  UNL     1      23.840  -0.365  51.973  1.00  0.00     0.168 HD
BRANCH  20  23
HETATM   23  C2  UNL     1      21.763   0.817  50.737  1.00  0.00     0.098 C 
HETATM   24  C1  UNL     1      21.123   2.165  50.444  1.00  0.00     0.014 C 
ENDBRANCH  20  23
ENDBRANCH   1  19
TORSDOF 4
ENDMDL
MODEL 3
REMARK VINA RESULT:      -7.0      3.260      6.148
REMARK  4 active torsions:
REMARK  status: ('A' for Active; 'I' for Inactive)
REMARK    1  A    between atoms: C2_2  and  C3_3 
REMARK       I    between atoms: C3_3  and  N1_5 
REMARK    2  A    between atoms: N1_5  and  C4_6 
REMARK    3  A    between atoms: S1_14  and  N3_15 
REMARK    4  A    between atoms: N3_15  and  C11_16 
ROOT
HETATM    1  C4  UNL     1      24.915  -0.136  53.825  1.00  0.00     0.029 C 
HETATM    2  C5  UNL     1      25.428   0.378  52.767  1.00  0.00     0.023 C 
HETATM    3  C6  UNL     1      26.797  -0.151  52.244  1.00  0.00     0.108 C 
HETATM    4  C7  UNL     1      27.306   0.995  53.198  1.00  0.00     0.037 C 
HETATM    5  C8  UNL     1      27.136   0.505  54.469  1.00  0.00     0.007 C 
HETATM    6  C9  UNL     1      26.014  -0.529  54.751  1.00  0.00     0.087 C 
HETATM    7  N2  UNL     1      27.585   2.012  52.268  1.00  0.00    -0.242 NA
HETATM    8  C10 UNL     1      26.695   2.577  51.494  1.00  0.00     0.143 C 
HETATM    9  S1  UNL     1      25.188   1.904  51.750  1.00  0.00    -0.037 SA
ENDROOT
BRANCH   9  10
HETATM   10  N3  UNL     1      23.853   2.895  52.472  1.00  0.00    -0.330 N 
HETATM   11  H12 UNL     1      23.749   3.207  53.475  1.00  0.00     0.174 HD
BRANCH  10  12
HETATM   12  C11 UNL     1      22.812   3.298  51.545  1.00  0.00     0.039 A 
HETATM   13  C12 UNL     1      21.744   4.056  52.023  1.00  0.00     0.030 A 
HETATM   14  C13 UNL     1      20.794   4.404  51.096  1.00  0.00     0.004 A 
HETATM   15  C14 UNL     1      20.788   4.087  49.761  1.00  0.00     0.019 A 
HETATM   16  C15 UNL     1      21.847   3.347  49.332  1.00  0.00     0.013 A 
HETATM   17 BR1  UNL     1      22.071   2.781  47.507  1.00  0.00    -0.051 Br
HETATM   18  C16 UNL     1      22.879   2.935  50.195  1.00  0.00     0.049 A 
ENDBRANCH  10  12
ENDBRANCH   9  10
BRANCH   1  19
HETATM   19  N1  UNL     1      23.560  -0.102  53.616  1.00  0.00    -0.329 N 
HETATM   20  C3  UNL     1      22.237  -0.178  53.427  1.00  0.00     0.221 C 
HETATM   21  O1  UNL     1      22.141  -1.442  53.645  1.00  0.00    -0.273 OA
HETATM   22  H6  UNL     1      23.672   0.959  53.425  1.00  0.00     0.168 HD
BRANCH  20  23
HETATM   23  C2  UNL     1      21.031   0.559  53.106  1.00  0.00     0.098 C 
HETATM   24  C1  UNL     1      20.648   0.346  51.650  1.00  0.00     0.014 C 
ENDBRANCH  20  23
ENDBRANCH   1  19
TORSDOF 4
ENDMDL
MODEL 4
REMARK VINA RESULT:      -7.0      3.099      4.801
REMARK  4 active torsions:
REMARK  status: ('A' for Active; 'I' for Inactive)
REMARK    1  A    between atoms: C2_2  and  C3_3 
REMARK       I    between atoms: C3_3  and  N1_5 
REMARK    2  A    between atoms: N1_5  and  C4_6 
REMARK    3  A    between atoms: S1_14  and  N3_15 
REMARK    4  A    between atoms: N3_15  and  C11_16 
ROOT
HETATM    1  C4  UNL     1      22.677  -0.898  54.226  1.00  0.00     0.029 C 
HETATM    2  C5  UNL     1      22.175   0.259  53.991  1.00  0.00     0.023 C 
HETATM    3  C6  UNL     1      20.825   0.659  54.659  1.00  0.00     0.108 C 
HETATM    4  C7  UNL     1      20.278   0.013  53.328  1.00  0.00     0.037 C 
HETATM    5  C8  UNL     1      20.434  -1.341  53.498  1.00  0.00     0.007 C 
HETATM    6  C9  UNL     1      21.568  -1.876  54.410  1.00  0.00     0.087 C 
HETATM    7  N2  UNL     1      19.999   1.163  52.569  1.00  0.00    -0.242 NA
HETATM    8  C10 UNL     1      20.893   2.037  52.187  1.00  0.00     0.143 C 
HETATM    9  S1  UNL     1      22.407   1.608  52.747  1.00  0.00    -0.037 SA
ENDROOT
BRANCH   9  10
HETATM   10  N3  UNL     1      23.711   1.126  51.585  1.00  0.00    -0.330 N 
HETATM   11  H12 UNL     1      24.053   0.152  51.364  1.00  0.00     0.174 HD
BRANCH  10  12
HETATM   12  C11 UNL     1      24.350   2.224  50.883  1.00  0.00     0.039 A 
HETATM   13  C12 UNL     1      25.716   2.433  51.067  1.00  0.00     0.030 A 
HETATM   14  C13 UNL     1      26.259   3.487  50.375  1.00  0.00     0.004 A 
HETATM   15  C14 UNL     1      25.602   4.346  49.529  1.00  0.00     0.019 A 
HETATM   16  C15 UNL     1      24.270   4.108  49.376  1.00  0.00     0.013 A 
HETATM   17 BR1  UNL     1      23.132   5.167  48.241  1.00  0.00    -0.051 Br
HETATM   18  C16 UNL     1      23.609   3.056  50.036  1.00  0.00     0.049 A 
ENDBRANCH  10  12
ENDBRANCH   9  10
BRANCH   1  19
HETATM   19  N1  UNL     1      24.035  -0.705  54.215  1.00  0.00    -0.329 N 
HETATM   20  C3  UNL     1      25.360  -0.547  54.310  1.00  0.00     0.221 C 
HETATM   21  O1  UNL     1      25.458  -0.939  55.531  1.00  0.00    -0.273 OA
HETATM   22  H6  UNL     1      23.922  -0.368  53.191  1.00  0.00     0.168 HD
BRANCH  20  23
HETATM   23  C2  UNL     1      26.569  -0.144  53.618  1.00  0.00     0.098 C 
HETATM   24  C1  UNL     1      26.732  -0.931  52.328  1.00  0.00     0.014 C 
ENDBRANCH  20  23
ENDBRANCH   1  19
TORSDOF 4
ENDMDL
MODEL 5
REMARK VINA RESULT:      -7.0      2.122      4.304
REMARK  4 active torsions:
REMARK  status: ('A' for Active; 'I' for Inactive)
REMARK    1  A    between atoms: C2_2  and  C3_3 
REMARK       I    between atoms: C3_3  and  N1_5 
REMARK    2  A    between atoms: N1_5  and  C4_6 
REMARK    3  A    between atoms: S1_14  and  N3_15 
REMARK    4  A    between atoms: N3_15  and  C11_16 
ROOT
HETATM    1  C4  UNL     1      21.758   1.034  50.892  1.00  0.00     0.029 C 
HETATM    2  C5  UNL     1      22.541   2.047  50.975  1.00  0.00     0.023 C 
HETATM    3  C6  UNL     1      22.160   3.372  50.249  1.00  0.00     0.108 C 
HETATM    4  C7  UNL     1      22.985   2.672  49.102  1.00  0.00     0.037 C 
HETATM    5  C8  UNL     1      22.159   1.687  48.619  1.00  0.00     0.007 C 
HETATM    6  C9  UNL     1      21.104   1.039  49.553  1.00  0.00     0.087 C 
HETATM    7  N2  UNL     1      24.218   3.338  49.216  1.00  0.00    -0.242 NA
HETATM    8  C10 UNL     1      24.990   3.298  50.270  1.00  0.00     0.143 C 
HETATM    9  S1  UNL     1      24.295   2.366  51.469  1.00  0.00    -0.037 SA
ENDROOT
BRANCH   9  10
HETATM   10  N3  UNL     1      25.062   0.805  51.976  1.00  0.00    -0.330 N 
HETATM   11  H12 UNL     1      24.659  -0.169  51.901  1.00  0.00     0.174 HD
BRANCH  10  12
HETATM   12  C11 UNL     1      26.387   0.926  52.553  1.00  0.00     0.039 A 
HETATM   13  C12 UNL     1      26.828   2.182  52.967  1.00  0.00     0.030 A 
HETATM   14  C13 UNL     1      28.090   2.229  53.503  1.00  0.00     0.004 A 
HETATM   15  C14 UNL     1      28.955   1.176  53.673  1.00  0.00     0.019 A 
HETATM   16  C15 UNL     1      28.488  -0.034  53.257  1.00  0.00     0.013 A 
HETATM   17 BR1  UNL     1      29.506  -1.661  53.393  1.00  0.00    -0.051 Br
HETATM   18  C16 UNL     1      27.210  -0.198  52.693  1.00  0.00     0.049 A 
ENDBRANCH  10  12
ENDBRANCH   9  10
BRANCH   1  19
HETATM   19  N1  UNL     1      21.869   0.399  52.102  1.00  0.00    -0.329 N 
HETATM   20  C3  UNL     1      22.036  -0.298  53.233  1.00  0.00     0.221 C 
HETATM   21  O1  UNL     1      22.775  -1.216  52.719  1.00  0.00    -0.273 OA
HETATM   22  H6  UNL     1      21.234   1.180  52.507  1.00  0.00     0.168 HD
BRANCH  20  23
HETATM   23  C2  UNL     1      21.722  -0.377  54.646  1.00  0.00     0.098 C 
HETATM   24  C1  UNL     1      22.803  -1.146  55.389  1.00  0.00     0.014 C 
ENDBRANCH  20  23
ENDBRANCH   1  19
TORSDOF 4
ENDMDL
MODEL 6
REMARK VINA RESULT:      -6.7      2.016      2.748
REMARK  4 active torsions:
REMARK  status: ('A' for Active; 'I' for Inactive)
REMARK    1  A    between atoms: C2_2  and  C3_3 
REMARK       I    between atoms: C3_3  and  N1_5 
REMARK    2  A    between atoms: N1_5  and  C4_6 
REMARK    3  A    between atoms: S1_14  and  N3_15 
REMARK    4  A    between atoms: N3_15  and  C11_16 
ROOT
HETATM    1  C4  UNL     1      22.017   3.045  50.933  1.00  0.00     0.029 C 
HETATM    2  C5  UNL     1      21.936   1.852  51.400  1.00  0.00     0.023 C 
HETATM    3  C6  UNL     1      20.607   1.054  51.239  1.00  0.00     0.108 C 
HETATM    4  C7  UNL     1      20.328   1.751  52.625  1.00  0.00     0.037 C 
HETATM    5  C8  UNL     1      20.059   3.062  52.319  1.00  0.00     0.007 C 
HETATM    6  C9  UNL     1      20.685   3.701  51.052  1.00  0.00     0.087 C 
HETATM    7  N2  UNL     1      20.605   0.696  53.513  1.00  0.00    -0.242 NA
HETATM    8  C10 UNL     1      21.772   0.121  53.643  1.00  0.00     0.143 C 
HETATM    9  S1  UNL     1      22.878   0.797  52.592  1.00  0.00    -0.037 SA
ENDROOT
BRANCH   9  10
HETATM   10  N3  UNL     1      24.290   1.738  53.229  1.00  0.00    -0.330 N 
HETATM   11  H12 UNL     1      24.296   2.729  53.593  1.00  0.00     0.174 HD
BRANCH  10  12
HETATM   12  C11 UNL     1      25.555   1.028  53.232  1.00  0.00     0.039 A 
HETATM   13  C12 UNL     1      25.591  -0.283  52.759  1.00  0.00     0.030 A 
HETATM   14  C13 UNL     1      26.817  -0.898  52.788  1.00  0.00     0.004 A 
HETATM   15  C14 UNL     1      28.001  -0.360  53.230  1.00  0.00     0.019 A 
HETATM   16  C15 UNL     1      27.925   0.922  53.683  1.00  0.00     0.013 A 
HETATM   17 BR1  UNL     1      29.444   1.899  54.347  1.00  0.00    -0.051 Br
HETATM   18  C16 UNL     1      26.720   1.648  53.698  1.00  0.00     0.049 A 
ENDBRANCH  10  12
ENDBRANCH   9  10
BRANCH   1  19
HETATM   19  N1  UNL     1      23.317   3.174  50.514  1.00  0.00    -0.329 N 
HETATM   20  C3  UNL     1      24.546   3.343  50.013  1.00  0.00     0.221 C 
HETATM   21  O1  UNL     1      24.170   3.888  48.910  1.00  0.00    -0.273 OA
HETATM   22  H6  UNL     1      23.605   2.701  51.446  1.00  0.00     0.168 HD
BRANCH  20  23
HETATM   23  C2  UNL     1      25.966   3.154  50.238  1.00  0.00     0.098 C 
HETATM   24  C1  UNL     1      26.775   4.053  49.317  1.00  0.00     0.014 C 
ENDBRANCH  20  23
ENDBRANCH   1  19
TORSDOF 4
ENDMDL
MODEL 7
REMARK VINA RESULT:      -6.7      2.666      4.897
REMARK  4 active torsions:
REMARK  status: ('A' for Active; 'I' for Inactive)
REMARK    1  A    between atoms: C2_2  and  C3_3 
REMARK       I    between atoms: C3_3  and  N1_5 
REMARK    2  A    between atoms: N1_5  and  C4_6 
REMARK    3  A    between atoms: S1_14  and  N3_15 
REMARK    4  A    between atoms: N3_15  and  C11_16 
ROOT
HETATM    1  C4  UNL     1      20.650   2.749  51.566  1.00  0.00     0.029 C 
HETATM    2  C5  UNL     1      21.664   3.517  51.736  1.00  0.00     0.023 C 
HETATM    3  C6  UNL     1      21.497   5.057  51.570  1.00  0.00     0.108 C 
HETATM    4  C7  UNL     1      21.878   4.673  50.089  1.00  0.00     0.037 C 
HETATM    5  C8  UNL     1      20.753   4.079  49.572  1.00  0.00     0.007 C 
HETATM    6  C9  UNL     1      19.771   3.337  50.517  1.00  0.00     0.087 C 
HETATM    7  N2  UNL     1      23.237   5.032  50.063  1.00  0.00    -0.242 NA
HETATM    8  C10 UNL     1      24.164   4.491  50.810  1.00  0.00     0.143 C 
HETATM    9  S1  UNL     1      23.503   3.333  51.815  1.00  0.00    -0.037 SA
ENDROOT
BRANCH   9  10
HETATM   10  N3  UNL     1      23.934   1.586  51.607  1.00  0.00    -0.330 N 
HETATM   11  H12 UNL     1      23.540   0.901  50.906  1.00  0.00     0.174 HD
BRANCH  10  12
HETATM   12  C11 UNL     1      24.943   1.085  52.521  1.00  0.00     0.039 A 
HETATM   13  C12 UNL     1      24.689  -0.092  53.223  1.00  0.00     0.030 A 
HETATM   14  C13 UNL     1      25.683  -0.512  54.071  1.00  0.00     0.004 A 
HETATM   15  C14 UNL     1      26.890   0.102  54.296  1.00  0.00     0.019 A 
HETATM   16  C15 UNL     1      27.101   1.248  53.592  1.00  0.00     0.013 A 
HETATM   17 BR1  UNL     1      28.715   2.289  53.727  1.00  0.00    -0.051 Br
HETATM   18  C16 UNL     1      26.152   1.770  52.696  1.00  0.00     0.049 A 
ENDBRANCH  10  12
ENDBRANCH   9  10
BRANCH   1  19
HETATM   19  N1  UNL     1      20.830   1.721  52.456  1.00  0.00    -0.329 N 
HETATM   20  C3  UNL     1      21.032   0.654  53.238  1.00  0.00     0.221 C 
HETATM   21  O1  UNL     1      21.396  -0.141  52.294  1.00  0.00    -0.273 OA
HETATM   22  H6  UNL     1      20.508   2.408  53.230  1.00  0.00     0.168 HD
BRANCH  20  23
HETATM   23  C2  UNL     1      20.991   0.139  54.593  1.00  0.00     0.098 C 
HETATM   24  C1  UNL     1      21.441  -1.313  54.625  1.00  0.00     0.014 C 
ENDBRANCH  20  23
ENDBRANCH   1  19
TORSDOF 4
ENDMDL
MODEL 8
REMARK VINA RESULT:      -6.7      3.349      4.666
REMARK  4 active torsions:
REMARK  status: ('A' for Active; 'I' for Inactive)
REMARK    1  A    between atoms: C2_2  and  C3_3 
REMARK       I    between atoms: C3_3  and  N1_5 
REMARK    2  A    between atoms: N1_5  and  C4_6 
REMARK    3  A    between atoms: S1_14  and  N3_15 
REMARK    4  A    between atoms: N3_15  and  C11_16 
ROOT
HETATM    1  C4  UNL     1      20.937   0.740  53.159  1.00  0.00     0.029 C 
HETATM    2  C5  UNL     1      22.098   0.344  52.782  1.00  0.00     0.023 C 
HETATM    3  C6  UNL     1      22.445  -1.174  52.839  1.00  0.00     0.108 C 
HETATM    4  C7  UNL     1      22.923  -0.741  54.277  1.00  0.00     0.037 C 
HETATM    5  C8  UNL     1      21.769  -0.557  54.998  1.00  0.00     0.007 C 
HETATM    6  C9  UNL     1      20.466  -0.134  54.269  1.00  0.00     0.087 C 
HETATM    7  N2  UNL     1      24.312  -0.648  54.080  1.00  0.00    -0.242 NA
HETATM    8  C10 UNL     1      24.892   0.187  53.257  1.00  0.00     0.143 C 
HETATM    9  S1  UNL     1      23.751   1.108  52.458  1.00  0.00    -0.037 SA
ENDROOT
BRANCH   9  10
HETATM   10  N3  UNL     1      23.647   2.893  52.750  1.00  0.00    -0.330 N 
HETATM   11  H12 UNL     1      23.340   3.388  53.631  1.00  0.00     0.174 HD
BRANCH  10  12
HETATM   12  C11 UNL     1      24.037   3.726  51.629  1.00  0.00     0.039 A 
HETATM   13  C12 UNL     1      24.718   3.142  50.562  1.00  0.00     0.030 A 
HETATM   14  C13 UNL     1      25.058   3.985  49.534  1.00  0.00     0.004 A 
HETATM   15  C14 UNL     1      24.797   5.330  49.448  1.00  0.00     0.019 A 
HETATM   16  C15 UNL     1      24.130   5.863  50.508  1.00  0.00     0.013 A 
HETATM   17 BR1  UNL     1      23.643   7.721  50.623  1.00  0.00    -0.051 Br
HETATM   18  C16 UNL     1      23.733   5.093  51.616  1.00  0.00     0.049 A 
ENDBRANCH  10  12
ENDBRANCH   9  10
BRANCH   1  19
HETATM   19  N1  UNL     1      20.643   1.803  52.344  1.00  0.00    -0.329 N 
HETATM   20  C3  UNL     1      20.371   2.906  51.635  1.00  0.00     0.221 C 
HETATM   21  O1  UNL     1      20.568   3.738  52.596  1.00  0.00    -0.273 OA
HETATM   22  H6  UNL     1      20.472   1.080  51.555  1.00  0.00     0.168 HD
BRANCH  20  23
HETATM   23  C2  UNL     1      19.983   3.430  50.340  1.00  0.00     0.098 C 
HETATM   24  C1  UNL     1      21.165   3.416  49.384  1.00  0.00     0.014 C 
ENDBRANCH  20  23
ENDBRANCH   1  19
TORSDOF 4
ENDMDL
MODEL 9
REMARK VINA RESULT:      -6.6      2.616      4.869
REMARK  4 active torsions:
REMARK  status: ('A' for Active; 'I' for Inactive)
REMARK    1  A    between atoms: C2_2  and  C3_3 
REMARK       I    between atoms: C3_3  and  N1_5 
REMARK    2  A    between atoms: N1_5  and  C4_6 
REMARK    3  A    between atoms: S1_14  and  N3_15 
REMARK    4  A    between atoms: N3_15  and  C11_16 
ROOT
HETATM    1  C4  UNL     1      22.927  -0.220  53.981  1.00  0.00     0.029 C 
HETATM    2  C5  UNL     1      21.941   0.529  53.643  1.00  0.00     0.023 C 
HETATM    3  C6  UNL     1      20.646   0.528  54.510  1.00  0.00     0.108 C 
HETATM    4  C7  UNL     1      20.283  -0.621  53.495  1.00  0.00     0.037 C 
HETATM    5  C8  UNL     1      21.040  -1.698  53.888  1.00  0.00     0.007 C 
HETATM    6  C9  UNL     1      22.395  -1.465  54.604  1.00  0.00     0.087 C 
HETATM    7  N2  UNL     1      19.434   0.065  52.608  1.00  0.00    -0.242 NA
HETATM    8  C10 UNL     1      19.797   1.079  51.867  1.00  0.00     0.143 C 
HETATM    9  S1  UNL     1      21.400   1.458  52.139  1.00  0.00    -0.037 SA
ENDROOT
BRANCH   9  10
HETATM   10  N3  UNL     1      22.630   1.232  50.827  1.00  0.00    -0.330 N 
HETATM   11  H12 UNL     1      23.085   0.331  50.515  1.00  0.00     0.174 HD
BRANCH  10  12
HETATM   12  C11 UNL     1      23.025   2.444  50.135  1.00  0.00     0.039 A 
HETATM   13  C12 UNL     1      22.037   3.242  49.561  1.00  0.00     0.030 A 
HETATM   14  C13 UNL     1      22.476   4.374  48.921  1.00  0.00     0.004 A 
HETATM   15  C14 UNL     1      23.776   4.797  48.790  1.00  0.00     0.019 A 
HETATM   16  C15 UNL     1      24.712   3.991  49.365  1.00  0.00     0.013 A 
HETATM   17 BR1  UNL     1      26.598   4.368  49.325  1.00  0.00    -0.051 Br
HETATM   18  C16 UNL     1      24.374   2.808  50.046  1.00  0.00     0.049 A 
ENDBRANCH  10  12
ENDBRANCH   9  10
BRANCH   1  19
HETATM   19  N1  UNL     1      24.047   0.484  53.622  1.00  0.00    -0.329 N 
HETATM   20  C3  UNL     1      25.156   1.098  53.191  1.00  0.00     0.221 C 
HETATM   21  O1  UNL     1      25.378   0.303  52.205  1.00  0.00    -0.273 OA
HETATM   22  H6  UNL     1      23.843   1.132  54.467  1.00  0.00     0.168 HD
BRANCH  20  23
HETATM   23  C2  UNL     1      26.077   2.196  53.411  1.00  0.00     0.098 C 
HETATM   24  C1  UNL     1      27.415   1.910  52.748  1.00  0.00     0.014 C 
ENDBRANCH  20  23
ENDBRANCH   1  19
TORSDOF 4
ENDMDL
