MODEL 1
REMARK VINA RESULT:      -8.2      0.000      0.000
REMARK  4 active torsions:
REMARK  status: ('A' for Active; 'I' for Inactive)
REMARK    1  A    between atoms: C4_4  and  N1_5 
REMARK    2  A    between atoms: C8_11  and  C9_12 
REMARK    3  A    between atoms: C9_12  and  C10_13 
REMARK    4  A    between atoms: C10_13  and  N4_14 
REMARK       I    between atoms: N5_17  and  C13_18 
ROOT
HETATM    1  C1  UNL     1      28.249   2.407  53.715  1.00  0.00     0.038 C 
HETATM    2  C2  UNL     1      27.543   1.333  53.532  1.00  0.00     0.018 C 
HETATM    3  C3  UNL     1      27.985  -0.048  53.230  1.00  0.00     0.056 A 
HETATM    4  C4  UNL     1      29.301  -0.555  53.331  1.00  0.00     0.136 A 
HETATM    5  N2  UNL     1      29.588  -1.894  53.267  1.00  0.00    -0.224 NA
HETATM    6  C5  UNL     1      28.537  -2.752  53.099  1.00  0.00     0.235 A 
HETATM    7  N3  UNL     1      27.239  -2.310  52.990  1.00  0.00    -0.244 NA
HETATM    8  C6  UNL     1      27.001  -0.988  53.052  1.00  0.00     0.071 A 
HETATM    9  C7  UNL     1      25.803  -0.196  52.718  1.00  0.00     0.135 A 
HETATM   10  C8  UNL     1      24.819   0.490  53.391  1.00  0.00     0.090 A 
HETATM   11  N6  UNL     1      26.162   1.025  53.533  1.00  0.00    -0.265 NA
ENDROOT
BRANCH  10  12
HETATM   12  C9  UNL     1      23.851   1.368  52.640  1.00  0.00     0.041 C 
BRANCH  12  13
HETATM   13  C10 UNL     1      24.169   2.817  52.913  1.00  0.00     0.118 C 
BRANCH  13  14
HETATM   14  N4  UNL     1      24.223   3.655  51.769  1.00  0.00    -0.409 N 
HETATM   15  C11 UNL     1      24.448   3.030  50.511  1.00  0.00     0.136 C 
HETATM   16  C12 UNL     1      24.291   4.125  49.446  1.00  0.00     0.145 C 
HETATM   17  N5  UNL     1      24.707   5.426  49.991  1.00  0.00    -0.349 N 
HETATM   18  C13 UNL     1      25.813   6.289  49.706  1.00  0.00     0.215 C 
HETATM   19  C15 UNL     1      23.798   5.928  51.035  1.00  0.00     0.145 C 
HETATM   20  C14 UNL     1      26.824   5.941  48.685  1.00  0.00     0.117 C 
HETATM   21  O1  UNL     1      26.132   7.418  50.212  1.00  0.00    -0.274 OA
HETATM   22  C16 UNL     1      23.207   4.685  51.713  1.00  0.00     0.136 C 
ENDBRANCH  13  14
ENDBRANCH  12  13
ENDBRANCH  10  12
BRANCH   4  23
HETATM   23  N1  UNL     1      30.464   0.245  53.508  1.00  0.00    -0.383 N 
HETATM   24  H3  UNL     1      31.350  -0.226  53.699  1.00  0.00     0.157 HD
HETATM   25  H4  UNL     1      30.477   1.301  53.456  1.00  0.00     0.157 HD
ENDBRANCH   4  23
TORSDOF 4
ENDMDL
MODEL 2
REMARK VINA RESULT:      -7.6      1.731      2.228
REMARK  4 active torsions:
REMARK  status: ('A' for Active; 'I' for Inactive)
REMARK    1  A    between atoms: C4_4  and  N1_5 
REMARK    2  A    between atoms: C8_11  and  C9_12 
REMARK    3  A    between atoms: C9_12  and  C10_13 
REMARK    4  A    between atoms: C10_13  and  N4_14 
REMARK       I    between atoms: N5_17  and  C13_18 
ROOT
HETATM    1  C1  UNL     1      26.028   2.845  53.780  1.00  0.00     0.038 C 
HETATM    2  C2  UNL     1      26.092   1.550  53.714  1.00  0.00     0.018 C 
HETATM    3  C3  UNL     1      27.263   0.672  53.486  1.00  0.00     0.056 A 
HETATM    4  C4  UNL     1      28.624   1.047  53.548  1.00  0.00     0.136 A 
HETATM    5  N2  UNL     1      29.647   0.134  53.564  1.00  0.00    -0.224 NA
HETATM    6  C5  UNL     1      29.305  -1.189  53.518  1.00  0.00     0.235 A 
HETATM    7  N3  UNL     1      27.996  -1.607  53.452  1.00  0.00    -0.244 NA
HETATM    8  C6  UNL     1      27.023  -0.679  53.433  1.00  0.00     0.071 A 
HETATM    9  C7  UNL     1      25.588  -0.777  53.112  1.00  0.00     0.135 A 
HETATM   10  C8  UNL     1      24.392  -0.742  53.789  1.00  0.00     0.090 A 
HETATM   11  N6  UNL     1      25.159   0.490  53.816  1.00  0.00    -0.265 NA
ENDROOT
BRANCH  10  12
HETATM   12  C9  UNL     1      23.088  -0.674  53.034  1.00  0.00     0.041 C 
BRANCH  12  13
HETATM   13  C10 UNL     1      22.364   0.599  53.394  1.00  0.00     0.118 C 
BRANCH  13  14
HETATM   14  N4  UNL     1      22.425   1.631  52.420  1.00  0.00    -0.409 N 
HETATM   15  C11 UNL     1      22.913   1.283  51.131  1.00  0.00     0.136 C 
HETATM   16  C12 UNL     1      22.716   2.519  50.242  1.00  0.00     0.145 C 
HETATM   17  N5  UNL     1      22.834   3.746  51.046  1.00  0.00    -0.349 N 
HETATM   18  C13 UNL     1      23.808   4.795  51.079  1.00  0.00     0.215 C 
HETATM   19  C15 UNL     1      21.726   3.915  52.001  1.00  0.00     0.145 C 
HETATM   20  C14 UNL     1      24.987   4.784  50.188  1.00  0.00     0.117 C 
HETATM   21  O1  UNL     1      23.866   5.846  51.803  1.00  0.00    -0.274 OA
HETATM   22  C16 UNL     1      21.268   2.498  52.370  1.00  0.00     0.136 C 
ENDBRANCH  13  14
ENDBRANCH  12  13
ENDBRANCH  10  12
BRANCH   4  23
HETATM   23  N1  UNL     1      29.092   2.390  53.601  1.00  0.00    -0.383 N 
HETATM   24  H3  UNL     1      29.760   2.698  52.893  1.00  0.00     0.157 HD
HETATM   25  H4  UNL     1      28.793   3.099  54.328  1.00  0.00     0.157 HD
ENDBRANCH   4  23
TORSDOF 4
ENDMDL
MODEL 3
REMARK VINA RESULT:      -7.6      4.392      7.664
REMARK  4 active torsions:
REMARK  status: ('A' for Active; 'I' for Inactive)
REMARK    1  A    between atoms: C4_4  and  N1_5 
REMARK    2  A    between atoms: C8_11  and  C9_12 
REMARK    3  A    between atoms: C9_12  and  C10_13 
REMARK    4  A    between atoms: C10_13  and  N4_14 
REMARK       I    between atoms: N5_17  and  C13_18 
ROOT
HETATM    1  C1  UNL     1      20.896   0.164  54.660  1.00  0.00     0.038 C 
HETATM    2  C2  UNL     1      20.710   0.665  53.477  1.00  0.00     0.018 C 
HETATM    3  C3  UNL     1      19.731   0.284  52.433  1.00  0.00     0.056 A 
HETATM    4  C4  UNL     1      18.600  -0.549  52.600  1.00  0.00     0.136 A 
HETATM    5  N2  UNL     1      17.614  -0.659  51.655  1.00  0.00    -0.224 NA
HETATM    6  C5  UNL     1      17.755   0.079  50.512  1.00  0.00     0.235 A 
HETATM    7  N3  UNL     1      18.838   0.899  50.299  1.00  0.00    -0.244 NA
HETATM    8  C6  UNL     1      19.787   0.976  51.250  1.00  0.00     0.071 A 
HETATM    9  C7  UNL     1      21.151   1.534  51.223  1.00  0.00     0.135 A 
HETATM   10  C8  UNL     1      21.808   2.633  51.724  1.00  0.00     0.090 A 
HETATM   11  N6  UNL     1      21.306   1.700  52.718  1.00  0.00    -0.265 NA
ENDROOT
BRANCH  10  12
HETATM   12  C9  UNL     1      23.310   2.733  51.633  1.00  0.00     0.041 C 
BRANCH  12  13
HETATM   13  C10 UNL     1      23.901   1.348  51.537  1.00  0.00     0.118 C 
BRANCH  13  14
HETATM   14  N4  UNL     1      24.869   1.029  52.526  1.00  0.00    -0.409 N 
HETATM   15  C11 UNL     1      25.609   2.106  53.087  1.00  0.00     0.136 C 
HETATM   16  C12 UNL     1      26.445   1.512  54.229  1.00  0.00     0.145 C 
HETATM   17  N5  UNL     1      26.806   0.119  53.922  1.00  0.00    -0.349 N 
HETATM   18  C13 UNL     1      28.053  -0.516  53.619  1.00  0.00     0.215 C 
HETATM   19  C15 UNL     1      25.647  -0.788  53.930  1.00  0.00     0.145 C 
HETATM   20  C14 UNL     1      29.318   0.247  53.568  1.00  0.00     0.117 C 
HETATM   21  O1  UNL     1      28.315  -1.739  53.357  1.00  0.00    -0.274 OA
HETATM   22  C16 UNL     1      24.441   0.064  53.515  1.00  0.00     0.136 C 
ENDBRANCH  13  14
ENDBRANCH  12  13
ENDBRANCH  10  12
BRANCH   4  23
HETATM   23  N1  UNL     1      18.352  -1.356  53.745  1.00  0.00    -0.383 N 
HETATM   24  H3  UNL     1      17.397  -1.675  53.914  1.00  0.00     0.157 HD
HETATM   25  H4  UNL     1      19.093  -1.652  54.440  1.00  0.00     0.157 HD
ENDBRANCH   4  23
TORSDOF 4
ENDMDL
MODEL 4
REMARK VINA RESULT:      -7.5      2.047      3.369
REMARK  4 active torsions:
REMARK  status: ('A' for Active; 'I' for Inactive)
REMARK    1  A    between atoms: C4_4  and  N1_5 
REMARK    2  A    between atoms: C8_11  and  C9_12 
REMARK    3  A    between atoms: C9_12  and  C10_13 
REMARK    4  A    between atoms: C10_13  and  N4_14 
REMARK       I    between atoms: N5_17  and  C13_18 
ROOT
HETATM    1  C1  UNL     1      24.297   0.032  53.093  1.00  0.00     0.038 C 
HETATM    2  C2  UNL     1      25.301   0.755  52.701  1.00  0.00     0.018 C 
HETATM    3  C3  UNL     1      26.567   1.073  53.400  1.00  0.00     0.056 A 
HETATM    4  C4  UNL     1      27.074   0.439  54.558  1.00  0.00     0.136 A 
HETATM    5  N2  UNL     1      28.357   0.623  55.003  1.00  0.00    -0.224 NA
HETATM    6  C5  UNL     1      29.158   1.461  54.278  1.00  0.00     0.235 A 
HETATM    7  N3  UNL     1      28.711   2.106  53.148  1.00  0.00    -0.244 NA
HETATM    8  C6  UNL     1      27.444   1.902  52.747  1.00  0.00     0.071 A 
HETATM    9  C7  UNL     1      26.603   2.616  51.769  1.00  0.00     0.135 A 
HETATM   10  C8  UNL     1      26.105   2.395  50.507  1.00  0.00     0.090 A 
HETATM   11  N6  UNL     1      25.609   1.501  51.538  1.00  0.00    -0.265 NA
ENDROOT
BRANCH  10  12
HETATM   12  C9  UNL     1      25.079   3.330  49.917  1.00  0.00     0.041 C 
BRANCH  12  13
HETATM   13  C10 UNL     1      25.030   4.601  50.728  1.00  0.00     0.118 C 
BRANCH  13  14
HETATM   14  N4  UNL     1      25.427   5.778  50.041  1.00  0.00    -0.409 N 
HETATM   15  C11 UNL     1      26.194   5.615  48.855  1.00  0.00     0.136 C 
HETATM   16  C12 UNL     1      26.337   7.011  48.233  1.00  0.00     0.145 C 
HETATM   17  N5  UNL     1      26.355   8.037  49.288  1.00  0.00    -0.349 N 
HETATM   18  C13 UNL     1      27.377   8.916  49.770  1.00  0.00     0.215 C 
HETATM   19  C15 UNL     1      25.061   8.175  49.975  1.00  0.00     0.145 C 
HETATM   20  C14 UNL     1      28.738   8.911  49.193  1.00  0.00     0.117 C 
HETATM   21  O1  UNL     1      27.341   9.795  50.696  1.00  0.00    -0.274 OA
HETATM   22  C16 UNL     1      24.401   6.791  49.914  1.00  0.00     0.136 C 
ENDBRANCH  13  14
ENDBRANCH  12  13
ENDBRANCH  10  12
BRANCH   4  23
HETATM   23  N1  UNL     1      26.332  -0.450  55.384  1.00  0.00    -0.383 N 
HETATM   24  H3  UNL     1      25.814  -0.059  56.172  1.00  0.00     0.157 HD
HETATM   25  H4  UNL     1      26.279  -1.497  55.240  1.00  0.00     0.157 HD
ENDBRANCH   4  23
TORSDOF 4
ENDMDL
MODEL 5
REMARK VINA RESULT:      -7.5      2.752      4.399
REMARK  4 active torsions:
REMARK  status: ('A' for Active; 'I' for Inactive)
REMARK    1  A    between atoms: C4_4  and  N1_5 
REMARK    2  A    between atoms: C8_11  and  C9_12 
REMARK    3  A    between atoms: C9_12  and  C10_13 
REMARK    4  A    between atoms: C10_13  and  N4_14 
REMARK       I    between atoms: N5_17  and  C13_18 
ROOT
HETATM    1  C1  UNL     1      24.080   0.396  53.037  1.00  0.00     0.038 C 
HETATM    2  C2  UNL     1      25.222   0.894  52.676  1.00  0.00     0.018 C 
HETATM    3  C3  UNL     1      26.518   0.907  53.394  1.00  0.00     0.056 A 
HETATM    4  C4  UNL     1      26.858   0.143  54.534  1.00  0.00     0.136 A 
HETATM    5  N2  UNL     1      28.145   0.029  54.994  1.00  0.00    -0.224 NA
HETATM    6  C5  UNL     1      29.119   0.693  54.302  1.00  0.00     0.235 A 
HETATM    7  N3  UNL     1      28.839   1.454  53.191  1.00  0.00    -0.244 NA
HETATM    8  C6  UNL     1      27.563   1.544  52.774  1.00  0.00     0.071 A 
HETATM    9  C7  UNL     1      26.912   2.454  51.815  1.00  0.00     0.135 A 
HETATM   10  C8  UNL     1      26.395   2.386  50.543  1.00  0.00     0.090 A 
HETATM   11  N6  UNL     1      25.702   1.590  51.540  1.00  0.00    -0.265 NA
ENDROOT
BRANCH  10  12
HETATM   12  C9  UNL     1      25.606   3.540  49.977  1.00  0.00     0.041 C 
BRANCH  12  13
HETATM   13  C10 UNL     1      24.833   4.213  51.084  1.00  0.00     0.118 C 
BRANCH  13  14
HETATM   14  N4  UNL     1      23.470   3.828  51.196  1.00  0.00    -0.409 N 
HETATM   15  C11 UNL     1      22.754   4.287  52.335  1.00  0.00     0.136 C 
HETATM   16  C12 UNL     1      21.290   3.878  52.123  1.00  0.00     0.145 C 
HETATM   17  N5  UNL     1      21.219   2.630  51.348  1.00  0.00    -0.349 N 
HETATM   18  C13 UNL     1      20.807   1.300  51.685  1.00  0.00     0.215 C 
HETATM   19  C15 UNL     1      21.662   2.794  49.954  1.00  0.00     0.145 C 
HETATM   20  C14 UNL     1      20.333   0.957  53.042  1.00  0.00     0.117 C 
HETATM   21  O1  UNL     1      20.765   0.243  50.970  1.00  0.00    -0.274 OA
HETATM   22  C16 UNL     1      22.703   3.921  49.972  1.00  0.00     0.136 C 
ENDBRANCH  13  14
ENDBRANCH  12  13
ENDBRANCH  10  12
BRANCH   4  23
HETATM   23  N1  UNL     1      25.929  -0.588  55.325  1.00  0.00    -0.383 N 
HETATM   24  H3  UNL     1      26.074  -1.593  55.437  1.00  0.00     0.157 HD
HETATM   25  H4  UNL     1      25.091  -0.161  55.811  1.00  0.00     0.157 HD
ENDBRANCH   4  23
TORSDOF 4
ENDMDL
MODEL 6
REMARK VINA RESULT:      -7.5      1.804      2.903
REMARK  4 active torsions:
REMARK  status: ('A' for Active; 'I' for Inactive)
REMARK    1  A    between atoms: C4_4  and  N1_5 
REMARK    2  A    between atoms: C8_11  and  C9_12 
REMARK    3  A    between atoms: C9_12  and  C10_13 
REMARK    4  A    between atoms: C10_13  and  N4_14 
REMARK       I    between atoms: N5_17  and  C13_18 
ROOT
HETATM    1  C1  UNL     1      26.875  -2.329  52.424  1.00  0.00     0.038 C 
HETATM    2  C2  UNL     1      26.596  -1.107  52.759  1.00  0.00     0.018 C 
HETATM    3  C3  UNL     1      27.458  -0.077  53.384  1.00  0.00     0.056 A 
HETATM    4  C4  UNL     1      28.865  -0.122  53.517  1.00  0.00     0.136 A 
HETATM    5  N2  UNL     1      29.611   0.968  53.885  1.00  0.00    -0.224 NA
HETATM    6  C5  UNL     1      28.939   2.134  54.128  1.00  0.00     0.235 A 
HETATM    7  N3  UNL     1      27.571   2.228  54.018  1.00  0.00    -0.244 NA
HETATM    8  C6  UNL     1      26.876   1.135  53.659  1.00  0.00     0.071 A 
HETATM    9  C7  UNL     1      25.433   0.838  53.705  1.00  0.00     0.135 A 
HETATM   10  C8  UNL     1      24.394   0.709  52.813  1.00  0.00     0.090 A 
HETATM   11  N6  UNL     1      25.447  -0.283  52.691  1.00  0.00    -0.265 NA
ENDROOT
BRANCH  10  12
HETATM   12  C9  UNL     1      23.058   0.179  53.268  1.00  0.00     0.041 C 
BRANCH  12  13
HETATM   13  C10 UNL     1      22.067   0.269  52.134  1.00  0.00     0.118 C 
BRANCH  13  14
HETATM   14  N4  UNL     1      22.028   1.517  51.458  1.00  0.00    -0.409 N 
HETATM   15  C11 UNL     1      21.950   1.489  50.038  1.00  0.00     0.136 C 
HETATM   16  C12 UNL     1      21.751   2.941  49.583  1.00  0.00     0.145 C 
HETATM   17  N5  UNL     1      22.418   3.861  50.518  1.00  0.00    -0.349 N 
HETATM   18  C13 UNL     1      23.558   4.717  50.390  1.00  0.00     0.215 C 
HETATM   19  C15 UNL     1      21.775   3.899  51.841  1.00  0.00     0.145 C 
HETATM   20  C14 UNL     1      24.324   4.803  49.128  1.00  0.00     0.117 C 
HETATM   21  O1  UNL     1      24.101   5.502  51.239  1.00  0.00    -0.274 OA
HETATM   22  C16 UNL     1      21.157   2.510  52.050  1.00  0.00     0.136 C 
ENDBRANCH  13  14
ENDBRANCH  12  13
ENDBRANCH  10  12
BRANCH   4  23
HETATM   23  N1  UNL     1      29.663  -1.277  53.288  1.00  0.00    -0.383 N 
HETATM   24  H3  UNL     1      30.172  -1.347  52.405  1.00  0.00     0.157 HD
HETATM   25  H4  UNL     1      29.768  -2.077  53.973  1.00  0.00     0.157 HD
ENDBRANCH   4  23
TORSDOF 4
ENDMDL
MODEL 7
REMARK VINA RESULT:      -7.5      3.771      5.593
REMARK  4 active torsions:
REMARK  status: ('A' for Active; 'I' for Inactive)
REMARK    1  A    between atoms: C4_4  and  N1_5 
REMARK    2  A    between atoms: C8_11  and  C9_12 
REMARK    3  A    between atoms: C9_12  and  C10_13 
REMARK    4  A    between atoms: C10_13  and  N4_14 
REMARK       I    between atoms: N5_17  and  C13_18 
ROOT
HETATM    1  C1  UNL     1      26.448  -1.450  52.003  1.00  0.00     0.038 C 
HETATM    2  C2  UNL     1      26.576  -0.190  52.288  1.00  0.00     0.018 C 
HETATM    3  C3  UNL     1      27.535   0.481  53.197  1.00  0.00     0.056 A 
HETATM    4  C4  UNL     1      28.701  -0.086  53.761  1.00  0.00     0.136 A 
HETATM    5  N2  UNL     1      29.660   0.663  54.392  1.00  0.00    -0.224 NA
HETATM    6  C5  UNL     1      29.453   2.013  54.465  1.00  0.00     0.235 A 
HETATM    7  N3  UNL     1      28.333   2.612  53.937  1.00  0.00    -0.244 NA
HETATM    8  C6  UNL     1      27.414   1.841  53.330  1.00  0.00     0.071 A 
HETATM    9  C7  UNL     1      26.029   2.122  52.909  1.00  0.00     0.135 A 
HETATM   10  C8  UNL     1      25.348   2.326  51.733  1.00  0.00     0.090 A 
HETATM   11  N6  UNL     1      25.917   1.001  51.901  1.00  0.00    -0.265 NA
ENDROOT
BRANCH  10  12
HETATM   12  C9  UNL     1      23.841   2.385  51.723  1.00  0.00     0.041 C 
BRANCH  12  13
HETATM   13  C10 UNL     1      23.282   0.984  51.754  1.00  0.00     0.118 C 
BRANCH  13  14
HETATM   14  N4  UNL     1      22.032   0.841  52.411  1.00  0.00    -0.409 N 
HETATM   15  C11 UNL     1      22.034   0.230  53.695  1.00  0.00     0.136 C 
HETATM   16  C12 UNL     1      20.605   0.355  54.240  1.00  0.00     0.145 C 
HETATM   17  N5  UNL     1      19.636   0.325  53.134  1.00  0.00    -0.349 N 
HETATM   18  C13 UNL     1      18.648  -0.631  52.734  1.00  0.00     0.215 C 
HETATM   19  C15 UNL     1      19.707   1.520  52.276  1.00  0.00     0.145 C 
HETATM   20  C14 UNL     1      18.441  -1.889  53.482  1.00  0.00     0.117 C 
HETATM   21  O1  UNL     1      17.825  -0.609  51.757  1.00  0.00    -0.274 OA
HETATM   22  C16 UNL     1      21.164   1.997  52.338  1.00  0.00     0.136 C 
ENDBRANCH  13  14
ENDBRANCH  12  13
ENDBRANCH  10  12
BRANCH   4  23
HETATM   23  N1  UNL     1      29.018  -1.473  53.741  1.00  0.00    -0.383 N 
HETATM   24  H3  UNL     1      29.984  -1.751  53.920  1.00  0.00     0.157 HD
HETATM   25  H4  UNL     1      28.318  -2.243  53.553  1.00  0.00     0.157 HD
ENDBRANCH   4  23
TORSDOF 4
ENDMDL
MODEL 8
REMARK VINA RESULT:      -7.3      2.821      3.700
REMARK  4 active torsions:
REMARK  status: ('A' for Active; 'I' for Inactive)
REMARK    1  A    between atoms: C4_4  and  N1_5 
REMARK    2  A    between atoms: C8_11  and  C9_12 
REMARK    3  A    between atoms: C9_12  and  C10_13 
REMARK    4  A    between atoms: C10_13  and  N4_14 
REMARK       I    between atoms: N5_17  and  C13_18 
ROOT
HETATM    1  C1  UNL     1      24.976   2.837  52.000  1.00  0.00     0.038 C 
HETATM    2  C2  UNL     1      25.042   1.799  52.776  1.00  0.00     0.018 C 
HETATM    3  C3  UNL     1      26.220   1.172  53.417  1.00  0.00     0.056 A 
HETATM    4  C4  UNL     1      27.515   1.728  53.532  1.00  0.00     0.136 A 
HETATM    5  N2  UNL     1      28.483   1.196  54.344  1.00  0.00    -0.224 NA
HETATM    6  C5  UNL     1      28.153   0.080  55.062  1.00  0.00     0.235 A 
HETATM    7  N3  UNL     1      26.910  -0.503  54.982  1.00  0.00    -0.244 NA
HETATM    8  C6  UNL     1      25.991   0.047  54.170  1.00  0.00     0.071 A 
HETATM    9  C7  UNL     1      24.700  -0.462  53.670  1.00  0.00     0.135 A 
HETATM   10  C8  UNL     1      23.364  -0.225  53.888  1.00  0.00     0.090 A 
HETATM   11  N6  UNL     1      24.106   0.880  53.307  1.00  0.00    -0.265 NA
ENDROOT
BRANCH  10  12
HETATM   12  C9  UNL     1      22.322  -0.845  52.990  1.00  0.00     0.041 C 
BRANCH  12  13
HETATM   13  C10 UNL     1      21.084   0.017  52.985  1.00  0.00     0.118 C 
BRANCH  13  14
HETATM   14  N4  UNL     1      20.962   0.901  51.881  1.00  0.00    -0.409 N 
HETATM   15  C11 UNL     1      20.167   0.470  50.784  1.00  0.00     0.136 C 
HETATM   16  C12 UNL     1      20.066   1.663  49.823  1.00  0.00     0.145 C 
HETATM   17  N5  UNL     1      21.289   2.478  49.897  1.00  0.00    -0.349 N 
HETATM   18  C13 UNL     1      22.351   2.721  48.969  1.00  0.00     0.215 C 
HETATM   19  C15 UNL     1      21.435   3.176  51.185  1.00  0.00     0.145 C 
HETATM   20  C14 UNL     1      22.365   2.100  47.628  1.00  0.00     0.117 C 
HETATM   21  O1  UNL     1      23.399   3.443  49.084  1.00  0.00    -0.274 OA
HETATM   22  C16 UNL     1      20.741   2.289  52.227  1.00  0.00     0.136 C 
ENDBRANCH  13  14
ENDBRANCH  12  13
ENDBRANCH  10  12
BRANCH   4  23
HETATM   23  N1  UNL     1      27.963   2.885  52.835  1.00  0.00    -0.383 N 
HETATM   24  H3  UNL     1      28.351   2.765  51.898  1.00  0.00     0.157 HD
HETATM   25  H4  UNL     1      27.924   3.869  53.222  1.00  0.00     0.157 HD
ENDBRANCH   4  23
TORSDOF 4
ENDMDL
MODEL 9
REMARK VINA RESULT:      -7.3      2.469      3.811
REMARK  4 active torsions:
REMARK  status: ('A' for Active; 'I' for Inactive)
REMARK    1  A    between atoms: C4_4  and  N1_5 
REMARK    2  A    between atoms: C8_11  and  C9_12 
REMARK    3  A    between atoms: C9_12  and  C10_13 
REMARK    4  A    between atoms: C10_13  and  N4_14 
REMARK       I    between atoms: N5_17  and  C13_18 
ROOT
HETATM    1  C1  UNL     1      23.985   0.468  52.853  1.00  0.00     0.038 C 
HETATM    2  C2  UNL     1      25.169   0.943  52.611  1.00  0.00     0.018 C 
HETATM    3  C3  UNL     1      26.409   0.845  53.414  1.00  0.00     0.056 A 
HETATM    4  C4  UNL     1      26.639  -0.019  54.510  1.00  0.00     0.136 A 
HETATM    5  N2  UNL     1      27.884  -0.223  55.046  1.00  0.00    -0.224 NA
HETATM    6  C5  UNL     1      28.929   0.450  54.477  1.00  0.00     0.235 A 
HETATM    7  N3  UNL     1      28.758   1.305  53.413  1.00  0.00    -0.244 NA
HETATM    8  C6  UNL     1      27.520   1.481  52.920  1.00  0.00     0.071 A 
HETATM    9  C7  UNL     1      26.973   2.490  51.993  1.00  0.00     0.135 A 
HETATM   10  C8  UNL     1      26.545   2.542  50.688  1.00  0.00     0.090 A 
HETATM   11  N6  UNL     1      25.754   1.702  51.569  1.00  0.00    -0.265 NA
ENDROOT
BRANCH  10  12
HETATM   12  C9  UNL     1      25.843   3.768  50.162  1.00  0.00     0.041 C 
BRANCH  12  13
HETATM   13  C10 UNL     1      24.530   3.367  49.537  1.00  0.00     0.118 C 
BRANCH  13  14
HETATM   14  N4  UNL     1      23.371   3.900  50.160  1.00  0.00    -0.409 N 
HETATM   15  C11 UNL     1      22.377   2.977  50.588  1.00  0.00     0.136 C 
HETATM   16  C12 UNL     1      21.334   3.791  51.366  1.00  0.00     0.145 C 
HETATM   17  N5  UNL     1      21.246   5.155  50.823  1.00  0.00    -0.349 N 
HETATM   18  C13 UNL     1      20.221   5.850  50.103  1.00  0.00     0.215 C 
HETATM   19  C15 UNL     1      22.458   5.952  51.076  1.00  0.00     0.145 C 
HETATM   20  C14 UNL     1      18.938   5.200  49.763  1.00  0.00     0.117 C 
HETATM   21  O1  UNL     1      20.195   7.044  49.650  1.00  0.00    -0.274 OA
HETATM   22  C16 UNL     1      23.619   4.950  51.124  1.00  0.00     0.136 C 
ENDBRANCH  13  14
ENDBRANCH  12  13
ENDBRANCH  10  12
BRANCH   4  23
HETATM   23  N1  UNL     1      25.629  -0.767  55.176  1.00  0.00    -0.383 N 
HETATM   24  H3  UNL     1      24.665  -0.674  54.852  1.00  0.00     0.157 HD
HETATM   25  H4  UNL     1      25.806  -1.419  55.991  1.00  0.00     0.157 HD
ENDBRANCH   4  23
TORSDOF 4
ENDMDL
