MODEL 1
REMARK VINA RESULT:      -8.6      0.000      0.000
REMARK  2 active torsions:
REMARK  status: ('A' for Active; 'I' for Inactive)
REMARK    1  A    between atoms: C4_6  and  C5_7 
REMARK    2  A    between atoms: N3_15  and  C13_16 
ROOT
HETATM    1  N1  UNL     1      17.152   0.458  51.510  1.00  0.00    -0.191 NA
HETATM    2  C1  UNL     1      18.227   0.731  51.761  1.00  0.00     0.110 C 
HETATM    3  C2  UNL     1      19.604   1.079  52.061  1.00  0.00     0.125 C 
HETATM    4  C3  UNL     1      19.877   2.468  52.273  1.00  0.00     0.110 C 
HETATM    5  N2  UNL     1      20.089   3.585  52.427  1.00  0.00    -0.191 NA
HETATM    6  C4  UNL     1      20.539   0.154  52.132  1.00  0.00     0.045 C 
ENDROOT
BRANCH   6   7
HETATM    7  C5  UNL     1      21.975   0.231  52.413  1.00  0.00    -0.034 A 
HETATM    8  C6  UNL     1      22.838   1.003  51.629  1.00  0.00     0.014 A 
HETATM    9  C7  UNL     1      24.180   1.035  51.943  1.00  0.00     0.031 A 
HETATM   10  C8  UNL     1      24.590   0.277  53.047  1.00  0.00     0.037 A 
HETATM   11  C9  UNL     1      23.779  -0.497  53.849  1.00  0.00    -0.029 A 
HETATM   12  N3  UNL     1      25.931   0.185  53.516  1.00  0.00    -0.372 N 
HETATM   13  C10 UNL     1      22.443  -0.507  53.506  1.00  0.00     0.021 A 
HETATM   14  C11 UNL     1      24.639  -1.119  54.915  1.00  0.00     0.060 C 
HETATM   15  C12 UNL     1      25.761  -0.096  54.957  1.00  0.00     0.128 C 
BRANCH  12  16
HETATM   16  C13 UNL     1      27.243   0.319  52.902  1.00  0.00     0.111 A 
HETATM   17  C14 UNL     1      27.828  -1.035  52.852  1.00  0.00    -0.002 A 
HETATM   18  C15 UNL     1      29.011  -1.482  53.243  1.00  0.00    -0.002 A 
HETATM   19  C16 UNL     1      29.872  -0.455  53.816  1.00  0.00    -0.004 A 
HETATM   20  C17 UNL     1      29.417   0.785  53.889  1.00  0.00    -0.024 A 
HETATM   21  C18 UNL     1      28.100   1.384  53.468  1.00  0.00     0.056 A 
ENDBRANCH  12  16
ENDBRANCH   6   7
TORSDOF 2
ENDMDL
MODEL 2
REMARK VINA RESULT:      -8.5      1.539      2.543
REMARK  2 active torsions:
REMARK  status: ('A' for Active; 'I' for Inactive)
REMARK    1  A    between atoms: C4_6  and  C5_7 
REMARK    2  A    between atoms: N3_15  and  C13_16 
ROOT
HETATM    1  N1  UNL     1      17.678   3.627  51.893  1.00  0.00    -0.191 NA
HETATM    2  C1  UNL     1      18.672   3.094  51.751  1.00  0.00     0.110 C 
HETATM    3  C2  UNL     1      19.933   2.397  51.578  1.00  0.00     0.125 C 
HETATM    4  C3  UNL     1      20.174   1.829  50.287  1.00  0.00     0.110 C 
HETATM    5  N2  UNL     1      20.352   1.363  49.254  1.00  0.00    -0.191 NA
HETATM    6  C4  UNL     1      20.800   2.305  52.566  1.00  0.00     0.045 C 
ENDROOT
BRANCH   6   7
HETATM    7  C5  UNL     1      22.118   1.672  52.658  1.00  0.00    -0.034 A 
HETATM    8  C6  UNL     1      22.282   0.381  53.171  1.00  0.00     0.014 A 
HETATM    9  C7  UNL     1      23.548  -0.161  53.232  1.00  0.00     0.031 A 
HETATM   10  C8  UNL     1      24.601   0.637  52.765  1.00  0.00     0.037 A 
HETATM   11  C9  UNL     1      24.490   1.911  52.251  1.00  0.00    -0.029 A 
HETATM   12  N3  UNL     1      25.970   0.248  52.754  1.00  0.00    -0.372 N 
HETATM   13  C10 UNL     1      23.210   2.422  52.205  1.00  0.00     0.021 A 
HETATM   14  C11 UNL     1      25.868   2.376  51.867  1.00  0.00     0.060 C 
HETATM   15  C12 UNL     1      26.528   1.029  51.630  1.00  0.00     0.128 C 
BRANCH  12  16
HETATM   16  C13 UNL     1      26.783  -0.666  53.541  1.00  0.00     0.111 A 
HETATM   17  C14 UNL     1      27.647   0.166  54.400  1.00  0.00    -0.002 A 
HETATM   18  C15 UNL     1      28.954   0.134  54.604  1.00  0.00    -0.002 A 
HETATM   19  C16 UNL     1      29.645  -0.904  53.848  1.00  0.00    -0.004 A 
HETATM   20  C17 UNL     1      28.935  -1.693  53.060  1.00  0.00    -0.024 A 
HETATM   21  C18 UNL     1      27.456  -1.736  52.772  1.00  0.00     0.056 A 
ENDBRANCH  12  16
ENDBRANCH   6   7
TORSDOF 2
ENDMDL
MODEL 3
REMARK VINA RESULT:      -8.3      1.256      2.359
REMARK  2 active torsions:
REMARK  status: ('A' for Active; 'I' for Inactive)
REMARK    1  A    between atoms: C4_6  and  C5_7 
REMARK    2  A    between atoms: N3_15  and  C13_16 
ROOT
HETATM    1  N1  UNL     1      17.183  -0.075  50.463  1.00  0.00    -0.191 NA
HETATM    2  C1  UNL     1      18.161   0.327  50.881  1.00  0.00     0.110 C 
HETATM    3  C2  UNL     1      19.415   0.844  51.396  1.00  0.00     0.125 C 
HETATM    4  C3  UNL     1      19.398   2.191  51.879  1.00  0.00     0.110 C 
HETATM    5  N2  UNL     1      19.379   3.277  52.249  1.00  0.00    -0.191 NA
HETATM    6  C4  UNL     1      20.502   0.099  51.414  1.00  0.00     0.045 C 
ENDROOT
BRANCH   6   7
HETATM    7  C5  UNL     1      21.868   0.368  51.870  1.00  0.00    -0.034 A 
HETATM    8  C6  UNL     1      22.407  -0.263  52.996  1.00  0.00     0.014 A 
HETATM    9  C7  UNL     1      23.699   0.031  53.375  1.00  0.00     0.031 A 
HETATM   10  C8  UNL     1      24.393   0.962  52.590  1.00  0.00     0.037 A 
HETATM   11  C9  UNL     1      23.906   1.609  51.475  1.00  0.00    -0.029 A 
HETATM   12  N3  UNL     1      25.728   1.392  52.831  1.00  0.00    -0.372 N 
HETATM   13  C10 UNL     1      22.610   1.290  51.124  1.00  0.00     0.021 A 
HETATM   14  C11 UNL     1      24.993   2.502  50.946  1.00  0.00     0.060 C 
HETATM   15  C12 UNL     1      26.207   1.762  51.482  1.00  0.00     0.128 C 
BRANCH  12  16
HETATM   16  C13 UNL     1      26.575   1.495  54.009  1.00  0.00     0.111 A 
HETATM   17  C14 UNL     1      27.680   2.408  53.658  1.00  0.00    -0.002 A 
HETATM   18  C15 UNL     1      28.990   2.273  53.791  1.00  0.00    -0.002 A 
HETATM   19  C16 UNL     1      29.397   1.006  54.387  1.00  0.00    -0.004 A 
HETATM   20  C17 UNL     1      28.460   0.139  54.733  1.00  0.00    -0.024 A 
HETATM   21  C18 UNL     1      26.959   0.207  54.628  1.00  0.00     0.056 A 
ENDBRANCH  12  16
ENDBRANCH   6   7
TORSDOF 2
ENDMDL
MODEL 4
REMARK VINA RESULT:      -8.3      2.208      7.708
REMARK  2 active torsions:
REMARK  status: ('A' for Active; 'I' for Inactive)
REMARK    1  A    between atoms: C4_6  and  C5_7 
REMARK    2  A    between atoms: N3_15  and  C13_16 
ROOT
HETATM    1  N1  UNL     1      30.526  -1.670  54.019  1.00  0.00    -0.191 NA
HETATM    2  C1  UNL     1      29.698  -0.927  53.783  1.00  0.00     0.110 C 
HETATM    3  C2  UNL     1      28.631   0.015  53.497  1.00  0.00     0.125 C 
HETATM    4  C3  UNL     1      28.831   1.359  53.947  1.00  0.00     0.110 C 
HETATM    5  N2  UNL     1      28.993   2.430  54.324  1.00  0.00    -0.191 NA
HETATM    6  C4  UNL     1      27.543  -0.363  52.855  1.00  0.00     0.045 C 
ENDROOT
BRANCH   6   7
HETATM    7  C5  UNL     1      26.342   0.368  52.447  1.00  0.00    -0.034 A 
HETATM    8  C6  UNL     1      25.083   0.072  52.980  1.00  0.00     0.014 A 
HETATM    9  C7  UNL     1      23.989   0.796  52.557  1.00  0.00     0.031 A 
HETATM   10  C8  UNL     1      24.222   1.796  51.603  1.00  0.00     0.037 A 
HETATM   11  C9  UNL     1      25.441   2.124  51.050  1.00  0.00    -0.029 A 
HETATM   12  N3  UNL     1      23.217   2.637  51.047  1.00  0.00    -0.372 N 
HETATM   13  C10 UNL     1      26.514   1.380  51.496  1.00  0.00     0.021 A 
HETATM   14  C11 UNL     1      25.222   3.258  50.087  1.00  0.00     0.060 C 
HETATM   15  C12 UNL     1      23.967   3.861  50.694  1.00  0.00     0.128 C 
BRANCH  12  16
HETATM   16  C13 UNL     1      21.786   2.512  50.819  1.00  0.00     0.111 A 
HETATM   17  C14 UNL     1      21.127   2.747  52.118  1.00  0.00    -0.002 A 
HETATM   18  C15 UNL     1      20.210   2.044  52.763  1.00  0.00    -0.002 A 
HETATM   19  C16 UNL     1      19.787   0.838  52.062  1.00  0.00    -0.004 A 
HETATM   20  C17 UNL     1      20.331   0.564  50.888  1.00  0.00    -0.024 A 
HETATM   21  C18 UNL     1      21.366   1.302  50.079  1.00  0.00     0.056 A 
ENDBRANCH  12  16
ENDBRANCH   6   7
TORSDOF 2
ENDMDL
MODEL 5
REMARK VINA RESULT:      -8.1      2.473      7.270
REMARK  2 active torsions:
REMARK  status: ('A' for Active; 'I' for Inactive)
REMARK    1  A    between atoms: C4_6  and  C5_7 
REMARK    2  A    between atoms: N3_15  and  C13_16 
ROOT
HETATM    1  N1  UNL     1      30.267  -1.546  53.817  1.00  0.00    -0.191 NA
HETATM    2  C1  UNL     1      29.397  -0.833  53.647  1.00  0.00     0.110 C 
HETATM    3  C2  UNL     1      28.278   0.070  53.448  1.00  0.00     0.125 C 
HETATM    4  C3  UNL     1      28.491   1.437  53.814  1.00  0.00     0.110 C 
HETATM    5  N2  UNL     1      28.666   2.527  54.124  1.00  0.00    -0.191 NA
HETATM    6  C4  UNL     1      27.136  -0.362  52.952  1.00  0.00     0.045 C 
ENDROOT
BRANCH   6   7
HETATM    7  C5  UNL     1      25.875   0.323  52.656  1.00  0.00    -0.034 A 
HETATM    8  C6  UNL     1      25.798   1.345  51.704  1.00  0.00     0.014 A 
HETATM    9  C7  UNL     1      24.583   1.952  51.468  1.00  0.00     0.031 A 
HETATM   10  C8  UNL     1      23.491   1.492  52.216  1.00  0.00     0.037 A 
HETATM   11  C9  UNL     1      23.517   0.490  53.162  1.00  0.00    -0.029 A 
HETATM   12  N3  UNL     1      22.165   2.000  52.113  1.00  0.00    -0.372 N 
HETATM   13  C10 UNL     1      24.748  -0.095  53.372  1.00  0.00     0.021 A 
HETATM   14  C11 UNL     1      22.121   0.324  53.698  1.00  0.00     0.060 C 
HETATM   15  C12 UNL     1      21.334   0.843  52.508  1.00  0.00     0.128 C 
BRANCH  12  16
HETATM   16  C13 UNL     1      21.583   3.276  51.725  1.00  0.00     0.111 A 
HETATM   17  C14 UNL     1      21.483   3.268  50.254  1.00  0.00    -0.002 A 
HETATM   18  C15 UNL     1      21.875   4.155  49.354  1.00  0.00    -0.002 A 
HETATM   19  C16 UNL     1      22.510   5.337  49.926  1.00  0.00    -0.004 A 
HETATM   20  C17 UNL     1      22.631   5.417  51.240  1.00  0.00    -0.024 A 
HETATM   21  C18 UNL     1      22.212   4.469  52.334  1.00  0.00     0.056 A 
ENDBRANCH  12  16
ENDBRANCH   6   7
TORSDOF 2
ENDMDL
MODEL 6
REMARK VINA RESULT:      -7.9      3.138      7.939
REMARK  2 active torsions:
REMARK  status: ('A' for Active; 'I' for Inactive)
REMARK    1  A    between atoms: C4_6  and  C5_7 
REMARK    2  A    between atoms: N3_15  and  C13_16 
ROOT
HETATM    1  N1  UNL     1      29.376  -2.526  53.460  1.00  0.00    -0.191 NA
HETATM    2  C1  UNL     1      28.828  -1.532  53.402  1.00  0.00     0.110 C 
HETATM    3  C2  UNL     1      28.114  -0.269  53.341  1.00  0.00     0.125 C 
HETATM    4  C3  UNL     1      28.628   0.791  54.153  1.00  0.00     0.110 C 
HETATM    5  N2  UNL     1      29.036   1.631  54.820  1.00  0.00    -0.191 NA
HETATM    6  C4  UNL     1      27.055  -0.123  52.571  1.00  0.00     0.045 C 
ENDROOT
BRANCH   6   7
HETATM    7  C5  UNL     1      26.169   1.019  52.328  1.00  0.00    -0.034 A 
HETATM    8  C6  UNL     1      25.125   1.340  53.201  1.00  0.00     0.014 A 
HETATM    9  C7  UNL     1      24.326   2.427  52.919  1.00  0.00     0.031 A 
HETATM   10  C8  UNL     1      24.623   3.145  51.753  1.00  0.00     0.037 A 
HETATM   11  C9  UNL     1      25.639   2.868  50.864  1.00  0.00    -0.029 A 
HETATM   12  N3  UNL     1      23.906   4.288  51.300  1.00  0.00    -0.372 N 
HETATM   13  C10 UNL     1      26.419   1.774  51.177  1.00  0.00     0.021 A 
HETATM   14  C11 UNL     1      25.593   3.902  49.772  1.00  0.00     0.060 C 
HETATM   15  C12 UNL     1      24.924   5.035  50.530  1.00  0.00     0.128 C 
BRANCH  12  16
HETATM   16  C13 UNL     1      22.545   4.774  51.459  1.00  0.00     0.111 A 
HETATM   17  C14 UNL     1      21.672   3.847  50.713  1.00  0.00    -0.002 A 
HETATM   18  C15 UNL     1      20.730   4.079  49.813  1.00  0.00    -0.002 A 
HETATM   19  C16 UNL     1      20.529   5.493  49.518  1.00  0.00    -0.004 A 
HETATM   20  C17 UNL     1      21.271   6.384  50.153  1.00  0.00    -0.024 A 
HETATM   21  C18 UNL     1      22.352   6.217  51.189  1.00  0.00     0.056 A 
ENDBRANCH  12  16
ENDBRANCH   6   7
TORSDOF 2
ENDMDL
MODEL 7
REMARK VINA RESULT:      -7.9      4.001      6.575
REMARK  2 active torsions:
REMARK  status: ('A' for Active; 'I' for Inactive)
REMARK    1  A    between atoms: C4_6  and  C5_7 
REMARK    2  A    between atoms: N3_15  and  C13_16 
ROOT
HETATM    1  N1  UNL     1      27.971   7.101  47.483  1.00  0.00    -0.191 NA
HETATM    2  C1  UNL     1      27.340   6.514  48.225  1.00  0.00     0.110 C 
HETATM    3  C2  UNL     1      26.549   5.764  49.184  1.00  0.00     0.125 C 
HETATM    4  C3  UNL     1      25.667   6.525  50.015  1.00  0.00     0.110 C 
HETATM    5  N2  UNL     1      24.975   7.145  50.688  1.00  0.00    -0.191 NA
HETATM    6  C4  UNL     1      26.649   4.453  49.270  1.00  0.00     0.045 C 
ENDROOT
BRANCH   6   7
HETATM    7  C5  UNL     1      25.981   3.474  50.132  1.00  0.00    -0.034 A 
HETATM    8  C6  UNL     1      26.701   2.628  50.982  1.00  0.00     0.014 A 
HETATM    9  C7  UNL     1      26.016   1.727  51.769  1.00  0.00     0.031 A 
HETATM   10  C8  UNL     1      24.619   1.723  51.657  1.00  0.00     0.037 A 
HETATM   11  C9  UNL     1      23.866   2.535  50.836  1.00  0.00    -0.029 A 
HETATM   12  N3  UNL     1      23.750   0.862  52.384  1.00  0.00    -0.372 N 
HETATM   13  C10 UNL     1      24.584   3.424  50.063  1.00  0.00     0.021 A 
HETATM   14  C11 UNL     1      22.417   2.195  51.051  1.00  0.00     0.060 C 
HETATM   15  C12 UNL     1      22.498   1.645  52.465  1.00  0.00     0.128 C 
BRANCH  12  16
HETATM   16  C13 UNL     1      23.877  -0.457  52.983  1.00  0.00     0.111 A 
HETATM   17  C14 UNL     1      22.514  -1.011  53.086  1.00  0.00    -0.002 A 
HETATM   18  C15 UNL     1      21.876  -1.558  54.108  1.00  0.00    -0.002 A 
HETATM   19  C16 UNL     1      22.665  -1.619  55.333  1.00  0.00    -0.004 A 
HETATM   20  C17 UNL     1      23.900  -1.146  55.315  1.00  0.00    -0.024 A 
HETATM   21  C18 UNL     1      24.705  -0.518  54.208  1.00  0.00     0.056 A 
ENDBRANCH  12  16
ENDBRANCH   6   7
TORSDOF 2
ENDMDL
MODEL 8
REMARK VINA RESULT:      -7.8      2.834      3.961
REMARK  2 active torsions:
REMARK  status: ('A' for Active; 'I' for Inactive)
REMARK    1  A    between atoms: C4_6  and  C5_7 
REMARK    2  A    between atoms: N3_15  and  C13_16 
ROOT
HETATM    1  N1  UNL     1      22.192   5.780  46.920  1.00  0.00    -0.191 NA
HETATM    2  C1  UNL     1      22.530   5.295  47.892  1.00  0.00     0.110 C 
HETATM    3  C2  UNL     1      22.982   4.678  49.126  1.00  0.00     0.125 C 
HETATM    4  C3  UNL     1      23.094   5.539  50.263  1.00  0.00     0.110 C 
HETATM    5  N2  UNL     1      23.197   6.240  51.166  1.00  0.00    -0.191 NA
HETATM    6  C4  UNL     1      23.265   3.392  49.179  1.00  0.00     0.045 C 
ENDROOT
BRANCH   6   7
HETATM    7  C5  UNL     1      23.729   2.536  50.273  1.00  0.00    -0.034 A 
HETATM    8  C6  UNL     1      25.055   2.562  50.718  1.00  0.00     0.014 A 
HETATM    9  C7  UNL     1      25.433   1.732  51.752  1.00  0.00     0.031 A 
HETATM   10  C8  UNL     1      24.440   0.905  52.293  1.00  0.00     0.037 A 
HETATM   11  C9  UNL     1      23.123   0.844  51.891  1.00  0.00    -0.029 A 
HETATM   12  N3  UNL     1      24.644  -0.017  53.358  1.00  0.00    -0.372 N 
HETATM   13  C10 UNL     1      22.780   1.687  50.855  1.00  0.00     0.021 A 
HETATM   14  C11 UNL     1      22.421  -0.167  52.756  1.00  0.00     0.060 C 
HETATM   15  C12 UNL     1      23.308  -0.101  53.987  1.00  0.00     0.128 C 
BRANCH  12  16
HETATM   16  C13 UNL     1      25.785  -0.766  53.861  1.00  0.00     0.111 A 
HETATM   17  C14 UNL     1      26.539   0.148  54.741  1.00  0.00    -0.002 A 
HETATM   18  C15 UNL     1      27.825   0.456  54.771  1.00  0.00    -0.002 A 
HETATM   19  C16 UNL     1      28.622  -0.231  53.762  1.00  0.00    -0.004 A 
HETATM   20  C17 UNL     1      28.015  -1.072  52.941  1.00  0.00    -0.024 A 
HETATM   21  C18 UNL     1      26.571  -1.487  52.836  1.00  0.00     0.056 A 
ENDBRANCH  12  16
ENDBRANCH   6   7
TORSDOF 2
ENDMDL
MODEL 9
REMARK VINA RESULT:      -7.7      3.517      7.992
REMARK  2 active torsions:
REMARK  status: ('A' for Active; 'I' for Inactive)
REMARK    1  A    between atoms: C4_6  and  C5_7 
REMARK    2  A    between atoms: N3_15  and  C13_16 
ROOT
HETATM    1  N1  UNL     1      29.307  -1.871  53.785  1.00  0.00    -0.191 NA
HETATM    2  C1  UNL     1      28.766  -0.914  53.494  1.00  0.00     0.110 C 
HETATM    3  C2  UNL     1      28.062   0.304  53.135  1.00  0.00     0.125 C 
HETATM    4  C3  UNL     1      28.553   1.517  53.716  1.00  0.00     0.110 C 
HETATM    5  N2  UNL     1      28.943   2.482  54.197  1.00  0.00    -0.191 NA
HETATM    6  C4  UNL     1      27.030   0.277  52.316  1.00  0.00     0.045 C 
ENDROOT
BRANCH   6   7
HETATM    7  C5  UNL     1      26.160   1.337  51.801  1.00  0.00    -0.034 A 
HETATM    8  C6  UNL     1      26.602   2.251  50.840  1.00  0.00     0.014 A 
HETATM    9  C7  UNL     1      25.736   3.226  50.393  1.00  0.00     0.031 A 
HETATM   10  C8  UNL     1      24.449   3.231  50.947  1.00  0.00     0.037 A 
HETATM   11  C9  UNL     1      23.968   2.353  51.895  1.00  0.00    -0.029 A 
HETATM   12  N3  UNL     1      23.426   4.163  50.613  1.00  0.00    -0.372 N 
HETATM   13  C10 UNL     1      24.860   1.391  52.319  1.00  0.00     0.021 A 
HETATM   14  C11 UNL     1      22.539   2.724  52.185  1.00  0.00     0.060 C 
HETATM   15  C12 UNL     1      22.185   3.401  50.872  1.00  0.00     0.128 C 
BRANCH  12  16
HETATM   16  C13 UNL     1      23.406   5.530  50.119  1.00  0.00     0.111 A 
HETATM   17  C14 UNL     1      22.527   6.296  51.024  1.00  0.00    -0.002 A 
HETATM   18  C15 UNL     1      21.510   7.103  50.766  1.00  0.00    -0.002 A 
HETATM   19  C16 UNL     1      21.221   7.254  49.345  1.00  0.00    -0.004 A 
HETATM   20  C17 UNL     1      21.971   6.602  48.473  1.00  0.00    -0.024 A 
HETATM   21  C18 UNL     1      23.143   5.675  48.670  1.00  0.00     0.056 A 
ENDBRANCH  12  16
ENDBRANCH   6   7
TORSDOF 2
ENDMDL
