MODEL 1
REMARK VINA RESULT:      -8.5      0.000      0.000
REMARK  4 active torsions:
REMARK  status: ('A' for Active; 'I' for Inactive)
REMARK    1  A    between atoms: N1_2  and  C3_4 
REMARK    2  A    between atoms: C3_4  and  C4_5 
REMARK    3  A    between atoms: C7_8  and  C8_9 
REMARK    4  A    between atoms: C8_9  and  O2_11 
ROOT
HETATM    1  C4  UNL     1      21.251   2.947  52.264  1.00  0.00     0.012 A 
HETATM    2  C5  UNL     1      20.815   1.752  52.888  1.00  0.00     0.009 C 
HETATM    3  C6  UNL     1      21.454   0.551  53.497  1.00  0.00     0.031 C 
HETATM    4  C7  UNL     1      22.336  -0.355  53.953  1.00  0.00     0.143 C 
HETATM    5  C9  UNL     1      23.742  -0.400  53.958  1.00  0.00    -0.064 C 
HETATM    6  C10 UNL     1      24.892  -0.419  53.953  1.00  0.00     0.057 C 
HETATM    7  S1  UNL     1      26.565  -0.421  53.926  1.00  0.00     0.344 S 
HETATM    8  O3  UNL     1      27.169  -0.153  55.250  1.00  0.00    -0.184 OA
HETATM    9  O4  UNL     1      27.108  -1.662  53.294  1.00  0.00    -0.184 OA
HETATM   10  O5  UNL     1      27.121   0.900  52.871  1.00  0.00    -0.223 OA
HETATM   11  C11 UNL     1      26.024   1.550  52.234  1.00  0.00     0.089 A 
HETATM   12  C12 UNL     1      25.558   2.220  53.340  1.00  0.00     0.035 A 
HETATM   13  C13 UNL     1      24.445   3.001  53.253  1.00  0.00    -0.008 A 
HETATM   14  C14 UNL     1      23.766   3.114  51.994  1.00  0.00     0.021 A 
HETATM   15  C15 UNL     1      24.342   2.386  50.917  1.00  0.00    -0.008 A 
HETATM   16  C16 UNL     1      25.452   1.608  51.002  1.00  0.00     0.035 A 
HETATM   17  C17 UNL     1      22.436   3.813  51.761  1.00  0.00     0.007 A 
HETATM   18  O6  UNL     1      22.447   2.737  52.271  1.00  0.00     0.000 OA
ENDROOT
BRANCH   1  19
HETATM   19  C3  UNL     1      20.082   3.800  51.847  1.00  0.00     0.283 C 
BRANCH  19  20
HETATM   20  N1  UNL     1      19.140   2.906  51.178  1.00  0.00     0.080 N 
HETATM   21  C1  UNL     1      17.783   3.280  51.436  1.00  0.00     0.309 C 
HETATM   22  C2  UNL     1      19.422   2.907  49.758  1.00  0.00     0.309 C 
ENDBRANCH  19  20
ENDBRANCH   1  19
BRANCH   4  23
HETATM   23  C8  UNL     1      21.538  -1.421  54.508  1.00  0.00     0.164 C 
HETATM   24  O1  UNL     1      22.121  -2.173  55.284  1.00  0.00    -0.649 OA
BRANCH  23  25
HETATM   25  O2  UNL     1      20.229  -1.530  54.152  1.00  0.00    -0.775 OA
HETATM   26  H11 UNL     1      19.485  -1.577  54.852  1.00  0.00     0.167 HD
ENDBRANCH  23  25
ENDBRANCH   4  23
TORSDOF 4
ENDMDL
MODEL 2
REMARK VINA RESULT:      -8.1      3.040      5.894
REMARK  4 active torsions:
REMARK  status: ('A' for Active; 'I' for Inactive)
REMARK    1  A    between atoms: N1_2  and  C3_4 
REMARK    2  A    between atoms: C3_4  and  C4_5 
REMARK    3  A    between atoms: C7_8  and  C8_9 
REMARK    4  A    between atoms: C8_9  and  O2_11 
ROOT
HETATM    1  C4  UNL     1      25.891   0.799  52.559  1.00  0.00     0.012 A 
HETATM    2  C5  UNL     1      25.100  -0.006  53.416  1.00  0.00     0.009 C 
HETATM    3  C6  UNL     1      23.649  -0.177  53.710  1.00  0.00     0.031 C 
HETATM    4  C7  UNL     1      22.308  -0.071  53.720  1.00  0.00     0.143 C 
HETATM    5  C9  UNL     1      21.410   0.738  53.000  1.00  0.00    -0.064 C 
HETATM    6  C10 UNL     1      20.691   1.408  52.403  1.00  0.00     0.057 C 
HETATM    7  S1  UNL     1      19.669   2.399  51.524  1.00  0.00     0.344 S 
HETATM    8  O3  UNL     1      18.938   1.681  50.456  1.00  0.00    -0.184 OA
HETATM    9  O4  UNL     1      18.756   3.182  52.411  1.00  0.00    -0.184 OA
HETATM   10  O5  UNL     1      20.646   3.629  50.688  1.00  0.00    -0.223 OA
HETATM   11  C11 UNL     1      22.020   3.537  51.057  1.00  0.00     0.089 A 
HETATM   12  C12 UNL     1      22.308   2.391  50.354  1.00  0.00     0.035 A 
HETATM   13  C13 UNL     1      23.556   1.847  50.407  1.00  0.00    -0.008 A 
HETATM   14  C14 UNL     1      24.563   2.483  51.206  1.00  0.00     0.021 A 
HETATM   15  C15 UNL     1      24.157   3.666  51.882  1.00  0.00    -0.008 A 
HETATM   16  C16 UNL     1      22.914   4.210  51.828  1.00  0.00     0.035 A 
HETATM   17  C17 UNL     1      25.949   1.928  51.496  1.00  0.00     0.007 A 
HETATM   18  O6  UNL     1      25.009   1.479  52.073  1.00  0.00     0.000 OA
ENDROOT
BRANCH   1  19
HETATM   19  C3  UNL     1      27.356   0.493  52.726  1.00  0.00     0.283 C 
BRANCH  19  20
HETATM   20  N1  UNL     1      27.755   1.079  54.004  1.00  0.00     0.080 N 
HETATM   21  C1  UNL     1      28.457   0.136  54.820  1.00  0.00     0.309 C 
HETATM   22  C2  UNL     1      28.562   2.253  53.748  1.00  0.00     0.309 C 
ENDBRANCH  19  20
ENDBRANCH   1  19
BRANCH   4  23
HETATM   23  C8  UNL     1      21.856  -1.025  54.703  1.00  0.00     0.164 C 
HETATM   24  O1  UNL     1      22.691  -1.365  55.536  1.00  0.00    -0.649 OA
BRANCH  23  25
HETATM   25  O2  UNL     1      20.575  -1.479  54.652  1.00  0.00    -0.775 OA
HETATM   26  H11 UNL     1      20.255  -2.251  55.241  1.00  0.00     0.167 HD
ENDBRANCH  23  25
ENDBRANCH   4  23
TORSDOF 4
ENDMDL
MODEL 3
REMARK VINA RESULT:      -7.6      3.722      7.303
REMARK  4 active torsions:
REMARK  status: ('A' for Active; 'I' for Inactive)
REMARK    1  A    between atoms: N1_2  and  C3_4 
REMARK    2  A    between atoms: C3_4  and  C4_5 
REMARK    3  A    between atoms: C7_8  and  C8_9 
REMARK    4  A    between atoms: C8_9  and  O2_11 
ROOT
HETATM    1  C4  UNL     1      25.800   0.588  52.224  1.00  0.00     0.012 A 
HETATM    2  C5  UNL     1      26.575   1.494  51.459  1.00  0.00     0.009 C 
HETATM    3  C6  UNL     1      26.339   2.765  50.718  1.00  0.00     0.031 C 
HETATM    4  C7  UNL     1      25.784   3.861  50.170  1.00  0.00     0.143 C 
HETATM    5  C9  UNL     1      24.475   4.375  50.181  1.00  0.00    -0.064 C 
HETATM    6  C10 UNL     1      23.399   4.780  50.201  1.00  0.00     0.057 C 
HETATM    7  S1  UNL     1      21.823   5.342  50.243  1.00  0.00     0.344 S 
HETATM    8  O3  UNL     1      21.645   6.511  51.132  1.00  0.00    -0.184 OA
HETATM    9  O4  UNL     1      21.284   5.583  48.870  1.00  0.00    -0.184 OA
HETATM   10  O5  UNL     1      20.780   4.067  50.917  1.00  0.00    -0.223 OA
HETATM   11  C11 UNL     1      21.513   2.866  51.146  1.00  0.00     0.089 A 
HETATM   12  C12 UNL     1      22.213   3.300  52.247  1.00  0.00     0.035 A 
HETATM   13  C13 UNL     1      23.118   2.484  52.853  1.00  0.00    -0.008 A 
HETATM   14  C14 UNL     1      23.334   1.166  52.327  1.00  0.00     0.021 A 
HETATM   15  C15 UNL     1      22.550   0.820  51.193  1.00  0.00    -0.008 A 
HETATM   16  C16 UNL     1      21.645   1.633  50.589  1.00  0.00     0.035 A 
HETATM   17  C17 UNL     1      24.409   0.192  52.784  1.00  0.00     0.007 A 
HETATM   18  O6  UNL     1      24.711   1.106  52.084  1.00  0.00     0.000 OA
ENDROOT
BRANCH   1  19
HETATM   19  C3  UNL     1      26.644  -0.552  52.734  1.00  0.00     0.283 C 
BRANCH  19  20
HETATM   20  N1  UNL     1      27.791   0.057  53.404  1.00  0.00     0.080 N 
HETATM   21  C1  UNL     1      27.513   0.334  54.781  1.00  0.00     0.309 C 
HETATM   22  C2  UNL     1      28.933  -0.824  53.268  1.00  0.00     0.309 C 
ENDBRANCH  19  20
ENDBRANCH   1  19
BRANCH   4  23
HETATM   23  C8  UNL     1      26.858   4.525  49.472  1.00  0.00     0.164 C 
HETATM   24  O1  UNL     1      27.595   3.797  48.813  1.00  0.00    -0.649 OA
BRANCH  23  25
HETATM   25  O2  UNL     1      26.990   5.875  49.581  1.00  0.00    -0.775 OA
HETATM   26  H11 UNL     1      26.958   6.485  48.762  1.00  0.00     0.167 HD
ENDBRANCH  23  25
ENDBRANCH   4  23
TORSDOF 4
ENDMDL
MODEL 4
REMARK VINA RESULT:      -7.5      1.709      4.285
REMARK  4 active torsions:
REMARK  status: ('A' for Active; 'I' for Inactive)
REMARK    1  A    between atoms: N1_2  and  C3_4 
REMARK    2  A    between atoms: C3_4  and  C4_5 
REMARK    3  A    between atoms: C7_8  and  C8_9 
REMARK    4  A    between atoms: C8_9  and  O2_11 
ROOT
HETATM    1  C4  UNL     1      19.437   2.292  51.942  1.00  0.00     0.012 A 
HETATM    2  C5  UNL     1      20.227   3.467  51.878  1.00  0.00     0.009 C 
HETATM    3  C6  UNL     1      21.653   3.829  52.119  1.00  0.00     0.031 C 
HETATM    4  C7  UNL     1      22.965   3.799  52.413  1.00  0.00     0.143 C 
HETATM    5  C9  UNL     1      23.831   2.764  52.809  1.00  0.00    -0.064 C 
HETATM    6  C10 UNL     1      24.523   1.905  53.133  1.00  0.00     0.057 C 
HETATM    7  S1  UNL     1      25.506   0.637  53.608  1.00  0.00     0.344 S 
HETATM    8  O3  UNL     1      26.416   0.172  52.538  1.00  0.00    -0.184 OA
HETATM    9  O4  UNL     1      26.231   0.943  54.879  1.00  0.00    -0.184 OA
HETATM   10  O5  UNL     1      24.480  -0.763  54.004  1.00  0.00    -0.223 OA
HETATM   11  C11 UNL     1      23.096  -0.428  53.927  1.00  0.00     0.089 A 
HETATM   12  C12 UNL     1      23.012  -0.368  52.556  1.00  0.00     0.035 A 
HETATM   13  C13 UNL     1      21.836  -0.038  51.953  1.00  0.00    -0.008 A 
HETATM   14  C14 UNL     1      20.689   0.247  52.766  1.00  0.00     0.021 A 
HETATM   15  C15 UNL     1      20.888   0.144  54.170  1.00  0.00    -0.008 A 
HETATM   16  C16 UNL     1      22.060  -0.186  54.772  1.00  0.00     0.035 A 
HETATM   17  C17 UNL     1      19.354   0.777  52.265  1.00  0.00     0.007 A 
HETATM   18  O6  UNL     1      20.278   1.522  52.359  1.00  0.00     0.000 OA
ENDROOT
BRANCH   1  19
HETATM   19  C3  UNL     1      18.007   2.578  51.564  1.00  0.00     0.283 C 
BRANCH  19  20
HETATM   20  N1  UNL     1      18.056   3.288  50.287  1.00  0.00     0.080 N 
HETATM   21  C1  UNL     1      17.968   2.387  49.178  1.00  0.00     0.309 C 
HETATM   22  C2  UNL     1      16.987   4.264  50.254  1.00  0.00     0.309 C 
ENDBRANCH  19  20
ENDBRANCH   1  19
BRANCH   4  23
HETATM   23  C8  UNL     1      23.425   5.157  52.246  1.00  0.00     0.164 C 
HETATM   24  O1  UNL     1      23.179   5.671  51.159  1.00  0.00    -0.649 OA
BRANCH  23  25
HETATM   25  O2  UNL     1      24.084   5.768  53.267  1.00  0.00    -0.775 OA
HETATM   26  H11 UNL     1      25.077   5.599  53.443  1.00  0.00     0.167 HD
ENDBRANCH  23  25
ENDBRANCH   4  23
TORSDOF 4
ENDMDL
MODEL 5
REMARK VINA RESULT:      -7.1      3.016      5.153
REMARK  4 active torsions:
REMARK  status: ('A' for Active; 'I' for Inactive)
REMARK    1  A    between atoms: N1_2  and  C3_4 
REMARK    2  A    between atoms: C3_4  and  C4_5 
REMARK    3  A    between atoms: C7_8  and  C8_9 
REMARK    4  A    between atoms: C8_9  and  O2_11 
ROOT
HETATM    1  C4  UNL     1      25.866   3.412  49.996  1.00  0.00     0.012 A 
HETATM    2  C5  UNL     1      24.590   3.301  49.389  1.00  0.00     0.009 C 
HETATM    3  C6  UNL     1      23.313   2.588  49.673  1.00  0.00     0.031 C 
HETATM    4  C7  UNL     1      22.348   1.827  50.220  1.00  0.00     0.143 C 
HETATM    5  C9  UNL     1      22.302   1.032  51.379  1.00  0.00    -0.064 C 
HETATM    6  C10 UNL     1      22.283   0.387  52.331  1.00  0.00     0.057 C 
HETATM    7  S1  UNL     1      22.288  -0.548  53.719  1.00  0.00     0.344 S 
HETATM    8  O3  UNL     1      21.517   0.054  54.829  1.00  0.00    -0.184 OA
HETATM    9  O4  UNL     1      21.876  -1.957  53.439  1.00  0.00    -0.184 OA
HETATM   10  O5  UNL     1      23.960  -0.679  54.314  1.00  0.00    -0.223 OA
HETATM   11  C11 UNL     1      24.878  -0.060  53.417  1.00  0.00     0.089 A 
HETATM   12  C12 UNL     1      24.552   1.242  53.710  1.00  0.00     0.035 A 
HETATM   13  C13 UNL     1      25.166   2.270  53.060  1.00  0.00    -0.008 A 
HETATM   14  C14 UNL     1      26.156   1.974  52.064  1.00  0.00     0.021 A 
HETATM   15  C15 UNL     1      26.420   0.594  51.849  1.00  0.00    -0.008 A 
HETATM   16  C16 UNL     1      25.810  -0.430  52.498  1.00  0.00     0.035 A 
HETATM   17  C17 UNL     1      26.820   2.987  51.143  1.00  0.00     0.007 A 
HETATM   18  O6  UNL     1      25.705   2.635  50.915  1.00  0.00     0.000 OA
ENDROOT
BRANCH   1  19
HETATM   19  C3  UNL     1      26.768   4.321  49.203  1.00  0.00     0.283 C 
BRANCH  19  20
HETATM   20  N1  UNL     1      25.999   5.537  48.944  1.00  0.00     0.080 N 
HETATM   21  C1  UNL     1      25.501   6.114  50.156  1.00  0.00     0.309 C 
HETATM   22  C2  UNL     1      26.834   6.474  48.223  1.00  0.00     0.309 C 
ENDBRANCH  19  20
ENDBRANCH   1  19
BRANCH   4  23
HETATM   23  C8  UNL     1      21.215   1.952  49.336  1.00  0.00     0.164 C 
HETATM   24  O1  UNL     1      20.540   2.968  49.477  1.00  0.00    -0.649 OA
BRANCH  23  25
HETATM   25  O2  UNL     1      20.966   0.970  48.428  1.00  0.00    -0.775 OA
HETATM   26  H11 UNL     1      21.320   1.023  47.470  1.00  0.00     0.167 HD
ENDBRANCH  23  25
ENDBRANCH   4  23
TORSDOF 4
ENDMDL
MODEL 6
REMARK VINA RESULT:      -7.1      3.296      6.119
REMARK  4 active torsions:
REMARK  status: ('A' for Active; 'I' for Inactive)
REMARK    1  A    between atoms: N1_2  and  C3_4 
REMARK    2  A    between atoms: C3_4  and  C4_5 
REMARK    3  A    between atoms: C7_8  and  C8_9 
REMARK    4  A    between atoms: C8_9  and  O2_11 
ROOT
HETATM    1  C4  UNL     1      24.321   1.243  52.121  1.00  0.00     0.012 A 
HETATM    2  C5  UNL     1      23.741   0.306  53.011  1.00  0.00     0.009 C 
HETATM    3  C6  UNL     1      22.380  -0.243  53.273  1.00  0.00     0.031 C 
HETATM    4  C7  UNL     1      21.063  -0.513  53.235  1.00  0.00     0.143 C 
HETATM    5  C9  UNL     1      20.013  -0.032  52.432  1.00  0.00    -0.064 C 
HETATM    6  C10 UNL     1      19.168   0.372  51.765  1.00  0.00     0.057 C 
HETATM    7  S1  UNL     1      17.957   0.983  50.785  1.00  0.00     0.344 S 
HETATM    8  O3  UNL     1      17.505   0.025  49.752  1.00  0.00    -0.184 OA
HETATM    9  O4  UNL     1      16.822   1.536  51.584  1.00  0.00    -0.184 OA
HETATM   10  O5  UNL     1      18.599   2.382  49.890  1.00  0.00    -0.223 OA
HETATM   11  C11 UNL     1      19.925   2.698  50.305  1.00  0.00     0.089 A 
HETATM   12  C12 UNL     1      20.551   1.636  49.698  1.00  0.00     0.035 A 
HETATM   13  C13 UNL     1      21.896   1.463  49.828  1.00  0.00    -0.008 A 
HETATM   14  C14 UNL     1      22.650   2.403  50.607  1.00  0.00     0.021 A 
HETATM   15  C15 UNL     1      21.901   3.467  51.181  1.00  0.00    -0.008 A 
HETATM   16  C16 UNL     1      20.560   3.640  51.050  1.00  0.00     0.035 A 
HETATM   17  C17 UNL     1      24.119   2.274  50.979  1.00  0.00     0.007 A 
HETATM   18  O6  UNL     1      23.311   1.619  51.559  1.00  0.00     0.000 OA
ENDROOT
BRANCH   1  19
HETATM   19  C3  UNL     1      25.804   1.367  52.352  1.00  0.00     0.283 C 
BRANCH  19  20
HETATM   20  N1  UNL     1      26.202   0.177  53.101  1.00  0.00     0.080 N 
HETATM   21  C1  UNL     1      26.885  -0.766  52.268  1.00  0.00     0.309 C 
HETATM   22  C2  UNL     1      27.028   0.582  54.219  1.00  0.00     0.309 C 
ENDBRANCH  19  20
ENDBRANCH   1  19
BRANCH   4  23
HETATM   23  C8  UNL     1      20.843  -1.491  54.272  1.00  0.00     0.164 C 
HETATM   24  O1  UNL     1      19.768  -2.083  54.225  1.00  0.00    -0.649 OA
BRANCH  23  25
HETATM   25  O2  UNL     1      21.805  -1.696  55.211  1.00  0.00    -0.775 OA
HETATM   26  H11 UNL     1      22.642  -1.111  55.259  1.00  0.00     0.167 HD
ENDBRANCH  23  25
ENDBRANCH   4  23
TORSDOF 4
ENDMDL
MODEL 7
REMARK VINA RESULT:      -6.9      3.540      5.870
REMARK  4 active torsions:
REMARK  status: ('A' for Active; 'I' for Inactive)
REMARK    1  A    between atoms: N1_2  and  C3_4 
REMARK    2  A    between atoms: C3_4  and  C4_5 
REMARK    3  A    between atoms: C7_8  and  C8_9 
REMARK    4  A    between atoms: C8_9  and  O2_11 
ROOT
HETATM    1  C4  UNL     1      22.641   5.484  49.053  1.00  0.00     0.012 A 
HETATM    2  C5  UNL     1      23.972   5.790  48.675  1.00  0.00     0.009 C 
HETATM    3  C6  UNL     1      25.335   5.281  48.998  1.00  0.00     0.031 C 
HETATM    4  C7  UNL     1      26.375   4.594  49.502  1.00  0.00     0.143 C 
HETATM    5  C9  UNL     1      26.461   3.525  50.413  1.00  0.00    -0.064 C 
HETATM    6  C10 UNL     1      26.511   2.652  51.159  1.00  0.00     0.057 C 
HETATM    7  S1  UNL     1      26.554   1.385  52.252  1.00  0.00     0.344 S 
HETATM    8  O3  UNL     1      26.856   0.081  51.621  1.00  0.00    -0.184 OA
HETATM    9  O4  UNL     1      27.455   1.681  53.408  1.00  0.00    -0.184 OA
HETATM   10  O5  UNL     1      24.939   1.202  52.978  1.00  0.00    -0.223 OA
HETATM   11  C11 UNL     1      24.056   2.231  52.539  1.00  0.00     0.089 A 
HETATM   12  C12 UNL     1      23.869   1.762  51.260  1.00  0.00     0.035 A 
HETATM   13  C13 UNL     1      23.085   2.447  50.383  1.00  0.00    -0.008 A 
HETATM   14  C14 UNL     1      22.457   3.665  50.810  1.00  0.00     0.021 A 
HETATM   15  C15 UNL     1      22.711   4.050  52.155  1.00  0.00    -0.008 A 
HETATM   16  C16 UNL     1      23.492   3.366  53.031  1.00  0.00     0.035 A 
HETATM   17  C17 UNL     1      21.683   4.626  49.921  1.00  0.00     0.007 A 
HETATM   18  O6  UNL     1      22.873   4.621  49.876  1.00  0.00     0.000 OA
ENDROOT
BRANCH   1  19
HETATM   19  C3  UNL     1      21.657   6.384  48.353  1.00  0.00     0.283 C 
BRANCH  19  20
HETATM   20  N1  UNL     1      22.017   6.361  46.937  1.00  0.00     0.080 N 
HETATM   21  C1  UNL     1      21.287   5.356  46.224  1.00  0.00     0.309 C 
HETATM   22  C2  UNL     1      21.785   7.674  46.374  1.00  0.00     0.309 C 
ENDBRANCH  19  20
ENDBRANCH   1  19
BRANCH   4  23
HETATM   23  C8  UNL     1      27.549   5.181  48.903  1.00  0.00     0.164 C 
HETATM   24  O1  UNL     1      28.301   4.398  48.331  1.00  0.00    -0.649 OA
BRANCH  23  25
HETATM   25  O2  UNL     1      27.749   6.523  49.004  1.00  0.00    -0.775 OA
HETATM   26  H11 UNL     1      26.987   7.191  48.870  1.00  0.00     0.167 HD
ENDBRANCH  23  25
ENDBRANCH   4  23
TORSDOF 4
ENDMDL
MODEL 8
REMARK VINA RESULT:      -6.5     11.376     14.250
REMARK  4 active torsions:
REMARK  status: ('A' for Active; 'I' for Inactive)
REMARK    1  A    between atoms: N1_2  and  C3_4 
REMARK    2  A    between atoms: C3_4  and  C4_5 
REMARK    3  A    between atoms: C7_8  and  C8_9 
REMARK    4  A    between atoms: C8_9  and  O2_11 
ROOT
HETATM    1  C4  UNL     1      33.358   5.689  47.909  1.00  0.00     0.012 A 
HETATM    2  C5  UNL     1      34.112   6.522  47.046  1.00  0.00     0.009 C 
HETATM    3  C6  UNL     1      34.063   7.941  46.594  1.00  0.00     0.031 C 
HETATM    4  C7  UNL     1      33.728   9.230  46.407  1.00  0.00     0.143 C 
HETATM    5  C9  UNL     1      32.695  10.032  46.925  1.00  0.00    -0.064 C 
HETATM    6  C10 UNL     1      31.844  10.672  47.358  1.00  0.00     0.057 C 
HETATM    7  S1  UNL     1      30.592  11.578  48.001  1.00  0.00     0.344 S 
HETATM    8  O3  UNL     1      31.038  12.536  49.036  1.00  0.00    -0.184 OA
HETATM    9  O4  UNL     1      29.776  12.232  46.933  1.00  0.00    -0.184 OA
HETATM   10  O5  UNL     1      29.457  10.480  48.823  1.00  0.00    -0.223 OA
HETATM   11  C11 UNL     1      29.831   9.117  48.638  1.00  0.00     0.089 A 
HETATM   12  C12 UNL     1      30.915   9.121  49.483  1.00  0.00     0.035 A 
HETATM   13  C13 UNL     1      31.670   7.999  49.640  1.00  0.00    -0.008 A 
HETATM   14  C14 UNL     1      31.319   6.813  48.912  1.00  0.00     0.021 A 
HETATM   15  C15 UNL     1      30.174   6.920  48.076  1.00  0.00    -0.008 A 
HETATM   16  C16 UNL     1      29.420   8.038  47.921  1.00  0.00     0.035 A 
HETATM   17  C17 UNL     1      32.137   5.532  48.853  1.00  0.00     0.007 A 
HETATM   18  O6  UNL     1      32.483   6.474  48.212  1.00  0.00     0.000 OA
ENDROOT
BRANCH   1  19
HETATM   19  C3  UNL     1      33.932   4.296  47.957  1.00  0.00     0.283 C 
BRANCH  19  20
HETATM   20  N1  UNL     1      33.787   3.747  46.611  1.00  0.00     0.080 N 
HETATM   21  C1  UNL     1      35.033   3.258  46.103  1.00  0.00     0.309 C 
HETATM   22  C2  UNL     1      32.787   2.700  46.638  1.00  0.00     0.309 C 
ENDBRANCH  19  20
ENDBRANCH   1  19
BRANCH   4  23
HETATM   23  C8  UNL     1      34.702   9.748  45.476  1.00  0.00     0.164 C 
HETATM   24  O1  UNL     1      34.272  10.545  44.647  1.00  0.00    -0.649 OA
BRANCH  23  25
HETATM   25  O2  UNL     1      35.995   9.337  45.566  1.00  0.00    -0.775 OA
HETATM   26  H11 UNL     1      36.749   9.985  45.804  1.00  0.00     0.167 HD
ENDBRANCH  23  25
ENDBRANCH   4  23
TORSDOF 4
ENDMDL
MODEL 9
REMARK VINA RESULT:      -6.3      3.377      6.015
REMARK  4 active torsions:
REMARK  status: ('A' for Active; 'I' for Inactive)
REMARK    1  A    between atoms: N1_2  and  C3_4 
REMARK    2  A    between atoms: C3_4  and  C4_5 
REMARK    3  A    between atoms: C7_8  and  C8_9 
REMARK    4  A    between atoms: C8_9  and  O2_11 
ROOT
HETATM    1  C4  UNL     1      22.362   0.444  52.537  1.00  0.00     0.012 A 
HETATM    2  C5  UNL     1      20.970   0.687  52.443  1.00  0.00     0.009 C 
HETATM    3  C6  UNL     1      20.092   1.807  52.001  1.00  0.00     0.031 C 
HETATM    4  C7  UNL     1      19.622   2.978  51.536  1.00  0.00     0.143 C 
HETATM    5  C9  UNL     1      20.257   4.144  51.069  1.00  0.00    -0.064 C 
HETATM    6  C10 UNL     1      20.794   5.088  50.692  1.00  0.00     0.057 C 
HETATM    7  S1  UNL     1      21.602   6.450  50.152  1.00  0.00     0.344 S 
HETATM    8  O3  UNL     1      21.556   6.611  48.682  1.00  0.00    -0.184 OA
HETATM    9  O4  UNL     1      21.157   7.681  50.874  1.00  0.00    -0.184 OA
HETATM   10  O5  UNL     1      23.327   6.290  50.561  1.00  0.00    -0.223 OA
HETATM   11  C11 UNL     1      23.569   5.115  51.331  1.00  0.00     0.089 A 
HETATM   12  C12 UNL     1      23.413   4.207  50.310  1.00  0.00     0.035 A 
HETATM   13  C13 UNL     1      23.525   2.872  50.553  1.00  0.00    -0.008 A 
HETATM   14  C14 UNL     1      23.805   2.425  51.888  1.00  0.00     0.021 A 
HETATM   15  C15 UNL     1      23.956   3.450  52.861  1.00  0.00    -0.008 A 
HETATM   16  C16 UNL     1      23.847   4.782  52.619  1.00  0.00     0.035 A 
HETATM   17  C17 UNL     1      23.807   0.979  52.358  1.00  0.00     0.007 A 
HETATM   18  O6  UNL     1      22.768   1.532  52.184  1.00  0.00     0.000 OA
ENDROOT
BRANCH   1  19
HETATM   19  C3  UNL     1      22.638  -0.935  53.078  1.00  0.00     0.283 C 
BRANCH  19  20
HETATM   20  N1  UNL     1      22.012  -0.991  54.397  1.00  0.00     0.080 N 
HETATM   21  C1  UNL     1      20.945  -1.945  54.436  1.00  0.00     0.309 C 
HETATM   22  C2  UNL     1      23.026  -1.299  55.383  1.00  0.00     0.309 C 
ENDBRANCH  19  20
ENDBRANCH   1  19
BRANCH   4  23
HETATM   23  C8  UNL     1      18.185   2.863  51.592  1.00  0.00     0.164 C 
HETATM   24  O1  UNL     1      17.588   3.858  51.994  1.00  0.00    -0.649 OA
BRANCH  23  25
HETATM   25  O2  UNL     1      17.594   1.700  51.208  1.00  0.00    -0.775 OA
HETATM   26  H11 UNL     1      16.686   1.689  50.738  1.00  0.00     0.167 HD
ENDBRANCH  23  25
ENDBRANCH   4  23
TORSDOF 4
ENDMDL
