MODEL 1
REMARK VINA RESULT:      -7.2      0.000      0.000
REMARK  5 active torsions:
REMARK  status: ('A' for Active; 'I' for Inactive)
REMARK    1  A    between atoms: C4_5  and  C5_6 
REMARK    2  A    between atoms: C6_7  and  C7_8 
REMARK    3  A    between atoms: C7_8  and  C8_9 
REMARK       I    between atoms: C8_9  and  N1_11 
REMARK    4  A    between atoms: N1_11  and  S1_12 
REMARK    5  A    between atoms: S1_12  and  C9_15 
ROOT
HETATM    1  C1  UNL     1      26.948  -1.562  52.608  1.00  0.00     0.018 C 
HETATM    2  C2  UNL     1      26.704  -0.386  52.503  1.00  0.00    -0.070 C 
HETATM    3  C3  UNL     1      26.404   1.007  52.355  1.00  0.00     0.063 C 
HETATM    4 BR1  UNL     1      25.899   2.059  53.857  1.00  0.00    -0.041 Br
HETATM    5  C4  UNL     1      26.470   1.591  51.177  1.00  0.00     0.028 C 
ENDROOT
BRANCH   5   6
HETATM    6  C5  UNL     1      26.286   2.866  50.517  1.00  0.00    -0.002 C 
HETATM    7  C6  UNL     1      25.324   3.625  50.057  1.00  0.00    -0.017 C 
BRANCH   7   8
HETATM    8  C7  UNL     1      23.900   3.856  49.831  1.00  0.00     0.131 C 
BRANCH   8   9
HETATM    9  C8  UNL     1      23.031   3.630  51.028  1.00  0.00     0.234 C 
HETATM   10  O1  UNL     1      22.756   3.841  52.245  1.00  0.00    -0.272 OA
HETATM   11  N1  UNL     1      21.957   2.728  50.661  1.00  0.00    -0.250 N 
HETATM   12  H7  UNL     1      21.809   2.289  49.694  1.00  0.00     0.181 HD
BRANCH  11  13
HETATM   13  S1  UNL     1      20.753   2.242  51.797  1.00  0.00     0.265 S 
HETATM   14  O2  UNL     1      20.306   3.410  52.597  1.00  0.00    -0.200 OA
HETATM   15  O3  UNL     1      19.563   1.650  51.061  1.00  0.00    -0.200 OA
BRANCH  13  16
HETATM   16  C9  UNL     1      21.458   1.002  52.844  1.00  0.00     0.080 A 
HETATM   17  C10 UNL     1      20.805   0.638  54.017  1.00  0.00     0.028 A 
HETATM   18  C11 UNL     1      21.311  -0.328  54.876  1.00  0.00     0.044 A 
HETATM   19  C12 UNL     1      22.497  -0.937  54.548  1.00  0.00     0.116 A 
HETATM   20  F1  UNL     1      23.019  -1.888  55.371  1.00  0.00    -0.206 F 
HETATM   21  C13 UNL     1      23.137  -0.577  53.395  1.00  0.00     0.044 A 
HETATM   22  C14 UNL     1      22.652   0.383  52.522  1.00  0.00     0.028 A 
ENDBRANCH  13  16
ENDBRANCH  11  13
ENDBRANCH   8   9
ENDBRANCH   7   8
ENDBRANCH   5   6
TORSDOF 5
ENDMDL
MODEL 2
REMARK VINA RESULT:      -7.1      3.390      4.845
REMARK  5 active torsions:
REMARK  status: ('A' for Active; 'I' for Inactive)
REMARK    1  A    between atoms: C4_5  and  C5_6 
REMARK    2  A    between atoms: C6_7  and  C7_8 
REMARK    3  A    between atoms: C7_8  and  C8_9 
REMARK       I    between atoms: C8_9  and  N1_11 
REMARK    4  A    between atoms: N1_11  and  S1_12 
REMARK    5  A    between atoms: S1_12  and  C9_15 
ROOT
HETATM    1  C1  UNL     1      20.183   2.149  52.660  1.00  0.00     0.018 C 
HETATM    2  C2  UNL     1      21.258   2.595  52.345  1.00  0.00    -0.070 C 
HETATM    3  C3  UNL     1      22.530   3.119  51.947  1.00  0.00     0.063 C 
HETATM    4 BR1  UNL     1      23.272   4.640  52.816  1.00  0.00    -0.041 Br
HETATM    5  C4  UNL     1      23.216   2.560  50.971  1.00  0.00     0.028 C 
ENDROOT
BRANCH   5   6
HETATM    6  C5  UNL     1      24.451   2.673  50.227  1.00  0.00    -0.002 C 
HETATM    7  C6  UNL     1      25.743   2.733  50.434  1.00  0.00    -0.017 C 
BRANCH   7   8
HETATM    8  C7  UNL     1      26.871   2.740  51.361  1.00  0.00     0.131 C 
BRANCH   8   9
HETATM    9  C8  UNL     1      26.637   1.996  52.638  1.00  0.00     0.234 C 
HETATM   10  O1  UNL     1      26.310   1.981  53.861  1.00  0.00    -0.272 OA
HETATM   11  N1  UNL     1      26.903   0.588  52.413  1.00  0.00    -0.250 N 
HETATM   12  H7  UNL     1      27.220   0.150  51.488  1.00  0.00     0.181 HD
BRANCH  11  13
HETATM   13  S1  UNL     1      26.732  -0.579  53.672  1.00  0.00     0.265 S 
HETATM   14  O2  UNL     1      27.293  -1.884  53.237  1.00  0.00    -0.200 OA
HETATM   15  O3  UNL     1      27.466  -0.105  54.914  1.00  0.00    -0.200 OA
BRANCH  13  16
HETATM   16  C9  UNL     1      25.009  -0.735  54.043  1.00  0.00     0.080 A 
HETATM   17  C10 UNL     1      24.064  -0.427  53.070  1.00  0.00     0.028 A 
HETATM   18  C11 UNL     1      22.700  -0.531  53.306  1.00  0.00     0.044 A 
HETATM   19  C12 UNL     1      22.281  -0.952  54.544  1.00  0.00     0.116 A 
HETATM   20  F1  UNL     1      20.949  -1.063  54.806  1.00  0.00    -0.206 F 
HETATM   21  C13 UNL     1      23.212  -1.254  55.498  1.00  0.00     0.044 A 
HETATM   22  C14 UNL     1      24.578  -1.158  55.287  1.00  0.00     0.028 A 
ENDBRANCH  13  16
ENDBRANCH  11  13
ENDBRANCH   8   9
ENDBRANCH   7   8
ENDBRANCH   5   6
TORSDOF 5
ENDMDL
MODEL 3
REMARK VINA RESULT:      -6.8      2.906      5.354
REMARK  5 active torsions:
REMARK  status: ('A' for Active; 'I' for Inactive)
REMARK    1  A    between atoms: C4_5  and  C5_6 
REMARK    2  A    between atoms: C6_7  and  C7_8 
REMARK    3  A    between atoms: C7_8  and  C8_9 
REMARK       I    between atoms: C8_9  and  N1_11 
REMARK    4  A    between atoms: N1_11  and  S1_12 
REMARK    5  A    between atoms: S1_12  and  C9_15 
ROOT
HETATM    1  C1  UNL     1      27.466   2.386  53.592  1.00  0.00     0.018 C 
HETATM    2  C2  UNL     1      26.782   1.415  53.387  1.00  0.00    -0.070 C 
HETATM    3  C3  UNL     1      25.951   0.276  53.133  1.00  0.00     0.063 C 
HETATM    4 BR1  UNL     1      26.712  -1.387  52.610  1.00  0.00    -0.041 Br
HETATM    5  C4  UNL     1      24.642   0.354  53.256  1.00  0.00     0.028 C 
ENDROOT
BRANCH   5   6
HETATM    6  C5  UNL     1      23.430  -0.428  53.132  1.00  0.00    -0.002 C 
HETATM    7  C6  UNL     1      22.226  -0.335  52.627  1.00  0.00    -0.017 C 
BRANCH   7   8
HETATM    8  C7  UNL     1      21.221   0.434  51.899  1.00  0.00     0.131 C 
BRANCH   8   9
HETATM    9  C8  UNL     1      21.339   1.919  52.050  1.00  0.00     0.234 C 
HETATM   10  O1  UNL     1      20.933   3.011  52.544  1.00  0.00    -0.272 OA
HETATM   11  N1  UNL     1      22.459   2.381  51.255  1.00  0.00    -0.250 N 
HETATM   12  H7  UNL     1      23.098   1.767  50.653  1.00  0.00     0.181 HD
BRANCH  11  13
HETATM   13  S1  UNL     1      22.898   4.048  51.191  1.00  0.00     0.265 S 
HETATM   14  O2  UNL     1      21.874   4.817  50.438  1.00  0.00    -0.200 OA
HETATM   15  O3  UNL     1      23.009   4.605  52.600  1.00  0.00    -0.200 OA
BRANCH  13  16
HETATM   16  C9  UNL     1      24.475   4.169  50.397  1.00  0.00     0.080 A 
HETATM   17  C10 UNL     1      24.829   5.344  49.742  1.00  0.00     0.028 A 
HETATM   18  C11 UNL     1      26.052   5.495  49.103  1.00  0.00     0.044 A 
HETATM   19  C12 UNL     1      26.933   4.443  49.124  1.00  0.00     0.116 A 
HETATM   20  F1  UNL     1      28.141   4.560  48.505  1.00  0.00    -0.206 F 
HETATM   21  C13 UNL     1      26.583   3.288  49.768  1.00  0.00     0.044 A 
HETATM   22  C14 UNL     1      25.369   3.115  50.412  1.00  0.00     0.028 A 
ENDBRANCH  13  16
ENDBRANCH  11  13
ENDBRANCH   8   9
ENDBRANCH   7   8
ENDBRANCH   5   6
TORSDOF 5
ENDMDL
MODEL 4
REMARK VINA RESULT:      -6.4      2.812      4.905
REMARK  5 active torsions:
REMARK  status: ('A' for Active; 'I' for Inactive)
REMARK    1  A    between atoms: C4_5  and  C5_6 
REMARK    2  A    between atoms: C6_7  and  C7_8 
REMARK    3  A    between atoms: C7_8  and  C8_9 
REMARK       I    between atoms: C8_9  and  N1_11 
REMARK    4  A    between atoms: N1_11  and  S1_12 
REMARK    5  A    between atoms: S1_12  and  C9_15 
ROOT
HETATM    1  C1  UNL     1      26.539   3.282  49.720  1.00  0.00     0.018 C 
HETATM    2  C2  UNL     1      26.679   2.598  50.703  1.00  0.00    -0.070 C 
HETATM    3  C3  UNL     1      26.844   1.765  51.856  1.00  0.00     0.063 C 
HETATM    4 BR1  UNL     1      27.985   2.292  53.284  1.00  0.00    -0.041 Br
HETATM    5  C4  UNL     1      26.210   0.615  51.955  1.00  0.00     0.028 C 
ENDROOT
BRANCH   5   6
HETATM    6  C5  UNL     1      26.029  -0.524  52.830  1.00  0.00    -0.002 C 
HETATM    7  C6  UNL     1      25.230  -0.939  53.780  1.00  0.00    -0.017 C 
BRANCH   7   8
HETATM    8  C7  UNL     1      24.068  -0.718  54.636  1.00  0.00     0.131 C 
BRANCH   8   9
HETATM    9  C8  UNL     1      22.778  -0.526  53.902  1.00  0.00     0.234 C 
HETATM   10  O1  UNL     1      21.591  -0.886  53.648  1.00  0.00    -0.272 OA
HETATM   11  N1  UNL     1      22.898   0.635  53.042  1.00  0.00    -0.250 N 
HETATM   12  H7  UNL     1      23.766   1.254  52.942  1.00  0.00     0.181 HD
BRANCH  11  13
HETATM   13  S1  UNL     1      21.594   1.161  52.043  1.00  0.00     0.265 S 
HETATM   14  O2  UNL     1      20.985   0.000  51.344  1.00  0.00    -0.200 OA
HETATM   15  O3  UNL     1      20.539   1.846  52.894  1.00  0.00    -0.200 OA
BRANCH  13  16
HETATM   16  C9  UNL     1      22.236   2.324  50.874  1.00  0.00     0.080 A 
HETATM   17  C10 UNL     1      22.545   3.617  51.286  1.00  0.00     0.028 A 
HETATM   18  C11 UNL     1      23.051   4.570  50.413  1.00  0.00     0.044 A 
HETATM   19  C12 UNL     1      23.249   4.215  49.102  1.00  0.00     0.116 A 
HETATM   20  F1  UNL     1      23.743   5.128  48.221  1.00  0.00    -0.206 F 
HETATM   21  C13 UNL     1      22.944   2.944  48.699  1.00  0.00     0.044 A 
HETATM   22  C14 UNL     1      22.438   1.976  49.551  1.00  0.00     0.028 A 
ENDBRANCH  13  16
ENDBRANCH  11  13
ENDBRANCH   8   9
ENDBRANCH   7   8
ENDBRANCH   5   6
TORSDOF 5
ENDMDL
MODEL 5
REMARK VINA RESULT:      -6.3      3.991      6.519
REMARK  5 active torsions:
REMARK  status: ('A' for Active; 'I' for Inactive)
REMARK    1  A    between atoms: C4_5  and  C5_6 
REMARK    2  A    between atoms: C6_7  and  C7_8 
REMARK    3  A    between atoms: C7_8  and  C8_9 
REMARK       I    between atoms: C8_9  and  N1_11 
REMARK    4  A    between atoms: N1_11  and  S1_12 
REMARK    5  A    between atoms: S1_12  and  C9_15 
ROOT
HETATM    1  C1  UNL     1      22.170   3.404  47.917  1.00  0.00     0.018 C 
HETATM    2  C2  UNL     1      21.822   2.940  48.974  1.00  0.00    -0.070 C 
HETATM    3  C3  UNL     1      21.427   2.372  50.229  1.00  0.00     0.063 C 
HETATM    4 BR1  UNL     1      20.838   3.481  51.658  1.00  0.00    -0.041 Br
HETATM    5  C4  UNL     1      21.461   1.070  50.422  1.00  0.00     0.028 C 
ENDROOT
BRANCH   5   6
HETATM    6  C5  UNL     1      21.192   0.050  51.412  1.00  0.00    -0.002 C 
HETATM    7  C6  UNL     1      21.553  -0.288  52.624  1.00  0.00    -0.017 C 
BRANCH   7   8
HETATM    8  C7  UNL     1      22.354  -0.031  53.818  1.00  0.00     0.131 C 
BRANCH   8   9
HETATM    9  C8  UNL     1      23.831   0.025  53.582  1.00  0.00     0.234 C 
HETATM   10  O1  UNL     1      24.988  -0.469  53.719  1.00  0.00    -0.272 OA
HETATM   11  N1  UNL     1      24.136   1.221  52.821  1.00  0.00    -0.250 N 
HETATM   12  H7  UNL     1      23.426   1.950  52.486  1.00  0.00     0.181 HD
BRANCH  11  13
HETATM   13  S1  UNL     1      25.751   1.614  52.359  1.00  0.00     0.265 S 
HETATM   14  O2  UNL     1      26.543   2.006  53.553  1.00  0.00    -0.200 OA
HETATM   15  O3  UNL     1      26.402   0.411  51.698  1.00  0.00    -0.200 OA
BRANCH  13  16
HETATM   16  C9  UNL     1      25.679   2.944  51.195  1.00  0.00     0.080 A 
HETATM   17  C10 UNL     1      26.669   3.065  50.224  1.00  0.00     0.028 A 
HETATM   18  C11 UNL     1      26.663   4.087  49.286  1.00  0.00     0.044 A 
HETATM   19  C12 UNL     1      25.643   5.005  49.326  1.00  0.00     0.116 A 
HETATM   20  F1  UNL     1      25.609   6.020  48.419  1.00  0.00    -0.206 F 
HETATM   21  C13 UNL     1      24.671   4.884  50.281  1.00  0.00     0.044 A 
HETATM   22  C14 UNL     1      24.656   3.872  51.227  1.00  0.00     0.028 A 
ENDBRANCH  13  16
ENDBRANCH  11  13
ENDBRANCH   8   9
ENDBRANCH   7   8
ENDBRANCH   5   6
TORSDOF 5
ENDMDL
MODEL 6
REMARK VINA RESULT:      -6.3      3.331      5.204
REMARK  5 active torsions:
REMARK  status: ('A' for Active; 'I' for Inactive)
REMARK    1  A    between atoms: C4_5  and  C5_6 
REMARK    2  A    between atoms: C6_7  and  C7_8 
REMARK    3  A    between atoms: C7_8  and  C8_9 
REMARK       I    between atoms: C8_9  and  N1_11 
REMARK    4  A    between atoms: N1_11  and  S1_12 
REMARK    5  A    between atoms: S1_12  and  C9_15 
ROOT
HETATM    1  C1  UNL     1      22.316   7.438  48.086  1.00  0.00     0.018 C 
HETATM    2  C2  UNL     1      23.086   6.792  48.751  1.00  0.00    -0.070 C 
HETATM    3  C3  UNL     1      24.020   6.034  49.529  1.00  0.00     0.063 C 
HETATM    4 BR1  UNL     1      23.676   5.650  51.360  1.00  0.00    -0.041 Br
HETATM    5  C4  UNL     1      25.137   5.586  48.996  1.00  0.00     0.028 C 
ENDROOT
BRANCH   5   6
HETATM    6  C5  UNL     1      26.333   4.831  49.304  1.00  0.00    -0.002 C 
HETATM    7  C6  UNL     1      26.685   3.642  49.724  1.00  0.00    -0.017 C 
BRANCH   7   8
HETATM    8  C7  UNL     1      26.314   2.300  50.164  1.00  0.00     0.131 C 
BRANCH   8   9
HETATM    9  C8  UNL     1      26.144   2.151  51.643  1.00  0.00     0.234 C 
HETATM   10  O1  UNL     1      25.836   2.637  52.771  1.00  0.00    -0.272 OA
HETATM   11  N1  UNL     1      26.491   0.795  52.019  1.00  0.00    -0.250 N 
HETATM   12  H7  UNL     1      26.820   0.024  51.351  1.00  0.00     0.181 HD
BRANCH  11  13
HETATM   13  S1  UNL     1      26.409   0.258  53.656  1.00  0.00     0.265 S 
HETATM   14  O2  UNL     1      27.388  -0.835  53.885  1.00  0.00    -0.200 OA
HETATM   15  O3  UNL     1      26.719   1.414  54.591  1.00  0.00    -0.200 OA
BRANCH  13  16
HETATM   16  C9  UNL     1      24.761  -0.307  53.965  1.00  0.00     0.080 A 
HETATM   17  C10 UNL     1      24.475  -0.986  55.145  1.00  0.00     0.028 A 
HETATM   18  C11 UNL     1      23.201  -1.452  55.439  1.00  0.00     0.044 A 
HETATM   19  C12 UNL     1      22.197  -1.230  54.529  1.00  0.00     0.116 A 
HETATM   20  F1  UNL     1      20.937  -1.675  54.789  1.00  0.00    -0.206 F 
HETATM   21  C13 UNL     1      22.481  -0.563  53.370  1.00  0.00     0.044 A 
HETATM   22  C14 UNL     1      23.744  -0.088  53.054  1.00  0.00     0.028 A 
ENDBRANCH  13  16
ENDBRANCH  11  13
ENDBRANCH   8   9
ENDBRANCH   7   8
ENDBRANCH   5   6
TORSDOF 5
ENDMDL
MODEL 7
REMARK VINA RESULT:      -6.2      2.397      3.845
REMARK  5 active torsions:
REMARK  status: ('A' for Active; 'I' for Inactive)
REMARK    1  A    between atoms: C4_5  and  C5_6 
REMARK    2  A    between atoms: C6_7  and  C7_8 
REMARK    3  A    between atoms: C7_8  and  C8_9 
REMARK       I    between atoms: C8_9  and  N1_11 
REMARK    4  A    between atoms: N1_11  and  S1_12 
REMARK    5  A    between atoms: S1_12  and  C9_15 
ROOT
HETATM    1  C1  UNL     1      27.951   7.966  47.224  1.00  0.00     0.018 C 
HETATM    2  C2  UNL     1      27.278   7.290  47.962  1.00  0.00    -0.070 C 
HETATM    3  C3  UNL     1      26.498   6.474  48.844  1.00  0.00     0.063 C 
HETATM    4 BR1  UNL     1      25.152   7.242  49.947  1.00  0.00    -0.041 Br
HETATM    5  C4  UNL     1      26.695   5.173  48.911  1.00  0.00     0.028 C 
ENDROOT
BRANCH   5   6
HETATM    6  C5  UNL     1      26.227   3.976  49.575  1.00  0.00    -0.002 C 
HETATM    7  C6  UNL     1      25.113   3.327  49.800  1.00  0.00    -0.017 C 
BRANCH   7   8
HETATM    8  C7  UNL     1      23.665   3.214  49.641  1.00  0.00     0.131 C 
BRANCH   8   9
HETATM    9  C8  UNL     1      22.908   3.024  50.918  1.00  0.00     0.234 C 
HETATM   10  O1  UNL     1      22.834   3.115  52.178  1.00  0.00    -0.272 OA
HETATM   11  N1  UNL     1      21.609   2.459  50.610  1.00  0.00    -0.250 N 
HETATM   12  H7  UNL     1      21.249   2.212  49.632  1.00  0.00     0.181 HD
BRANCH  11  13
HETATM   13  S1  UNL     1      20.458   2.106  51.846  1.00  0.00     0.265 S 
HETATM   14  O2  UNL     1      20.217   3.313  52.678  1.00  0.00    -0.200 OA
HETATM   15  O3  UNL     1      19.150   1.660  51.216  1.00  0.00    -0.200 OA
BRANCH  13  16
HETATM   16  C9  UNL     1      21.102   0.787  52.833  1.00  0.00     0.080 A 
HETATM   17  C10 UNL     1      20.741   0.689  54.173  1.00  0.00     0.028 A 
HETATM   18  C11 UNL     1      21.215  -0.325  54.994  1.00  0.00     0.044 A 
HETATM   19  C12 UNL     1      22.070  -1.255  54.457  1.00  0.00     0.116 A 
HETATM   20  F1  UNL     1      22.552  -2.261  55.237  1.00  0.00    -0.206 F 
HETATM   21  C13 UNL     1      22.424  -1.156  53.140  1.00  0.00     0.044 A 
HETATM   22  C14 UNL     1      21.964  -0.155  52.301  1.00  0.00     0.028 A 
ENDBRANCH  13  16
ENDBRANCH  11  13
ENDBRANCH   8   9
ENDBRANCH   7   8
ENDBRANCH   5   6
TORSDOF 5
ENDMDL
MODEL 8
REMARK VINA RESULT:      -6.2      2.650      4.829
REMARK  5 active torsions:
REMARK  status: ('A' for Active; 'I' for Inactive)
REMARK    1  A    between atoms: C4_5  and  C5_6 
REMARK    2  A    between atoms: C6_7  and  C7_8 
REMARK    3  A    between atoms: C7_8  and  C8_9 
REMARK       I    between atoms: C8_9  and  N1_11 
REMARK    4  A    between atoms: N1_11  and  S1_12 
REMARK    5  A    between atoms: S1_12  and  C9_15 
ROOT
HETATM    1  C1  UNL     1      26.483   2.327  50.741  1.00  0.00     0.018 C 
HETATM    2  C2  UNL     1      26.216   1.467  51.543  1.00  0.00    -0.070 C 
HETATM    3  C3  UNL     1      25.875   0.445  52.487  1.00  0.00     0.063 C 
HETATM    4 BR1  UNL     1      27.142  -0.886  52.981  1.00  0.00    -0.041 Br
HETATM    5  C4  UNL     1      24.679   0.403  53.035  1.00  0.00     0.028 C 
ENDROOT
BRANCH   5   6
HETATM    6  C5  UNL     1      23.872  -0.351  53.971  1.00  0.00    -0.002 C 
HETATM    7  C6  UNL     1      22.659  -0.827  54.090  1.00  0.00    -0.017 C 
BRANCH   7   8
HETATM    8  C7  UNL     1      21.318  -1.010  53.541  1.00  0.00     0.131 C 
BRANCH   8   9
HETATM    9  C8  UNL     1      20.810   0.143  52.733  1.00  0.00     0.234 C 
HETATM   10  O1  UNL     1      20.049   1.145  52.601  1.00  0.00    -0.272 OA
HETATM   11  N1  UNL     1      21.505   0.161  51.460  1.00  0.00    -0.250 N 
HETATM   12  H7  UNL     1      22.255  -0.536  51.145  1.00  0.00     0.181 HD
BRANCH  11  13
HETATM   13  S1  UNL     1      21.177   1.362  50.266  1.00  0.00     0.265 S 
HETATM   14  O2  UNL     1      21.365   0.794  48.906  1.00  0.00    -0.200 OA
HETATM   15  O3  UNL     1      19.747   1.853  50.412  1.00  0.00    -0.200 OA
BRANCH  13  16
HETATM   16  C9  UNL     1      22.283   2.716  50.533  1.00  0.00     0.080 A 
HETATM   17  C10 UNL     1      22.855   3.365  49.443  1.00  0.00     0.028 A 
HETATM   18  C11 UNL     1      23.728   4.433  49.594  1.00  0.00     0.044 A 
HETATM   19  C12 UNL     1      24.032   4.855  50.864  1.00  0.00     0.116 A 
HETATM   20  F1  UNL     1      24.886   5.899  51.045  1.00  0.00    -0.206 F 
HETATM   21  C13 UNL     1      23.469   4.215  51.934  1.00  0.00     0.044 A 
HETATM   22  C14 UNL     1      22.594   3.148  51.809  1.00  0.00     0.028 A 
ENDBRANCH  13  16
ENDBRANCH  11  13
ENDBRANCH   8   9
ENDBRANCH   7   8
ENDBRANCH   5   6
TORSDOF 5
ENDMDL
MODEL 9
REMARK VINA RESULT:      -6.1      2.052      2.857
REMARK  5 active torsions:
REMARK  status: ('A' for Active; 'I' for Inactive)
REMARK    1  A    between atoms: C4_5  and  C5_6 
REMARK    2  A    between atoms: C6_7  and  C7_8 
REMARK    3  A    between atoms: C7_8  and  C8_9 
REMARK       I    between atoms: C8_9  and  N1_11 
REMARK    4  A    between atoms: N1_11  and  S1_12 
REMARK    5  A    between atoms: S1_12  and  C9_15 
ROOT
HETATM    1  C1  UNL     1      23.384  -0.811  54.197  1.00  0.00     0.018 C 
HETATM    2  C2  UNL     1      24.411  -0.298  53.829  1.00  0.00    -0.070 C 
HETATM    3  C3  UNL     1      25.618   0.330  53.382  1.00  0.00     0.063 C 
HETATM    4 BR1  UNL     1      27.185   0.308  54.460  1.00  0.00    -0.041 Br
HETATM    5  C4  UNL     1      25.671   0.938  52.214  1.00  0.00     0.028 C 
ENDROOT
BRANCH   5   6
HETATM    6  C5  UNL     1      26.563   1.673  51.344  1.00  0.00    -0.002 C 
HETATM    7  C6  UNL     1      26.579   2.762  50.617  1.00  0.00    -0.017 C 
BRANCH   7   8
HETATM    8  C7  UNL     1      25.901   3.956  50.121  1.00  0.00     0.131 C 
BRANCH   8   9
HETATM    9  C8  UNL     1      24.523   4.164  50.664  1.00  0.00     0.234 C 
HETATM   10  O1  UNL     1      23.748   4.451  51.623  1.00  0.00    -0.272 OA
HETATM   11  N1  UNL     1      23.563   3.936  49.602  1.00  0.00    -0.250 N 
HETATM   12  H7  UNL     1      23.798   3.659  48.593  1.00  0.00     0.181 HD
BRANCH  11  13
HETATM   13  S1  UNL     1      21.866   4.091  49.864  1.00  0.00     0.265 S 
HETATM   14  O2  UNL     1      21.574   5.357  50.584  1.00  0.00    -0.200 OA
HETATM   15  O3  UNL     1      21.138   4.091  48.531  1.00  0.00    -0.200 OA
BRANCH  13  16
HETATM   16  C9  UNL     1      21.330   2.697  50.813  1.00  0.00     0.080 A 
HETATM   17  C10 UNL     1      21.782   1.423  50.484  1.00  0.00     0.028 A 
HETATM   18  C11 UNL     1      21.395   0.295  51.193  1.00  0.00     0.044 A 
HETATM   19  C12 UNL     1      20.537   0.451  52.252  1.00  0.00     0.116 A 
HETATM   20  F1  UNL     1      20.138  -0.637  52.967  1.00  0.00    -0.206 F 
HETATM   21  C13 UNL     1      20.093   1.704  52.574  1.00  0.00     0.044 A 
HETATM   22  C14 UNL     1      20.465   2.845  51.882  1.00  0.00     0.028 A 
ENDBRANCH  13  16
ENDBRANCH  11  13
ENDBRANCH   8   9
ENDBRANCH   7   8
ENDBRANCH   5   6
TORSDOF 5
ENDMDL
