MODEL 1
REMARK VINA RESULT:      -7.9      0.000      0.000
REMARK  7 active torsions:
REMARK  status: ('A' for Active; 'I' for Inactive)
REMARK    1  A    between atoms: C2_2  and  C3_3 
REMARK    2  A    between atoms: C3_3  and  C4_4 
REMARK    3  A    between atoms: C4_4  and  N1_5 
REMARK    4  A    between atoms: C7_8  and  C9_10 
REMARK    5  A    between atoms: C9_10  and  O1_11 
REMARK    6  A    between atoms: C13_16  and  N3_17 
REMARK    7  A    between atoms: C21_28  and  O2_29 
ROOT
HETATM    1  C9  UNL     1      25.102   2.739  51.337  1.00  0.00     0.320 C 
HETATM    2  N2  UNL     1      24.048   2.191  50.530  1.00  0.00     0.127 N 
HETATM    3  C10 UNL     1      23.245   3.191  49.930  1.00  0.00     0.302 C 
HETATM    4  C11 UNL     1      23.954   4.442  49.596  1.00  0.00     0.016 C 
HETATM    5  C12 UNL     1      25.231   4.648  49.323  1.00  0.00     0.014 A 
HETATM    6  C13 UNL     1      25.345   6.083  49.073  1.00  0.00     0.143 A 
HETATM    7  N4  UNL     1      26.545   6.516  48.766  1.00  0.00    -0.224 NA
HETATM    8  C19 UNL     1      27.531   5.465  48.739  1.00  0.00     0.230 A 
HETATM    9  N5  UNL     1      27.516   4.196  48.947  1.00  0.00    -0.270 NA
HETATM   10  C20 UNL     1      26.243   3.587  49.299  1.00  0.00     0.179 A 
HETATM   11  C21 UNL     1      26.347   2.741  50.534  1.00  0.00     0.216 C 
HETATM   12  H18 UNL     1      24.405   1.502  49.819  1.00  0.00     0.320 HD
ENDROOT
BRANCH   1  13
HETATM   13  C7  UNL     1      25.180   2.035  52.678  1.00  0.00     0.220 A 
HETATM   14  N1  UNL     1      26.215   1.086  52.840  1.00  0.00     0.103 N 
HETATM   15  C5  UNL     1      25.273  -0.036  52.935  1.00  0.00     0.276 A 
HETATM   16  C6  UNL     1      24.170   0.905  52.642  1.00  0.00     0.077 A 
HETATM   17  C8  UNL     1      24.871   2.991  53.791  1.00  0.00     0.055 C 
BRANCH  14  18
HETATM   18  C4  UNL     1      26.988   1.101  54.039  1.00  0.00     0.273 C 
BRANCH  18  19
HETATM   19  C3  UNL     1      28.483   1.142  53.859  1.00  0.00     0.030 C 
BRANCH  19  20
HETATM   20  C2  UNL     1      28.975  -0.200  54.431  1.00  0.00    -0.003 C 
HETATM   21  C1  UNL     1      29.731  -1.005  53.430  1.00  0.00     0.005 C 
ENDBRANCH  19  20
ENDBRANCH  18  19
ENDBRANCH  14  18
ENDBRANCH   1  13
BRANCH   1  22
HETATM   22  O1  UNL     1      24.818   4.076  51.636  1.00  0.00    -0.359 OA
HETATM   23  H17 UNL     1      24.507   4.218  52.565  1.00  0.00     0.212 HD
ENDBRANCH   1  22
BRANCH  11  24
HETATM   24  O2  UNL     1      27.462   3.234  51.224  1.00  0.00    -0.388 OA
HETATM   25  H28 UNL     1      28.056   2.527  51.529  1.00  0.00     0.210 HD
ENDBRANCH  11  24
BRANCH   6  26
HETATM   26  N3  UNL     1      24.251   6.981  49.145  1.00  0.00    -0.315 N 
HETATM   27  C14 UNL     1      23.585   7.548  50.293  1.00  0.00     0.110 C 
HETATM   28  C15 UNL     1      22.403   8.085  50.116  1.00  0.00    -0.007 C 
HETATM   29  C16 UNL     1      22.144   8.707  49.007  1.00  0.00     0.034 C 
HETATM   30  C17 UNL     1      22.736   8.198  47.779  1.00  0.00     0.027 C 
HETATM   31 BR1  UNL     1      22.004   8.768  46.110  1.00  0.00    -0.050 Br
HETATM   32  C18 UNL     1      23.776   7.347  47.830  1.00  0.00     0.117 C 
ENDBRANCH   6  26
TORSDOF 7
ENDMDL
MODEL 2
REMARK VINA RESULT:      -7.5      3.156      8.015
REMARK  7 active torsions:
REMARK  status: ('A' for Active; 'I' for Inactive)
REMARK    1  A    between atoms: C2_2  and  C3_3 
REMARK    2  A    between atoms: C3_3  and  C4_4 
REMARK    3  A    between atoms: C4_4  and  N1_5 
REMARK    4  A    between atoms: C7_8  and  C9_10 
REMARK    5  A    between atoms: C9_10  and  O1_11 
REMARK    6  A    between atoms: C13_16  and  N3_17 
REMARK    7  A    between atoms: C21_28  and  O2_29 
ROOT
HETATM    1  C9  UNL     1      24.195   4.401  50.360  1.00  0.00     0.320 C 
HETATM    2  N2  UNL     1      25.026   3.975  49.269  1.00  0.00     0.127 N 
HETATM    3  C10 UNL     1      26.177   3.272  49.701  1.00  0.00     0.302 C 
HETATM    4  C11 UNL     1      25.997   2.484  50.937  1.00  0.00     0.016 C 
HETATM    5  C12 UNL     1      24.904   1.945  51.449  1.00  0.00     0.014 A 
HETATM    6  C13 UNL     1      25.339   1.289  52.681  1.00  0.00     0.143 A 
HETATM    7  N4  UNL     1      24.402   0.669  53.358  1.00  0.00    -0.224 NA
HETATM    8  C19 UNL     1      23.105   0.762  52.739  1.00  0.00     0.230 A 
HETATM    9  N5  UNL     1      22.642   1.315  51.674  1.00  0.00    -0.270 NA
HETATM   10  C20 UNL     1      23.578   2.040  50.829  1.00  0.00     0.179 A 
HETATM   11  C21 UNL     1      23.092   3.423  50.510  1.00  0.00     0.216 C 
HETATM   12  H18 UNL     1      24.490   3.433  48.544  1.00  0.00     0.320 HD
ENDROOT
BRANCH   1  13
HETATM   13  C7  UNL     1      23.778   5.849  50.193  1.00  0.00     0.220 A 
HETATM   14  N1  UNL     1      22.442   6.086  49.799  1.00  0.00     0.103 N 
HETATM   15  C5  UNL     1      22.843   6.633  48.498  1.00  0.00     0.276 A 
HETATM   16  C6  UNL     1      24.245   6.285  48.818  1.00  0.00     0.077 A 
HETATM   17  C8  UNL     1      24.398   6.700  51.261  1.00  0.00     0.055 C 
BRANCH  14  18
HETATM   18  C4  UNL     1      21.688   7.092  50.475  1.00  0.00     0.273 C 
BRANCH  18  19
HETATM   19  C3  UNL     1      21.337   8.309  49.660  1.00  0.00     0.030 C 
BRANCH  19  20
HETATM   20  C2  UNL     1      19.799   8.361  49.694  1.00  0.00    -0.003 C 
HETATM   21  C1  UNL     1      19.187   8.050  48.371  1.00  0.00     0.005 C 
ENDBRANCH  19  20
ENDBRANCH  18  19
ENDBRANCH  14  18
ENDBRANCH   1  13
BRANCH   1  22
HETATM   22  O1  UNL     1      24.929   4.361  51.551  1.00  0.00    -0.359 OA
HETATM   23  H17 UNL     1      25.686   4.998  51.573  1.00  0.00     0.212 HD
ENDBRANCH   1  22
BRANCH  11  24
HETATM   24  O2  UNL     1      22.192   3.742  51.536  1.00  0.00    -0.388 OA
HETATM   25  H28 UNL     1      22.601   3.706  52.417  1.00  0.00     0.210 HD
ENDBRANCH  11  24
BRANCH   6  26
HETATM   26  N3  UNL     1      26.678   1.300  53.144  1.00  0.00    -0.315 N 
HETATM   27  C14 UNL     1      27.467   2.379  53.688  1.00  0.00     0.110 C 
HETATM   28  C15 UNL     1      28.768   2.226  53.736  1.00  0.00    -0.007 C 
HETATM   29  C16 UNL     1      29.265   1.050  53.972  1.00  0.00     0.034 C 
HETATM   30  C17 UNL     1      28.566  -0.110  53.439  1.00  0.00     0.027 C 
HETATM   31 BR1  UNL     1      29.503  -1.771  53.344  1.00  0.00    -0.050 Br
HETATM   32  C18 UNL     1      27.291  -0.004  53.027  1.00  0.00     0.117 C 
ENDBRANCH   6  26
TORSDOF 7
ENDMDL
MODEL 3
REMARK VINA RESULT:      -7.4      2.817      6.853
REMARK  7 active torsions:
REMARK  status: ('A' for Active; 'I' for Inactive)
REMARK    1  A    between atoms: C2_2  and  C3_3 
REMARK    2  A    between atoms: C3_3  and  C4_4 
REMARK    3  A    between atoms: C4_4  and  N1_5 
REMARK    4  A    between atoms: C7_8  and  C9_10 
REMARK    5  A    between atoms: C9_10  and  O1_11 
REMARK    6  A    between atoms: C13_16  and  N3_17 
REMARK    7  A    between atoms: C21_28  and  O2_29 
ROOT
HETATM    1  C9  UNL     1      24.964   3.601  51.327  1.00  0.00     0.320 C 
HETATM    2  N2  UNL     1      24.576   4.328  52.504  1.00  0.00     0.127 N 
HETATM    3  C10 UNL     1      23.652   3.615  53.306  1.00  0.00     0.302 C 
HETATM    4  C11 UNL     1      23.804   2.146  53.274  1.00  0.00     0.016 C 
HETATM    5  C12 UNL     1      24.873   1.408  53.030  1.00  0.00     0.014 A 
HETATM    6  C13 UNL     1      24.417   0.023  53.136  1.00  0.00     0.143 A 
HETATM    7  N4  UNL     1      25.332  -0.896  52.939  1.00  0.00    -0.224 NA
HETATM    8  C19 UNL     1      26.631  -0.343  52.650  1.00  0.00     0.230 A 
HETATM    9  N5  UNL     1      27.110   0.846  52.535  1.00  0.00    -0.270 NA
HETATM   10  C20 UNL     1      26.197   1.961  52.728  1.00  0.00     0.179 A 
HETATM   11  C21 UNL     1      26.264   2.944  51.596  1.00  0.00     0.216 C 
HETATM   12  H18 UNL     1      25.405   4.655  53.064  1.00  0.00     0.320 HD
ENDROOT
BRANCH   1  13
HETATM   13  C7  UNL     1      24.912   4.490  50.099  1.00  0.00     0.220 A 
HETATM   14  N1  UNL     1      25.999   5.371  49.905  1.00  0.00     0.103 N 
HETATM   15  C5  UNL     1      25.169   6.563  50.115  1.00  0.00     0.276 A 
HETATM   16  C6  UNL     1      24.034   5.675  50.450  1.00  0.00     0.077 A 
HETATM   17  C8  UNL     1      24.350   3.736  48.930  1.00  0.00     0.055 C 
BRANCH  14  18
HETATM   18  C4  UNL     1      26.583   5.477  48.606  1.00  0.00     0.273 C 
BRANCH  18  19
HETATM   19  C3  UNL     1      28.016   5.030  48.489  1.00  0.00     0.030 C 
BRANCH  19  20
HETATM   20  C2  UNL     1      28.764   6.274  47.979  1.00  0.00    -0.003 C 
HETATM   21  C1  UNL     1      30.245   6.116  48.040  1.00  0.00     0.005 C 
ENDBRANCH  19  20
ENDBRANCH  18  19
ENDBRANCH  14  18
ENDBRANCH   1  13
BRANCH   1  22
HETATM   22  O1  UNL     1      24.041   2.578  51.083  1.00  0.00    -0.359 OA
HETATM   23  H17 UNL     1      23.797   2.482  50.128  1.00  0.00     0.212 HD
ENDBRANCH   1  22
BRANCH  11  24
HETATM   24  O2  UNL     1      26.763   2.217  50.507  1.00  0.00    -0.388 OA
HETATM   25  H28 UNL     1      26.145   1.533  50.199  1.00  0.00     0.210 HD
ENDBRANCH  11  24
BRANCH   6  26
HETATM   26  N3  UNL     1      23.080  -0.342  53.434  1.00  0.00    -0.315 N 
HETATM   27  C14 UNL     1      22.541  -1.066  54.560  1.00  0.00     0.110 C 
HETATM   28  C15 UNL     1      21.334  -1.564  54.450  1.00  0.00    -0.007 C 
HETATM   29  C16 UNL     1      20.436  -0.919  53.771  1.00  0.00     0.034 C 
HETATM   30  C17 UNL     1      20.865  -0.180  52.592  1.00  0.00     0.027 C 
HETATM   31 BR1  UNL     1      19.544   0.357  51.323  1.00  0.00    -0.050 Br
HETATM   32  C18 UNL     1      22.165   0.113  52.411  1.00  0.00     0.117 C 
ENDBRANCH   6  26
TORSDOF 7
ENDMDL
MODEL 4
REMARK VINA RESULT:      -7.2      3.700      6.930
REMARK  7 active torsions:
REMARK  status: ('A' for Active; 'I' for Inactive)
REMARK    1  A    between atoms: C2_2  and  C3_3 
REMARK    2  A    between atoms: C3_3  and  C4_4 
REMARK    3  A    between atoms: C4_4  and  N1_5 
REMARK    4  A    between atoms: C7_8  and  C9_10 
REMARK    5  A    between atoms: C9_10  and  O1_11 
REMARK    6  A    between atoms: C13_16  and  N3_17 
REMARK    7  A    between atoms: C21_28  and  O2_29 
ROOT
HETATM    1  C9  UNL     1      23.508   4.746  50.940  1.00  0.00     0.320 C 
HETATM    2  N2  UNL     1      22.517   5.481  51.674  1.00  0.00     0.127 N 
HETATM    3  C10 UNL     1      21.290   4.783  51.785  1.00  0.00     0.302 C 
HETATM    4  C11 UNL     1      21.414   3.312  51.840  1.00  0.00     0.016 C 
HETATM    5  C12 UNL     1      22.416   2.559  52.261  1.00  0.00     0.014 A 
HETATM    6  C13 UNL     1      21.966   1.181  52.075  1.00  0.00     0.143 A 
HETATM    7  N4  UNL     1      22.813   0.250  52.444  1.00  0.00    -0.224 NA
HETATM    8  C19 UNL     1      24.044   0.785  52.968  1.00  0.00     0.230 A 
HETATM    9  N5  UNL     1      24.515   1.967  53.159  1.00  0.00    -0.270 NA
HETATM   10  C20 UNL     1      23.674   3.095  52.790  1.00  0.00     0.179 A 
HETATM   11  C21 UNL     1      24.400   4.072  51.913  1.00  0.00     0.216 C 
HETATM   12  H18 UNL     1      22.868   5.799  52.614  1.00  0.00     0.320 HD
ENDROOT
BRANCH   1  13
HETATM   13  C7  UNL     1      24.193   5.630  49.917  1.00  0.00     0.220 A 
HETATM   14  N1  UNL     1      25.579   5.845  50.086  1.00  0.00     0.103 N 
HETATM   15  C5  UNL     1      25.399   7.273  50.375  1.00  0.00     0.276 A 
HETATM   16  C6  UNL     1      23.935   7.065  50.332  1.00  0.00     0.077 A 
HETATM   17  C8  UNL     1      23.646   5.365  48.545  1.00  0.00     0.055 C 
BRANCH  14  18
HETATM   18  C4  UNL     1      26.441   5.742  48.953  1.00  0.00     0.273 C 
BRANCH  18  19
HETATM   19  C3  UNL     1      26.941   7.044  48.385  1.00  0.00     0.030 C 
BRANCH  19  20
HETATM   20  C2  UNL     1      28.445   6.808  48.157  1.00  0.00    -0.003 C 
HETATM   21  C1  UNL     1      28.814   5.366  48.223  1.00  0.00     0.005 C 
ENDBRANCH  19  20
ENDBRANCH  18  19
ENDBRANCH  14  18
ENDBRANCH   1  13
BRANCH   1  22
HETATM   22  O1  UNL     1      22.888   3.733  50.200  1.00  0.00    -0.359 OA
HETATM   23  H17 UNL     1      22.987   2.832  50.598  1.00  0.00     0.212 HD
ENDBRANCH   1  22
BRANCH  11  24
HETATM   24  O2  UNL     1      25.431   3.336  51.316  1.00  0.00    -0.388 OA
HETATM   25  H28 UNL     1      25.147   2.446  51.046  1.00  0.00     0.210 HD
ENDBRANCH  11  24
BRANCH   6  26
HETATM   26  N3  UNL     1      20.702   0.834  51.536  1.00  0.00    -0.315 N 
HETATM   27  C14 UNL     1      20.134   1.112  50.238  1.00  0.00     0.110 C 
HETATM   28  C15 UNL     1      18.839   0.978  50.093  1.00  0.00    -0.007 C 
HETATM   29  C16 UNL     1      18.216   0.043  50.741  1.00  0.00     0.034 C 
HETATM   30  C17 UNL     1      18.684  -0.295  52.077  1.00  0.00     0.027 C 
HETATM   31 BR1  UNL     1      17.524  -1.288  53.224  1.00  0.00    -0.050 Br
HETATM   32  C18 UNL     1      19.907   0.087  52.484  1.00  0.00     0.117 C 
ENDBRANCH   6  26
TORSDOF 7
ENDMDL
MODEL 5
REMARK VINA RESULT:      -7.2      4.189      6.272
REMARK  7 active torsions:
REMARK  status: ('A' for Active; 'I' for Inactive)
REMARK    1  A    between atoms: C2_2  and  C3_3 
REMARK    2  A    between atoms: C3_3  and  C4_4 
REMARK    3  A    between atoms: C4_4  and  N1_5 
REMARK    4  A    between atoms: C7_8  and  C9_10 
REMARK    5  A    between atoms: C9_10  and  O1_11 
REMARK    6  A    between atoms: C13_16  and  N3_17 
REMARK    7  A    between atoms: C21_28  and  O2_29 
ROOT
HETATM    1  C9  UNL     1      26.799   6.556  48.638  1.00  0.00     0.320 C 
HETATM    2  N2  UNL     1      26.462   7.109  47.356  1.00  0.00     0.127 N 
HETATM    3  C10 UNL     1      27.237   8.248  47.032  1.00  0.00     0.302 C 
HETATM    4  C11 UNL     1      28.611   8.241  47.575  1.00  0.00     0.016 C 
HETATM    5  C12 UNL     1      29.392   7.224  47.895  1.00  0.00     0.014 A 
HETATM    6  C13 UNL     1      30.632   7.828  48.379  1.00  0.00     0.143 A 
HETATM    7  N4  UNL     1      31.570   6.988  48.747  1.00  0.00    -0.224 NA
HETATM    8  C19 UNL     1      31.180   5.609  48.600  1.00  0.00     0.230 A 
HETATM    9  N5  UNL     1      30.122   5.000  48.192  1.00  0.00    -0.270 NA
HETATM   10  C20 UNL     1      29.001   5.817  47.755  1.00  0.00     0.179 A 
HETATM   11  C21 UNL     1      27.719   5.414  48.422  1.00  0.00     0.216 C 
HETATM   12  H18 UNL     1      26.490   6.389  46.589  1.00  0.00     0.320 HD
ENDROOT
BRANCH   1  13
HETATM   13  C7  UNL     1      25.552   6.257  49.446  1.00  0.00     0.220 A 
HETATM   14  N1  UNL     1      25.197   4.897  49.590  1.00  0.00     0.103 N 
HETATM   15  C5  UNL     1      23.971   5.055  48.799  1.00  0.00     0.276 A 
HETATM   16  C6  UNL     1      24.369   6.451  48.518  1.00  0.00     0.077 A 
HETATM   17  C8  UNL     1      25.459   7.176  50.627  1.00  0.00     0.055 C 
BRANCH  14  18
HETATM   18  C4  UNL     1      24.818   4.412  50.879  1.00  0.00     0.273 C 
BRANCH  18  19
HETATM   19  C3  UNL     1      24.784   2.914  51.034  1.00  0.00     0.030 C 
BRANCH  19  20
HETATM   20  C2  UNL     1      26.263   2.510  51.167  1.00  0.00    -0.003 C 
HETATM   21  C1  UNL     1      26.432   1.143  51.737  1.00  0.00     0.005 C 
ENDBRANCH  19  20
ENDBRANCH  18  19
ENDBRANCH  14  18
ENDBRANCH   1  13
BRANCH   1  22
HETATM   22  O1  UNL     1      27.508   7.503  49.386  1.00  0.00    -0.359 OA
HETATM   23  H17 UNL     1      27.536   7.304  50.355  1.00  0.00     0.212 HD
ENDBRANCH   1  22
BRANCH  11  24
HETATM   24  O2  UNL     1      28.106   4.771  49.604  1.00  0.00    -0.388 OA
HETATM   25  H28 UNL     1      28.403   5.394  50.289  1.00  0.00     0.210 HD
ENDBRANCH  11  24
BRANCH   6  26
HETATM   26  N3  UNL     1      30.844   9.227  48.456  1.00  0.00    -0.315 N 
HETATM   27  C14 UNL     1      30.524  10.161  49.509  1.00  0.00     0.110 C 
HETATM   28  C15 UNL     1      30.516  11.438  49.216  1.00  0.00    -0.007 C 
HETATM   29  C16 UNL     1      31.368  11.902  48.354  1.00  0.00     0.034 C 
HETATM   30  C17 UNL     1      31.736  11.054  47.229  1.00  0.00     0.027 C 
HETATM   31 BR1  UNL     1      32.579  11.862  45.718  1.00  0.00    -0.050 Br
HETATM   32  C18 UNL     1      31.486   9.734  47.264  1.00  0.00     0.117 C 
ENDBRANCH   6  26
TORSDOF 7
ENDMDL
MODEL 6
REMARK VINA RESULT:      -7.0      2.747      7.281
REMARK  7 active torsions:
REMARK  status: ('A' for Active; 'I' for Inactive)
REMARK    1  A    between atoms: C2_2  and  C3_3 
REMARK    2  A    between atoms: C3_3  and  C4_4 
REMARK    3  A    between atoms: C4_4  and  N1_5 
REMARK    4  A    between atoms: C7_8  and  C9_10 
REMARK    5  A    between atoms: C9_10  and  O1_11 
REMARK    6  A    between atoms: C13_16  and  N3_17 
REMARK    7  A    between atoms: C21_28  and  O2_29 
ROOT
HETATM    1  C9  UNL     1      24.915   3.556  50.991  1.00  0.00     0.320 C 
HETATM    2  N2  UNL     1      24.539   4.360  52.119  1.00  0.00     0.127 N 
HETATM    3  C10 UNL     1      23.686   3.675  53.018  1.00  0.00     0.302 C 
HETATM    4  C11 UNL     1      23.911   2.217  53.101  1.00  0.00     0.016 C 
HETATM    5  C12 UNL     1      25.006   1.513  52.871  1.00  0.00     0.014 A 
HETATM    6  C13 UNL     1      24.626   0.122  53.112  1.00  0.00     0.143 A 
HETATM    7  N4  UNL     1      25.578  -0.766  52.951  1.00  0.00    -0.224 NA
HETATM    8  C19 UNL     1      26.834  -0.179  52.558  1.00  0.00     0.230 A 
HETATM    9  N5  UNL     1      27.246   1.017  52.324  1.00  0.00    -0.270 NA
HETATM   10  C20 UNL     1      26.286   2.101  52.466  1.00  0.00     0.179 A 
HETATM   11  C21 UNL     1      26.257   2.986  51.254  1.00  0.00     0.216 C 
HETATM   12  H18 UNL     1      25.372   4.772  52.613  1.00  0.00     0.320 HD
ENDROOT
BRANCH   1  13
HETATM   13  C7  UNL     1      24.768   4.333  49.697  1.00  0.00     0.220 A 
HETATM   14  N1  UNL     1      23.701   5.257  49.627  1.00  0.00     0.103 N 
HETATM   15  C5  UNL     1      23.003   4.487  48.591  1.00  0.00     0.276 A 
HETATM   16  C6  UNL     1      24.033   3.434  48.723  1.00  0.00     0.077 A 
HETATM   17  C8  UNL     1      26.115   4.715  49.159  1.00  0.00     0.055 C 
BRANCH  14  18
HETATM   18  C4  UNL     1      23.947   6.562  49.101  1.00  0.00     0.273 C 
BRANCH  18  19
HETATM   19  C3  UNL     1      23.888   7.693  50.093  1.00  0.00     0.030 C 
BRANCH  19  20
HETATM   20  C2  UNL     1      22.764   8.604  49.567  1.00  0.00    -0.003 C 
HETATM   21  C1  UNL     1      21.437   7.925  49.552  1.00  0.00     0.005 C 
ENDBRANCH  19  20
ENDBRANCH  18  19
ENDBRANCH  14  18
ENDBRANCH   1  13
BRANCH   1  22
HETATM   22  O1  UNL     1      24.037   2.472  50.873  1.00  0.00    -0.359 OA
HETATM   23  H17 UNL     1      23.844   2.216  49.937  1.00  0.00     0.212 HD
ENDBRANCH   1  22
BRANCH  11  24
HETATM   24  O2  UNL     1      26.748   2.194  50.208  1.00  0.00    -0.388 OA
HETATM   25  H28 UNL     1      27.710   2.284  50.091  1.00  0.00     0.210 HD
ENDBRANCH  11  24
BRANCH   6  26
HETATM   26  N3  UNL     1      23.323  -0.280  53.498  1.00  0.00    -0.315 N 
HETATM   27  C14 UNL     1      22.877  -0.989  54.673  1.00  0.00     0.110 C 
HETATM   28  C15 UNL     1      21.684  -1.531  54.649  1.00  0.00    -0.007 C 
HETATM   29  C16 UNL     1      20.725  -0.937  54.007  1.00  0.00     0.034 C 
HETATM   30  C17 UNL     1      21.058  -0.218  52.786  1.00  0.00     0.027 C 
HETATM   31 BR1  UNL     1      19.646   0.237  51.584  1.00  0.00    -0.050 Br
HETATM   32  C18 UNL     1      22.334   0.114  52.520  1.00  0.00     0.117 C 
ENDBRANCH   6  26
TORSDOF 7
ENDMDL
MODEL 7
REMARK VINA RESULT:      -6.7      5.965      9.634
REMARK  7 active torsions:
REMARK  status: ('A' for Active; 'I' for Inactive)
REMARK    1  A    between atoms: C2_2  and  C3_3 
REMARK    2  A    between atoms: C3_3  and  C4_4 
REMARK    3  A    between atoms: C4_4  and  N1_5 
REMARK    4  A    between atoms: C7_8  and  C9_10 
REMARK    5  A    between atoms: C9_10  and  O1_11 
REMARK    6  A    between atoms: C13_16  and  N3_17 
REMARK    7  A    between atoms: C21_28  and  O2_29 
ROOT
HETATM    1  C9  UNL     1      29.251   7.563  47.864  1.00  0.00     0.320 C 
HETATM    2  N2  UNL     1      30.022   8.057  48.971  1.00  0.00     0.127 N 
HETATM    3  C10 UNL     1      31.159   7.259  49.244  1.00  0.00     0.302 C 
HETATM    4  C11 UNL     1      31.762   6.609  48.063  1.00  0.00     0.016 C 
HETATM    5  C12 UNL     1      31.746   6.973  46.793  1.00  0.00     0.014 A 
HETATM    6  C13 UNL     1      32.506   5.943  46.087  1.00  0.00     0.143 A 
HETATM    7  N4  UNL     1      32.630   6.112  44.792  1.00  0.00    -0.224 NA
HETATM    8  C19 UNL     1      31.976   7.304  44.315  1.00  0.00     0.230 A 
HETATM    9  N5  UNL     1      31.292   8.248  44.860  1.00  0.00    -0.270 NA
HETATM   10  C20 UNL     1      31.078   8.181  46.297  1.00  0.00     0.179 A 
HETATM   11  C21 UNL     1      29.629   8.333  46.656  1.00  0.00     0.216 C 
HETATM   12  H18 UNL     1      30.279   9.072  48.859  1.00  0.00     0.320 HD
ENDROOT
BRANCH   1  13
HETATM   13  C7  UNL     1      27.773   7.540  48.200  1.00  0.00     0.220 A 
HETATM   14  N1  UNL     1      26.947   8.450  47.502  1.00  0.00     0.103 N 
HETATM   15  C5  UNL     1      26.640   9.218  48.715  1.00  0.00     0.276 A 
HETATM   16  C6  UNL     1      27.594   8.366  49.458  1.00  0.00     0.077 A 
HETATM   17  C8  UNL     1      27.306   6.131  48.416  1.00  0.00     0.055 C 
BRANCH  14  18
HETATM   18  C4  UNL     1      25.710   7.988  46.961  1.00  0.00     0.273 C 
BRANCH  18  19
HETATM   19  C3  UNL     1      25.024   8.921  45.997  1.00  0.00     0.030 C 
BRANCH  19  20
HETATM   20  C2  UNL     1      24.984   8.139  44.672  1.00  0.00    -0.003 C 
HETATM   21  C1  UNL     1      25.997   8.625  43.691  1.00  0.00     0.005 C 
ENDBRANCH  19  20
ENDBRANCH  18  19
ENDBRANCH  14  18
ENDBRANCH   1  13
BRANCH   1  22
HETATM   22  O1  UNL     1      29.595   6.230  47.612  1.00  0.00    -0.359 OA
HETATM   23  H17 UNL     1      30.533   6.110  47.318  1.00  0.00     0.212 HD
ENDBRANCH   1  22
BRANCH  11  24
HETATM   24  O2  UNL     1      28.923   7.957  45.505  1.00  0.00    -0.388 OA
HETATM   25  H28 UNL     1      28.036   8.355  45.464  1.00  0.00     0.210 HD
ENDBRANCH  11  24
BRANCH   6  26
HETATM   26  N3  UNL     1      33.089   4.822  46.728  1.00  0.00    -0.315 N 
HETATM   27  C14 UNL     1      34.235   4.739  47.601  1.00  0.00     0.110 C 
HETATM   28  C15 UNL     1      34.773   3.561  47.799  1.00  0.00    -0.007 C 
HETATM   29  C16 UNL     1      34.013   2.510  47.841  1.00  0.00     0.034 C 
HETATM   30  C17 UNL     1      32.845   2.472  46.974  1.00  0.00     0.027 C 
HETATM   31 BR1  UNL     1      32.004   0.789  46.652  1.00  0.00    -0.050 Br
HETATM   32  C18 UNL     1      32.376   3.603  46.418  1.00  0.00     0.117 C 
ENDBRANCH   6  26
TORSDOF 7
ENDMDL
MODEL 8
REMARK VINA RESULT:      -6.6      4.250      6.490
REMARK  7 active torsions:
REMARK  status: ('A' for Active; 'I' for Inactive)
REMARK    1  A    between atoms: C2_2  and  C3_3 
REMARK    2  A    between atoms: C3_3  and  C4_4 
REMARK    3  A    between atoms: C4_4  and  N1_5 
REMARK    4  A    between atoms: C7_8  and  C9_10 
REMARK    5  A    between atoms: C9_10  and  O1_11 
REMARK    6  A    between atoms: C13_16  and  N3_17 
REMARK    7  A    between atoms: C21_28  and  O2_29 
ROOT
HETATM    1  C9  UNL     1      20.717   1.381  50.778  1.00  0.00     0.320 C 
HETATM    2  N2  UNL     1      21.044   0.873  49.475  1.00  0.00     0.127 N 
HETATM    3  C10 UNL     1      21.970   1.692  48.786  1.00  0.00     0.302 C 
HETATM    4  C11 UNL     1      22.941   2.395  49.649  1.00  0.00     0.016 C 
HETATM    5  C12 UNL     1      23.407   2.071  50.843  1.00  0.00     0.014 A 
HETATM    6  C13 UNL     1      24.335   3.143  51.197  1.00  0.00     0.143 A 
HETATM    7  N4  UNL     1      24.933   3.019  52.359  1.00  0.00    -0.224 NA
HETATM    8  C19 UNL     1      24.544   1.826  53.067  1.00  0.00     0.230 A 
HETATM    9  N5  UNL     1      23.743   0.848  52.831  1.00  0.00    -0.270 NA
HETATM   10  C20 UNL     1      23.013   0.863  51.573  1.00  0.00     0.179 A 
HETATM   11  C21 UNL     1      21.540   0.661  51.776  1.00  0.00     0.216 C 
HETATM   12  H18 UNL     1      21.361  -0.131  49.504  1.00  0.00     0.320 HD
ENDROOT
BRANCH   1  13
HETATM   13  C7  UNL     1      19.218   1.354  51.010  1.00  0.00     0.220 A 
HETATM   14  N1  UNL     1      18.634   0.089  51.246  1.00  0.00     0.103 N 
HETATM   15  C5  UNL     1      17.875   0.122  49.990  1.00  0.00     0.276 A 
HETATM   16  C6  UNL     1      18.560   1.387  49.645  1.00  0.00     0.077 A 
HETATM   17  C8  UNL     1      18.794   2.532  51.835  1.00  0.00     0.055 C 
BRANCH  14  18
HETATM   18  C4  UNL     1      17.695  -0.053  52.312  1.00  0.00     0.273 C 
BRANCH  18  19
HETATM   19  C3  UNL     1      16.426  -0.793  51.977  1.00  0.00     0.030 C 
BRANCH  19  20
HETATM   20  C2  UNL     1      16.532  -2.109  52.768  1.00  0.00    -0.003 C 
HETATM   21  C1  UNL     1      17.806  -2.215  53.534  1.00  0.00     0.005 C 
ENDBRANCH  19  20
ENDBRANCH  18  19
ENDBRANCH  14  18
ENDBRANCH   1  13
BRANCH   1  22
HETATM   22  O1  UNL     1      21.080   2.730  50.859  1.00  0.00    -0.359 OA
HETATM   23  H17 UNL     1      21.263   3.146  49.980  1.00  0.00     0.212 HD
ENDBRANCH   1  22
BRANCH  11  24
HETATM   24  O2  UNL     1      21.294   1.054  53.099  1.00  0.00    -0.388 OA
HETATM   25  H28 UNL     1      20.445   0.720  53.436  1.00  0.00     0.210 HD
ENDBRANCH  11  24
BRANCH   6  26
HETATM   26  N3  UNL     1      24.600   4.259  50.365  1.00  0.00    -0.315 N 
HETATM   27  C14 UNL     1      23.731   5.332  49.942  1.00  0.00     0.110 C 
HETATM   28  C15 UNL     1      24.107   6.059  48.918  1.00  0.00    -0.007 C 
HETATM   29  C16 UNL     1      25.368   6.311  48.741  1.00  0.00     0.034 C 
HETATM   30  C17 UNL     1      26.332   5.283  49.103  1.00  0.00     0.027 C 
HETATM   31 BR1  UNL     1      28.109   5.418  48.418  1.00  0.00    -0.050 Br
HETATM   32  C18 UNL     1      25.969   4.265  49.903  1.00  0.00     0.117 C 
ENDBRANCH   6  26
TORSDOF 7
ENDMDL
MODEL 9
REMARK VINA RESULT:      -6.6      4.042      7.017
REMARK  7 active torsions:
REMARK  status: ('A' for Active; 'I' for Inactive)
REMARK    1  A    between atoms: C2_2  and  C3_3 
REMARK    2  A    between atoms: C3_3  and  C4_4 
REMARK    3  A    between atoms: C4_4  and  N1_5 
REMARK    4  A    between atoms: C7_8  and  C9_10 
REMARK    5  A    between atoms: C9_10  and  O1_11 
REMARK    6  A    between atoms: C13_16  and  N3_17 
REMARK    7  A    between atoms: C21_28  and  O2_29 
ROOT
HETATM    1  C9  UNL     1      20.703   2.512  50.110  1.00  0.00     0.320 C 
HETATM    2  N2  UNL     1      21.019   1.819  48.893  1.00  0.00     0.127 N 
HETATM    3  C10 UNL     1      22.263   2.216  48.346  1.00  0.00     0.302 C 
HETATM    4  C11 UNL     1      23.281   2.616  49.339  1.00  0.00     0.016 C 
HETATM    5  C12 UNL     1      23.425   2.251  50.601  1.00  0.00     0.014 A 
HETATM    6  C13 UNL     1      24.605   2.970  51.077  1.00  0.00     0.143 A 
HETATM    7  N4  UNL     1      24.946   2.745  52.324  1.00  0.00    -0.224 NA
HETATM    8  C19 UNL     1      24.067   1.816  52.988  1.00  0.00     0.230 A 
HETATM    9  N5  UNL     1      23.019   1.152  52.649  1.00  0.00    -0.270 NA
HETATM   10  C20 UNL     1      22.532   1.312  51.287  1.00  0.00     0.179 A 
HETATM   11  C21 UNL     1      21.068   1.639  51.249  1.00  0.00     0.216 C 
HETATM   12  H18 UNL     1      20.959   0.773  49.000  1.00  0.00     0.320 HD
ENDROOT
BRANCH   1  13
HETATM   13  C7  UNL     1      19.272   3.014  50.092  1.00  0.00     0.220 A 
HETATM   14  N1  UNL     1      18.288   2.151  50.623  1.00  0.00     0.103 N 
HETATM   15  C5  UNL     1      17.646   1.956  49.317  1.00  0.00     0.276 A 
HETATM   16  C6  UNL     1      18.730   2.751  48.701  1.00  0.00     0.077 A 
HETATM   17  C8  UNL     1      19.226   4.478  50.415  1.00  0.00     0.055 C 
BRANCH  14  18
HETATM   18  C4  UNL     1      17.304   2.682  51.510  1.00  0.00     0.273 C 
BRANCH  18  19
HETATM   19  C3  UNL     1      15.994   1.941  51.562  1.00  0.00     0.030 C 
BRANCH  19  20
HETATM   20  C2  UNL     1      15.069   2.856  52.385  1.00  0.00    -0.003 C 
HETATM   21  C1  UNL     1      15.660   4.204  52.619  1.00  0.00     0.005 C 
ENDBRANCH  19  20
ENDBRANCH  18  19
ENDBRANCH  14  18
ENDBRANCH   1  13
BRANCH   1  22
HETATM   22  O1  UNL     1      21.497   3.660  50.216  1.00  0.00    -0.359 OA
HETATM   23  H17 UNL     1      22.452   3.467  50.389  1.00  0.00     0.212 HD
ENDBRANCH   1  22
BRANCH  11  24
HETATM   24  O2  UNL     1      20.783   2.198  52.502  1.00  0.00    -0.388 OA
HETATM   25  H28 UNL     1      19.836   2.382  52.623  1.00  0.00     0.210 HD
ENDBRANCH  11  24
BRANCH   6  26
HETATM   26  N3  UNL     1      25.360   3.858  50.272  1.00  0.00    -0.315 N 
HETATM   27  C14 UNL     1      26.447   3.592  49.359  1.00  0.00     0.110 C 
HETATM   28  C15 UNL     1      27.196   4.600  48.985  1.00  0.00    -0.007 C 
HETATM   29  C16 UNL     1      26.659   5.771  48.826  1.00  0.00     0.034 C 
HETATM   30  C17 UNL     1      25.575   6.157  49.717  1.00  0.00     0.027 C 
HETATM   31 BR1  UNL     1      25.107   8.004  49.834  1.00  0.00    -0.050 Br
HETATM   32  C18 UNL     1      24.924   5.226  50.437  1.00  0.00     0.117 C 
ENDBRANCH   6  26
TORSDOF 7
ENDMDL
