MODEL 1
REMARK VINA RESULT:      -8.2      0.000      0.000
REMARK  4 active torsions:
REMARK  status: ('A' for Active; 'I' for Inactive)
REMARK    1  A    between atoms: O1_2  and  C2_3 
REMARK    2  A    between atoms: C5_6  and  C6_7 
REMARK    3  A    between atoms: S1_9  and  C8_10 
REMARK    4  A    between atoms: C15_18  and  O2_19 
ROOT
HETATM    1  C6  UNL     1      21.961   2.048  51.730  1.00  0.00     0.094 C 
HETATM    2  C7  UNL     1      22.877   1.838  50.746  1.00  0.00     0.080 C 
HETATM    3  S1  UNL     1      24.021   3.007  50.922  1.00  0.00    -0.108 SA
HETATM    4  C14 UNL     1      24.876   4.464  50.461  1.00  0.00     0.099 A 
HETATM    5  C15 UNL     1      24.384   5.485  51.200  1.00  0.00     0.171 A 
HETATM    6  N1  UNL     1      23.306   5.278  52.082  1.00  0.00    -0.194 NA
HETATM    7  C16 UNL     1      22.881   4.072  52.094  1.00  0.00     0.205 A 
HETATM    8  O3  UNL     1      21.897   3.202  52.571  1.00  0.00    -0.285 OA
ENDROOT
BRANCH   1   9
HETATM    9  C5  UNL     1      20.815   1.136  51.974  1.00  0.00    -0.002 A 
HETATM   10  C4  UNL     1      20.751   0.400  53.160  1.00  0.00     0.017 A 
HETATM   11  C3  UNL     1      19.742  -0.475  53.500  1.00  0.00     0.037 A 
HETATM   12  C2  UNL     1      18.705  -0.647  52.610  1.00  0.00     0.068 A 
HETATM   13  C18 UNL     1      18.691   0.040  51.419  1.00  0.00     0.037 A 
HETATM   14  C17 UNL     1      19.737   0.891  51.161  1.00  0.00     0.017 A 
BRANCH  12  15
HETATM   15  O1  UNL     1      17.631  -1.495  52.831  1.00  0.00    -0.356 OA
HETATM   16  C1  UNL     1      17.762  -2.659  53.630  1.00  0.00     0.210 C 
ENDBRANCH  12  15
ENDBRANCH   1   9
BRANCH   3  17
HETATM   17  C8  UNL     1      25.325   2.198  52.215  1.00  0.00    -0.003 A 
HETATM   18  C9  UNL     1      25.298   2.380  53.557  1.00  0.00     0.019 A 
HETATM   19  C10 UNL     1      26.310   1.703  54.178  1.00  0.00     0.020 A 
HETATM   20  C11 UNL     1      27.232   0.936  53.505  1.00  0.00     0.011 A 
HETATM   21 BR1  UNL     1      28.575   0.067  54.577  1.00  0.00    -0.051 Br
HETATM   22  C12 UNL     1      27.198   0.798  52.137  1.00  0.00     0.020 A 
HETATM   23  C13 UNL     1      26.196   1.461  51.460  1.00  0.00     0.019 A 
ENDBRANCH   3  17
BRANCH   5  24
HETATM   24  O2  UNL     1      24.740   6.855  51.245  1.00  0.00    -0.344 OA
HETATM   25  H12 UNL     1      25.176   7.239  50.393  1.00  0.00     0.219 HD
ENDBRANCH   5  24
TORSDOF 4
ENDMDL
MODEL 2
REMARK VINA RESULT:      -8.0      3.695      6.270
REMARK  4 active torsions:
REMARK  status: ('A' for Active; 'I' for Inactive)
REMARK    1  A    between atoms: O1_2  and  C2_3 
REMARK    2  A    between atoms: C5_6  and  C6_7 
REMARK    3  A    between atoms: S1_9  and  C8_10 
REMARK    4  A    between atoms: C15_18  and  O2_19 
ROOT
HETATM    1  C6  UNL     1      23.372   1.748  51.825  1.00  0.00     0.094 C 
HETATM    2  C7  UNL     1      23.011   1.849  50.517  1.00  0.00     0.080 C 
HETATM    3  S1  UNL     1      21.735   2.886  50.468  1.00  0.00    -0.108 SA
HETATM    4  C14 UNL     1      20.049   3.310  50.255  1.00  0.00     0.099 A 
HETATM    5  C15 UNL     1      19.489   3.412  51.482  1.00  0.00     0.171 A 
HETATM    6  N1  UNL     1      20.234   3.109  52.638  1.00  0.00    -0.194 NA
HETATM    7  C16 UNL     1      21.436   2.751  52.392  1.00  0.00     0.205 A 
HETATM    8  O3  UNL     1      22.623   2.252  52.934  1.00  0.00    -0.285 OA
ENDROOT
BRANCH   1   9
HETATM    9  C5  UNL     1      24.557   0.976  52.278  1.00  0.00    -0.002 A 
HETATM   10  C4  UNL     1      24.430   0.053  53.320  1.00  0.00     0.017 A 
HETATM   11  C3  UNL     1      25.452  -0.721  53.825  1.00  0.00     0.037 A 
HETATM   12  C2  UNL     1      26.705  -0.587  53.269  1.00  0.00     0.068 A 
HETATM   13  C18 UNL     1      26.915   0.301  52.239  1.00  0.00     0.037 A 
HETATM   14  C17 UNL     1      25.841   1.032  51.797  1.00  0.00     0.017 A 
BRANCH  12  15
HETATM   15  O1  UNL     1      27.815  -1.304  53.685  1.00  0.00    -0.356 OA
HETATM   16  C1  UNL     1      29.105  -0.717  53.716  1.00  0.00     0.210 C 
ENDBRANCH  12  15
ENDBRANCH   1   9
BRANCH   3  17
HETATM   17  C8  UNL     1      22.601   4.689  50.297  1.00  0.00    -0.003 A 
HETATM   18  C9  UNL     1      22.728   5.585  51.306  1.00  0.00     0.019 A 
HETATM   19  C10 UNL     1      23.363   6.723  50.892  1.00  0.00     0.020 A 
HETATM   20  C11 UNL     1      23.810   6.914  49.606  1.00  0.00     0.011 A 
HETATM   21 BR1  UNL     1      24.678   8.593  49.238  1.00  0.00    -0.051 Br
HETATM   22  C12 UNL     1      23.644   5.957  48.632  1.00  0.00     0.020 A 
HETATM   23  C13 UNL     1      23.009   4.789  48.996  1.00  0.00     0.019 A 
ENDBRANCH   3  17
BRANCH   5  24
HETATM   24  O2  UNL     1      18.173   3.756  51.877  1.00  0.00    -0.344 OA
HETATM   25  H12 UNL     1      17.756   3.177  52.622  1.00  0.00     0.219 HD
ENDBRANCH   5  24
TORSDOF 4
ENDMDL
MODEL 3
REMARK VINA RESULT:      -7.9      4.587      6.492
REMARK  4 active torsions:
REMARK  status: ('A' for Active; 'I' for Inactive)
REMARK    1  A    between atoms: O1_2  and  C2_3 
REMARK    2  A    between atoms: C5_6  and  C6_7 
REMARK    3  A    between atoms: S1_9  and  C8_10 
REMARK    4  A    between atoms: C15_18  and  O2_19 
ROOT
HETATM    1  C6  UNL     1      25.121   2.988  51.255  1.00  0.00     0.094 C 
HETATM    2  C7  UNL     1      25.059   3.106  49.900  1.00  0.00     0.080 C 
HETATM    3  S1  UNL     1      24.075   4.387  49.592  1.00  0.00    -0.108 SA
HETATM    4  C14 UNL     1      22.599   5.149  49.038  1.00  0.00     0.099 A 
HETATM    5  C15 UNL     1      21.839   5.420  50.125  1.00  0.00     0.171 A 
HETATM    6  N1  UNL     1      22.254   5.017  51.408  1.00  0.00    -0.194 NA
HETATM    7  C16 UNL     1      23.374   4.402  51.414  1.00  0.00     0.205 A 
HETATM    8  O3  UNL     1      24.292   3.687  52.186  1.00  0.00    -0.285 OA
ENDROOT
BRANCH   1   9
HETATM    9  C5  UNL     1      25.996   2.003  51.940  1.00  0.00    -0.002 A 
HETATM   10  C4  UNL     1      25.534   0.703  52.170  1.00  0.00     0.017 A 
HETATM   11  C3  UNL     1      26.250  -0.296  52.792  1.00  0.00     0.037 A 
HETATM   12  C2  UNL     1      27.525  -0.008  53.227  1.00  0.00     0.068 A 
HETATM   13  C18 UNL     1      28.054   1.248  53.040  1.00  0.00     0.037 A 
HETATM   14  C17 UNL     1      27.271   2.184  52.411  1.00  0.00     0.017 A 
BRANCH  12  15
HETATM   15  O1  UNL     1      28.347  -0.922  53.866  1.00  0.00    -0.356 OA
HETATM   16  C1  UNL     1      29.754  -0.897  53.692  1.00  0.00     0.210 C 
ENDBRANCH  12  15
ENDBRANCH   1   9
BRANCH   3  17
HETATM   17  C8  UNL     1      25.326   5.956  49.604  1.00  0.00    -0.003 A 
HETATM   18  C9  UNL     1      25.246   7.004  50.458  1.00  0.00     0.019 A 
HETATM   19  C10 UNL     1      26.235   7.918  50.230  1.00  0.00     0.020 A 
HETATM   20  C11 UNL     1      27.187   7.774  49.247  1.00  0.00     0.011 A 
HETATM   21 BR1  UNL     1      28.491   9.183  49.098  1.00  0.00    -0.051 Br
HETATM   22  C12 UNL     1      27.206   6.680  48.414  1.00  0.00     0.020 A 
HETATM   23  C13 UNL     1      26.228   5.725  48.601  1.00  0.00     0.019 A 
ENDBRANCH   3  17
BRANCH   5  24
HETATM   24  O2  UNL     1      20.577   6.053  50.241  1.00  0.00    -0.344 OA
HETATM   25  H12 UNL     1      20.286   6.313  51.196  1.00  0.00     0.219 HD
ENDBRANCH   5  24
TORSDOF 4
ENDMDL
MODEL 4
REMARK VINA RESULT:      -7.7      2.625      7.033
REMARK  4 active torsions:
REMARK  status: ('A' for Active; 'I' for Inactive)
REMARK    1  A    between atoms: O1_2  and  C2_3 
REMARK    2  A    between atoms: C5_6  and  C6_7 
REMARK    3  A    between atoms: S1_9  and  C8_10 
REMARK    4  A    between atoms: C15_18  and  O2_19 
ROOT
HETATM    1  C6  UNL     1      24.507   3.947  50.412  1.00  0.00     0.094 C 
HETATM    2  C7  UNL     1      24.385   4.057  51.763  1.00  0.00     0.080 C 
HETATM    3  S1  UNL     1      23.779   2.621  52.290  1.00  0.00    -0.108 SA
HETATM    4  C14 UNL     1      22.539   1.576  52.952  1.00  0.00     0.099 A 
HETATM    5  C15 UNL     1      21.965   0.911  51.923  1.00  0.00     0.171 A 
HETATM    6  N1  UNL     1      22.339   1.185  50.594  1.00  0.00    -0.194 NA
HETATM    7  C16 UNL     1      23.240   2.085  50.492  1.00  0.00     0.205 A 
HETATM    8  O3  UNL     1      23.974   2.887  49.614  1.00  0.00    -0.285 OA
ENDROOT
BRANCH   1   9
HETATM    9  C5  UNL     1      25.117   5.006  49.568  1.00  0.00    -0.002 A 
HETATM   10  C4  UNL     1      26.490   4.979  49.303  1.00  0.00     0.017 A 
HETATM   11  C3  UNL     1      27.169   5.901  48.536  1.00  0.00     0.037 A 
HETATM   12  C2  UNL     1      26.453   6.937  47.979  1.00  0.00     0.068 A 
HETATM   13  C18 UNL     1      25.097   7.036  48.192  1.00  0.00     0.037 A 
HETATM   14  C17 UNL     1      24.501   6.075  48.969  1.00  0.00     0.017 A 
BRANCH  12  15
HETATM   15  O1  UNL     1      27.015   7.927  47.190  1.00  0.00    -0.356 OA
HETATM   16  C1  UNL     1      26.357   9.165  46.977  1.00  0.00     0.210 C 
ENDBRANCH  12  15
ENDBRANCH   1   9
BRANCH   3  17
HETATM   17  C8  UNL     1      25.417   1.502  52.595  1.00  0.00    -0.003 A 
HETATM   18  C9  UNL     1      25.769   0.427  51.851  1.00  0.00     0.019 A 
HETATM   19  C10 UNL     1      26.935  -0.133  52.294  1.00  0.00     0.020 A 
HETATM   20  C11 UNL     1      27.648   0.352  53.365  1.00  0.00     0.011 A 
HETATM   21 BR1  UNL     1      29.265  -0.589  53.819  1.00  0.00    -0.051 Br
HETATM   22  C12 UNL     1      27.227   1.451  54.076  1.00  0.00     0.020 A 
HETATM   23  C13 UNL     1      26.055   2.055  53.672  1.00  0.00     0.019 A 
ENDBRANCH   3  17
BRANCH   5  24
HETATM   24  O2  UNL     1      20.941  -0.068  51.906  1.00  0.00    -0.344 OA
HETATM   25  H12 UNL     1      20.378  -0.121  51.044  1.00  0.00     0.219 HD
ENDBRANCH   5  24
TORSDOF 4
ENDMDL
MODEL 5
REMARK VINA RESULT:      -7.7      3.625      6.643
REMARK  4 active torsions:
REMARK  status: ('A' for Active; 'I' for Inactive)
REMARK    1  A    between atoms: O1_2  and  C2_3 
REMARK    2  A    between atoms: C5_6  and  C6_7 
REMARK    3  A    between atoms: S1_9  and  C8_10 
REMARK    4  A    between atoms: C15_18  and  O2_19 
ROOT
HETATM    1  C6  UNL     1      25.027   2.566  51.840  1.00  0.00     0.094 C 
HETATM    2  C7  UNL     1      24.159   3.227  52.653  1.00  0.00     0.080 C 
HETATM    3  S1  UNL     1      23.178   4.104  51.666  1.00  0.00    -0.108 SA
HETATM    4  C14 UNL     1      22.564   5.582  50.954  1.00  0.00     0.099 A 
HETATM    5  C15 UNL     1      23.141   5.728  49.740  1.00  0.00     0.171 A 
HETATM    6  N1  UNL     1      24.119   4.818  49.296  1.00  0.00    -0.194 NA
HETATM    7  C16 UNL     1      24.373   3.890  50.138  1.00  0.00     0.205 A 
HETATM    8  O3  UNL     1      25.193   2.800  50.439  1.00  0.00    -0.285 OA
ENDROOT
BRANCH   1   9
HETATM    9  C5  UNL     1      26.018   1.583  52.346  1.00  0.00    -0.002 A 
HETATM   10  C4  UNL     1      25.728   0.216  52.302  1.00  0.00     0.017 A 
HETATM   11  C3  UNL     1      26.563  -0.788  52.739  1.00  0.00     0.037 A 
HETATM   12  C2  UNL     1      27.787  -0.434  53.262  1.00  0.00     0.068 A 
HETATM   13  C18 UNL     1      28.151   0.890  53.342  1.00  0.00     0.037 A 
HETATM   14  C17 UNL     1      27.257   1.826  52.884  1.00  0.00     0.017 A 
BRANCH  12  15
HETATM   15  O1  UNL     1      28.718  -1.345  53.735  1.00  0.00    -0.356 OA
HETATM   16  C1  UNL     1      30.106  -1.058  53.721  1.00  0.00     0.210 C 
ENDBRANCH  12  15
ENDBRANCH   1   9
BRANCH   3  17
HETATM   17  C8  UNL     1      21.691   2.829  51.226  1.00  0.00    -0.003 A 
HETATM   18  C9  UNL     1      21.695   1.965  50.183  1.00  0.00     0.019 A 
HETATM   19  C10 UNL     1      20.549   1.222  50.138  1.00  0.00     0.020 A 
HETATM   20  C11 UNL     1      19.528   1.351  51.051  1.00  0.00     0.011 A 
HETATM   21 BR1  UNL     1      18.002   0.204  50.802  1.00  0.00    -0.051 Br
HETATM   22  C12 UNL     1      19.594   2.253  52.087  1.00  0.00     0.020 A 
HETATM   23  C13 UNL     1      20.730   3.029  52.179  1.00  0.00     0.019 A 
ENDBRANCH   3  17
BRANCH   5  24
HETATM   24  O2  UNL     1      22.975   6.724  48.746  1.00  0.00    -0.344 OA
HETATM   25  H12 UNL     1      22.289   7.465  48.956  1.00  0.00     0.219 HD
ENDBRANCH   5  24
TORSDOF 4
ENDMDL
MODEL 6
REMARK VINA RESULT:      -7.5      8.716     11.377
REMARK  4 active torsions:
REMARK  status: ('A' for Active; 'I' for Inactive)
REMARK    1  A    between atoms: O1_2  and  C2_3 
REMARK    2  A    between atoms: C5_6  and  C6_7 
REMARK    3  A    between atoms: S1_9  and  C8_10 
REMARK    4  A    between atoms: C15_18  and  O2_19 
ROOT
HETATM    1  C6  UNL     1      30.728   6.701  47.967  1.00  0.00     0.094 C 
HETATM    2  C7  UNL     1      31.199   7.757  47.249  1.00  0.00     0.080 C 
HETATM    3  S1  UNL     1      32.823   7.535  47.110  1.00  0.00    -0.108 SA
HETATM    4  C14 UNL     1      34.503   7.897  47.448  1.00  0.00     0.099 A 
HETATM    5  C15 UNL     1      34.933   7.029  48.392  1.00  0.00     0.171 A 
HETATM    6  N1  UNL     1      34.044   6.108  48.977  1.00  0.00    -0.194 NA
HETATM    7  C16 UNL     1      32.851   6.191  48.526  1.00  0.00     0.205 A 
HETATM    8  O3  UNL     1      31.534   5.745  48.660  1.00  0.00    -0.285 OA
ENDROOT
BRANCH   1   9
HETATM    9  C5  UNL     1      29.283   6.481  48.224  1.00  0.00    -0.002 A 
HETATM   10  C4  UNL     1      28.803   5.184  48.433  1.00  0.00     0.017 A 
HETATM   11  C3  UNL     1      27.488   4.854  48.681  1.00  0.00     0.037 A 
HETATM   12  C2  UNL     1      26.561   5.871  48.733  1.00  0.00     0.068 A 
HETATM   13  C18 UNL     1      26.951   7.176  48.538  1.00  0.00     0.037 A 
HETATM   14  C17 UNL     1      28.281   7.415  48.296  1.00  0.00     0.017 A 
BRANCH  12  15
HETATM   15  O1  UNL     1      25.211   5.674  48.974  1.00  0.00    -0.356 OA
HETATM   16  C1  UNL     1      24.677   5.742  50.286  1.00  0.00     0.210 C 
ENDBRANCH  12  15
ENDBRANCH   1   9
BRANCH   3  17
HETATM   17  C8  UNL     1      33.005   6.414  45.455  1.00  0.00    -0.003 A 
HETATM   18  C9  UNL     1      33.103   5.063  45.442  1.00  0.00     0.019 A 
HETATM   19  C10 UNL     1      33.213   4.578  44.169  1.00  0.00     0.020 A 
HETATM   20  C11 UNL     1      33.222   5.379  43.052  1.00  0.00     0.011 A 
HETATM   21 BR1  UNL     1      33.386   4.487  41.353  1.00  0.00    -0.051 Br
HETATM   22  C12 UNL     1      33.119   6.748  43.142  1.00  0.00     0.020 A 
HETATM   23  C13 UNL     1      33.006   7.291  44.405  1.00  0.00     0.019 A 
ENDBRANCH   3  17
BRANCH   5  24
HETATM   24  O2  UNL     1      36.204   6.867  48.995  1.00  0.00    -0.344 OA
HETATM   25  H12 UNL     1      37.000   7.295  48.499  1.00  0.00     0.219 HD
ENDBRANCH   5  24
TORSDOF 4
ENDMDL
MODEL 7
REMARK VINA RESULT:      -7.4      3.479      7.815
REMARK  4 active torsions:
REMARK  status: ('A' for Active; 'I' for Inactive)
REMARK    1  A    between atoms: O1_2  and  C2_3 
REMARK    2  A    between atoms: C5_6  and  C6_7 
REMARK    3  A    between atoms: S1_9  and  C8_10 
REMARK    4  A    between atoms: C15_18  and  O2_19 
ROOT
HETATM    1  C6  UNL     1      24.696   5.424  49.476  1.00  0.00     0.094 C 
HETATM    2  C7  UNL     1      24.298   5.781  50.728  1.00  0.00     0.080 C 
HETATM    3  S1  UNL     1      22.852   5.039  50.982  1.00  0.00    -0.108 SA
HETATM    4  C14 UNL     1      21.113   4.992  51.186  1.00  0.00     0.099 A 
HETATM    5  C15 UNL     1      20.567   4.627  50.004  1.00  0.00     0.171 A 
HETATM    6  N1  UNL     1      21.376   4.440  48.867  1.00  0.00    -0.194 NA
HETATM    7  C16 UNL     1      22.619   4.644  49.084  1.00  0.00     0.205 A 
HETATM    8  O3  UNL     1      23.888   4.748  48.510  1.00  0.00    -0.285 OA
ENDROOT
BRANCH   1   9
HETATM    9  C5  UNL     1      26.012   5.811  48.907  1.00  0.00    -0.002 A 
HETATM   10  C4  UNL     1      27.068   4.896  48.909  1.00  0.00     0.017 A 
HETATM   11  C3  UNL     1      28.330   5.136  48.411  1.00  0.00     0.037 A 
HETATM   12  C2  UNL     1      28.586   6.373  47.861  1.00  0.00     0.068 A 
HETATM   13  C18 UNL     1      27.600   7.331  47.819  1.00  0.00     0.037 A 
HETATM   14  C17 UNL     1      26.372   7.007  48.339  1.00  0.00     0.017 A 
BRANCH  12  15
HETATM   15  O1  UNL     1      29.811   6.741  47.326  1.00  0.00    -0.356 OA
HETATM   16  C1  UNL     1      30.443   7.954  47.696  1.00  0.00     0.210 C 
ENDBRANCH  12  15
ENDBRANCH   1   9
BRANCH   3  17
HETATM   17  C8  UNL     1      23.367   3.249  51.730  1.00  0.00    -0.003 A 
HETATM   18  C9  UNL     1      22.967   2.056  51.227  1.00  0.00     0.019 A 
HETATM   19  C10 UNL     1      23.478   1.010  51.942  1.00  0.00     0.020 A 
HETATM   20  C11 UNL     1      24.297   1.170  53.036  1.00  0.00     0.011 A 
HETATM   21 BR1  UNL     1      24.905  -0.441  53.898  1.00  0.00    -0.051 Br
HETATM   22  C12 UNL     1      24.661   2.415  53.491  1.00  0.00     0.020 A 
HETATM   23  C13 UNL     1      24.172   3.507  52.805  1.00  0.00     0.019 A 
ENDBRANCH   3  17
BRANCH   5  24
HETATM   24  O2  UNL     1      19.218   4.411  49.631  1.00  0.00    -0.344 OA
HETATM   25  H12 UNL     1      18.908   4.866  48.759  1.00  0.00     0.219 HD
ENDBRANCH   5  24
TORSDOF 4
ENDMDL
MODEL 8
REMARK VINA RESULT:      -7.3      3.456      7.436
REMARK  4 active torsions:
REMARK  status: ('A' for Active; 'I' for Inactive)
REMARK    1  A    between atoms: O1_2  and  C2_3 
REMARK    2  A    between atoms: C5_6  and  C6_7 
REMARK    3  A    between atoms: S1_9  and  C8_10 
REMARK    4  A    between atoms: C15_18  and  O2_19 
ROOT
HETATM    1  C6  UNL     1      23.285   3.761  49.602  1.00  0.00     0.094 C 
HETATM    2  C7  UNL     1      22.502   4.254  50.600  1.00  0.00     0.080 C 
HETATM    3  S1  UNL     1      21.161   3.303  50.648  1.00  0.00    -0.108 SA
HETATM    4  C14 UNL     1      19.459   2.957  50.417  1.00  0.00     0.099 A 
HETATM    5  C15 UNL     1      19.327   2.286  49.250  1.00  0.00     0.171 A 
HETATM    6  N1  UNL     1      20.444   2.057  48.424  1.00  0.00    -0.194 NA
HETATM    7  C16 UNL     1      21.533   2.535  48.892  1.00  0.00     0.205 A 
HETATM    8  O3  UNL     1      22.886   2.778  48.644  1.00  0.00    -0.285 OA
ENDROOT
BRANCH   1   9
HETATM    9  C5  UNL     1      24.642   4.287  49.306  1.00  0.00    -0.002 A 
HETATM   10  C4  UNL     1      24.795   5.602  48.857  1.00  0.00     0.017 A 
HETATM   11  C3  UNL     1      25.997   6.203  48.552  1.00  0.00     0.037 A 
HETATM   12  C2  UNL     1      27.149   5.461  48.696  1.00  0.00     0.068 A 
HETATM   13  C18 UNL     1      27.085   4.159  49.133  1.00  0.00     0.037 A 
HETATM   14  C17 UNL     1      25.846   3.639  49.414  1.00  0.00     0.017 A 
BRANCH  12  15
HETATM   15  O1  UNL     1      28.418   5.946  48.424  1.00  0.00    -0.356 OA
HETATM   16  C1  UNL     1      28.635   7.311  48.107  1.00  0.00     0.210 C 
ENDBRANCH  12  15
ENDBRANCH   1   9
BRANCH   3  17
HETATM   17  C8  UNL     1      21.683   1.812  51.886  1.00  0.00    -0.003 A 
HETATM   18  C9  UNL     1      22.829   1.095  51.793  1.00  0.00     0.019 A 
HETATM   19  C10 UNL     1      22.912   0.148  52.775  1.00  0.00     0.020 A 
HETATM   20  C11 UNL     1      21.941  -0.037  53.731  1.00  0.00     0.011 A 
HETATM   21 BR1  UNL     1      22.259  -1.428  55.023  1.00  0.00    -0.051 Br
HETATM   22  C12 UNL     1      20.800   0.731  53.763  1.00  0.00     0.020 A 
HETATM   23  C13 UNL     1      20.665   1.702  52.792  1.00  0.00     0.019 A 
ENDBRANCH   3  17
BRANCH   5  24
HETATM   24  O2  UNL     1      18.183   1.748  48.613  1.00  0.00    -0.344 OA
HETATM   25  H12 UNL     1      17.392   1.505  49.228  1.00  0.00     0.219 HD
ENDBRANCH   5  24
TORSDOF 4
ENDMDL
MODEL 9
REMARK VINA RESULT:      -7.2      7.651     10.115
REMARK  4 active torsions:
REMARK  status: ('A' for Active; 'I' for Inactive)
REMARK    1  A    between atoms: O1_2  and  C2_3 
REMARK    2  A    between atoms: C5_6  and  C6_7 
REMARK    3  A    between atoms: S1_9  and  C8_10 
REMARK    4  A    between atoms: C15_18  and  O2_19 
ROOT
HETATM    1  C6  UNL     1      28.993   7.452  47.782  1.00  0.00     0.094 C 
HETATM    2  C7  UNL     1      29.186   7.674  46.453  1.00  0.00     0.080 C 
HETATM    3  S1  UNL     1      30.579   8.539  46.326  1.00  0.00    -0.108 SA
HETATM    4  C14 UNL     1      31.522   9.979  46.004  1.00  0.00     0.099 A 
HETATM    5  C15 UNL     1      31.817  10.556  47.191  1.00  0.00     0.171 A 
HETATM    6  N1  UNL     1      31.307  10.028  48.392  1.00  0.00    -0.194 NA
HETATM    7  C16 UNL     1      30.575   8.993  48.225  1.00  0.00     0.205 A 
HETATM    8  O3  UNL     1      29.728   8.069  48.841  1.00  0.00    -0.285 OA
ENDROOT
BRANCH   1   9
HETATM    9  C5  UNL     1      27.886   6.613  48.307  1.00  0.00    -0.002 A 
HETATM   10  C4  UNL     1      28.087   5.245  48.514  1.00  0.00     0.017 A 
HETATM   11  C3  UNL     1      27.142   4.367  48.996  1.00  0.00     0.037 A 
HETATM   12  C2  UNL     1      25.893   4.860  49.306  1.00  0.00     0.068 A 
HETATM   13  C18 UNL     1      25.613   6.196  49.131  1.00  0.00     0.037 A 
HETATM   14  C17 UNL     1      26.614   7.000  48.645  1.00  0.00     0.017 A 
BRANCH  12  15
HETATM   15  O1  UNL     1      24.856   4.084  49.798  1.00  0.00    -0.356 OA
HETATM   16  C1  UNL     1      24.156   4.449  50.975  1.00  0.00     0.210 C 
ENDBRANCH  12  15
ENDBRANCH   1   9
BRANCH   3  17
HETATM   17  C8  UNL     1      32.002   7.128  46.228  1.00  0.00    -0.003 A 
HETATM   18  C9  UNL     1      32.654   6.610  47.297  1.00  0.00     0.019 A 
HETATM   19  C10 UNL     1      33.567   5.664  46.921  1.00  0.00     0.020 A 
HETATM   20  C11 UNL     1      33.781   5.297  45.613  1.00  0.00     0.011 A 
HETATM   21 BR1  UNL     1      35.116   3.943  45.307  1.00  0.00    -0.051 Br
HETATM   22  C12 UNL     1      33.080   5.869  44.577  1.00  0.00     0.020 A 
HETATM   23  C13 UNL     1      32.146   6.830  44.901  1.00  0.00     0.019 A 
ENDBRANCH   3  17
BRANCH   5  24
HETATM   24  O2  UNL     1      32.575  11.713  47.499  1.00  0.00    -0.344 OA
HETATM   25  H12 UNL     1      32.758  11.883  48.499  1.00  0.00     0.219 HD
ENDBRANCH   5  24
TORSDOF 4
ENDMDL
