MODEL 1
REMARK VINA RESULT:      -9.0      0.000      0.000
REMARK  1 active torsions:
REMARK  status: ('A' for Active; 'I' for Inactive)
REMARK    1  A    between atoms: O1_2  and  C2_3 
ROOT
HETATM    1  C2  UNL     1      26.915   1.212  52.856  1.00  0.00     0.078 C 
HETATM    2  C3  UNL     1      26.519   0.031  53.386  1.00  0.00     0.037 C 
HETATM    3  C4  UNL     1      25.471  -0.918  53.812  1.00  0.00    -0.001 C 
HETATM    4  C5  UNL     1      24.128  -0.867  53.854  1.00  0.00    -0.021 C 
HETATM    5  C6  UNL     1      22.728  -0.390  53.742  1.00  0.00     0.021 C 
HETATM    6  C7  UNL     1      22.218   0.807  53.374  1.00  0.00     0.003 C 
HETATM    7  C8  UNL     1      20.785   1.148  53.299  1.00  0.00     0.040 C 
HETATM    8  C9  UNL     1      20.364   1.715  51.987  1.00  0.00    -0.072 C 
HETATM    9  C10 UNL     1      20.119   0.827  51.043  1.00  0.00     0.005 C 
HETATM   10  C11 UNL     1      20.247   0.967  49.598  1.00  0.00     0.019 C 
HETATM   11  C12 UNL     1      20.782   1.912  48.802  1.00  0.00     0.109 C 
HETATM   12  N1  UNL     1      21.650   3.025  49.125  1.00  0.00    -0.288 N 
HETATM   13  N2  UNL     1      22.186   3.534  50.345  1.00  0.00    -0.161 NA
HETATM   14  C13 UNL     1      21.700   3.657  51.540  1.00  0.00     0.128 C 
HETATM   15  C14 UNL     1      20.354   3.224  52.066  1.00  0.00     0.114 C 
HETATM   16  N3  UNL     1      22.965   4.306  51.875  1.00  0.00    -0.343 N 
HETATM   17  C15 UNL     1      24.240   3.698  51.870  1.00  0.00     0.035 A 
HETATM   18  C16 UNL     1      24.798   4.221  50.722  1.00  0.00     0.053 A 
HETATM   19  C17 UNL     1      26.070   3.801  50.288  1.00  0.00     0.037 A 
HETATM   20 CL1  UNL     1      26.939   4.357  48.859  1.00  0.00    -0.084 Cl
HETATM   21  C18 UNL     1      26.622   2.841  51.148  1.00  0.00     0.038 A 
HETATM   22  C19 UNL     1      26.082   2.284  52.325  1.00  0.00     0.001 A 
HETATM   23  C20 UNL     1      24.881   2.771  52.623  1.00  0.00     0.043 A 
HETATM   24  H14 UNL     1      21.829   3.435  48.151  1.00  0.00     0.188 HD
HETATM   25  H17 UNL     1      22.638   5.250  52.045  1.00  0.00     0.167 HD
ENDROOT
BRANCH   1  26
HETATM   26  O1  UNL     1      28.306   1.460  52.771  1.00  0.00    -0.355 OA
HETATM   27  C1  UNL     1      29.069   0.952  53.875  1.00  0.00     0.210 C 
ENDBRANCH   1  26
TORSDOF 1
ENDMDL
MODEL 2
REMARK VINA RESULT:      -8.4      3.571      5.481
REMARK  1 active torsions:
REMARK  status: ('A' for Active; 'I' for Inactive)
REMARK    1  A    between atoms: O1_2  and  C2_3 
ROOT
HETATM    1  C2  UNL     1      26.338   7.699  49.102  1.00  0.00     0.078 C 
HETATM    2  C3  UNL     1      27.195   6.734  48.693  1.00  0.00     0.037 C 
HETATM    3  C4  UNL     1      27.609   5.321  48.587  1.00  0.00    -0.001 C 
HETATM    4  C5  UNL     1      27.110   4.165  49.061  1.00  0.00    -0.021 C 
HETATM    5  C6  UNL     1      26.257   3.179  49.766  1.00  0.00     0.021 C 
HETATM    6  C7  UNL     1      25.177   3.339  50.565  1.00  0.00     0.003 C 
HETATM    7  C8  UNL     1      24.408   2.255  51.203  1.00  0.00     0.040 C 
HETATM    8  C9  UNL     1      22.943   2.310  50.936  1.00  0.00    -0.072 C 
HETATM    9  C10 UNL     1      22.562   1.791  49.784  1.00  0.00     0.005 C 
HETATM   10  C11 UNL     1      21.415   2.142  48.957  1.00  0.00     0.019 C 
HETATM   11  C12 UNL     1      20.522   3.149  48.988  1.00  0.00     0.109 C 
HETATM   12  N1  UNL     1      20.541   4.393  49.730  1.00  0.00    -0.288 N 
HETATM   13  N2  UNL     1      21.437   4.955  50.687  1.00  0.00    -0.161 NA
HETATM   14  C13 UNL     1      22.123   4.445  51.662  1.00  0.00     0.128 C 
HETATM   15  C14 UNL     1      22.243   3.001  52.083  1.00  0.00     0.114 C 
HETATM   16  N3  UNL     1      22.533   5.816  51.952  1.00  0.00    -0.343 N 
HETATM   17  C15 UNL     1      23.315   6.645  51.118  1.00  0.00     0.035 A 
HETATM   18  C16 UNL     1      22.368   7.517  50.619  1.00  0.00     0.053 A 
HETATM   19  C17 UNL     1      22.720   8.484  49.658  1.00  0.00     0.037 A 
HETATM   20 CL1  UNL     1      21.655   9.676  48.916  1.00  0.00    -0.084 Cl
HETATM   21  C18 UNL     1      24.079   8.413  49.322  1.00  0.00     0.038 A 
HETATM   22  C19 UNL     1      25.072   7.538  49.809  1.00  0.00     0.001 A 
HETATM   23  C20 UNL     1      24.608   6.681  50.713  1.00  0.00     0.043 A 
HETATM   24  H14 UNL     1      19.644   4.858  49.373  1.00  0.00     0.188 HD
HETATM   25  H17 UNL     1      22.068   5.953  52.842  1.00  0.00     0.167 HD
ENDROOT
BRANCH   1  26
HETATM   26  O1  UNL     1      26.670   9.042  48.805  1.00  0.00    -0.355 OA
HETATM   27  C1  UNL     1      27.721   9.589  49.616  1.00  0.00     0.210 C 
ENDBRANCH   1  26
TORSDOF 1
ENDMDL
MODEL 3
REMARK VINA RESULT:      -8.3      3.670      6.208
REMARK  1 active torsions:
REMARK  status: ('A' for Active; 'I' for Inactive)
REMARK    1  A    between atoms: O1_2  and  C2_3 
ROOT
HETATM    1  C2  UNL     1      19.114  -0.941  53.031  1.00  0.00     0.078 C 
HETATM    2  C3  UNL     1      20.021  -1.254  53.986  1.00  0.00     0.037 C 
HETATM    3  C4  UNL     1      21.368  -1.158  54.583  1.00  0.00    -0.001 C 
HETATM    4  C5  UNL     1      22.511  -0.554  54.211  1.00  0.00    -0.021 C 
HETATM    5  C6  UNL     1      23.513   0.226  53.445  1.00  0.00     0.021 C 
HETATM    6  C7  UNL     1      23.442   0.828  52.235  1.00  0.00     0.003 C 
HETATM    7  C8  UNL     1      24.526   1.587  51.585  1.00  0.00     0.040 C 
HETATM    8  C9  UNL     1      24.133   2.958  51.152  1.00  0.00    -0.072 C 
HETATM    9  C10 UNL     1      24.167   3.877  52.098  1.00  0.00     0.005 C 
HETATM   10  C11 UNL     1      23.369   5.090  52.224  1.00  0.00     0.019 C 
HETATM   11  C12 UNL     1      22.292   5.563  51.571  1.00  0.00     0.109 C 
HETATM   12  N1  UNL     1      21.387   4.900  50.655  1.00  0.00    -0.288 N 
HETATM   13  N2  UNL     1      21.338   3.588  50.098  1.00  0.00    -0.161 NA
HETATM   14  C13 UNL     1      22.253   2.772  49.674  1.00  0.00     0.128 C 
HETATM   15  C14 UNL     1      23.752   2.938  49.690  1.00  0.00     0.114 C 
HETATM   16  N3  UNL     1      21.148   1.895  49.295  1.00  0.00    -0.343 N 
HETATM   17  C15 UNL     1      20.237   1.274  50.177  1.00  0.00     0.035 A 
HETATM   18  C16 UNL     1      19.100   2.033  49.990  1.00  0.00     0.053 A 
HETATM   19  C17 UNL     1      17.946   1.796  50.760  1.00  0.00     0.037 A 
HETATM   20 CL1  UNL     1      16.410   2.655  50.659  1.00  0.00    -0.084 Cl
HETATM   21  C18 UNL     1      18.135   0.749  51.672  1.00  0.00     0.038 A 
HETATM   22  C19 UNL     1      19.279  -0.046  51.892  1.00  0.00     0.001 A 
HETATM   23  C20 UNL     1      20.293   0.279  51.096  1.00  0.00     0.043 A 
HETATM   24  H14 UNL     1      20.683   5.682  50.460  1.00  0.00     0.188 HD
HETATM   25  H17 UNL     1      21.236   1.930  48.286  1.00  0.00     0.167 HD
ENDROOT
BRANCH   1  26
HETATM   26  O1  UNL     1      17.827  -1.521  53.132  1.00  0.00    -0.355 OA
HETATM   27  C1  UNL     1      17.793  -2.774  53.832  1.00  0.00     0.210 C 
ENDBRANCH   1  26
TORSDOF 1
ENDMDL
MODEL 4
REMARK VINA RESULT:      -8.1      2.707      4.879
REMARK  1 active torsions:
REMARK  status: ('A' for Active; 'I' for Inactive)
REMARK    1  A    between atoms: O1_2  and  C2_3 
ROOT
HETATM    1  C2  UNL     1      25.219  -0.389  54.334  1.00  0.00     0.078 C 
HETATM    2  C3  UNL     1      26.472   0.121  54.374  1.00  0.00     0.037 C 
HETATM    3  C4  UNL     1      27.527   1.023  53.869  1.00  0.00    -0.001 C 
HETATM    4  C5  UNL     1      27.604   1.880  52.835  1.00  0.00    -0.021 C 
HETATM    5  C6  UNL     1      27.268   2.666  51.624  1.00  0.00     0.021 C 
HETATM    6  C7  UNL     1      26.170   2.666  50.833  1.00  0.00     0.003 C 
HETATM    7  C8  UNL     1      25.961   3.517  49.647  1.00  0.00     0.040 C 
HETATM    8  C9  UNL     1      24.689   4.292  49.672  1.00  0.00    -0.072 C 
HETATM    9  C10 UNL     1      24.726   5.412  50.368  1.00  0.00     0.005 C 
HETATM   10  C11 UNL     1      23.643   6.091  51.069  1.00  0.00     0.019 C 
HETATM   11  C12 UNL     1      22.377   5.750  51.372  1.00  0.00     0.109 C 
HETATM   12  N1  UNL     1      21.716   4.463  51.314  1.00  0.00    -0.288 N 
HETATM   13  N2  UNL     1      22.125   3.164  50.889  1.00  0.00    -0.161 NA
HETATM   14  C13 UNL     1      22.869   2.747  49.913  1.00  0.00     0.128 C 
HETATM   15  C14 UNL     1      23.629   3.553  48.889  1.00  0.00     0.114 C 
HETATM   16  N3  UNL     1      22.533   1.401  50.369  1.00  0.00    -0.343 N 
HETATM   17  C15 UNL     1      22.895   0.827  51.608  1.00  0.00     0.035 A 
HETATM   18  C16 UNL     1      21.702   0.868  52.299  1.00  0.00     0.053 A 
HETATM   19  C17 UNL     1      21.638   0.455  53.644  1.00  0.00     0.037 A 
HETATM   20 CL1  UNL     1      20.211   0.434  54.678  1.00  0.00    -0.084 Cl
HETATM   21  C18 UNL     1      22.888   0.035  54.119  1.00  0.00     0.038 A 
HETATM   22  C19 UNL     1      24.125  -0.020  53.444  1.00  0.00     0.001 A 
HETATM   23  C20 UNL     1      24.044   0.392  52.182  1.00  0.00     0.043 A 
HETATM   24  H14 UNL     1      20.748   4.712  51.700  1.00  0.00     0.188 HD
HETATM   25  H17 UNL     1      21.971   1.086  49.587  1.00  0.00     0.167 HD
ENDROOT
BRANCH   1  26
HETATM   26  O1  UNL     1      24.888  -1.392  55.277  1.00  0.00    -0.355 OA
HETATM   27  C1  UNL     1      25.127  -1.026  56.644  1.00  0.00     0.210 C 
ENDBRANCH   1  26
TORSDOF 1
ENDMDL
MODEL 5
REMARK VINA RESULT:      -8.0      3.369      5.572
REMARK  1 active torsions:
REMARK  status: ('A' for Active; 'I' for Inactive)
REMARK    1  A    between atoms: O1_2  and  C2_3 
ROOT
HETATM    1  C2  UNL     1      22.287  -0.161  52.783  1.00  0.00     0.078 C 
HETATM    2  C3  UNL     1      23.432   0.445  53.177  1.00  0.00     0.037 C 
HETATM    3  C4  UNL     1      24.477   1.476  53.026  1.00  0.00    -0.001 C 
HETATM    4  C5  UNL     1      24.714   2.436  52.113  1.00  0.00    -0.021 C 
HETATM    5  C6  UNL     1      24.604   3.309  50.920  1.00  0.00     0.021 C 
HETATM    6  C7  UNL     1      23.739   3.297  49.880  1.00  0.00     0.003 C 
HETATM    7  C8  UNL     1      23.738   4.242  48.748  1.00  0.00     0.040 C 
HETATM    8  C9  UNL     1      22.424   4.902  48.509  1.00  0.00    -0.072 C 
HETATM    9  C10 UNL     1      22.173   5.947  49.275  1.00  0.00     0.005 C 
HETATM   10  C11 UNL     1      20.886   6.461  49.729  1.00  0.00     0.019 C 
HETATM   11  C12 UNL     1      19.627   5.987  49.675  1.00  0.00     0.109 C 
HETATM   12  N1  UNL     1      19.139   4.662  49.354  1.00  0.00    -0.288 N 
HETATM   13  N2  UNL     1      19.774   3.450  48.949  1.00  0.00    -0.161 NA
HETATM   14  C13 UNL     1      20.773   3.196  48.163  1.00  0.00     0.128 C 
HETATM   15  C14 UNL     1      21.671   4.160  47.429  1.00  0.00     0.114 C 
HETATM   16  N3  UNL     1      20.479   1.788  48.416  1.00  0.00    -0.343 N 
HETATM   17  C15 UNL     1      20.586   1.125  49.659  1.00  0.00     0.035 A 
HETATM   18  C16 UNL     1      19.262   0.998  50.027  1.00  0.00     0.053 A 
HETATM   19  C17 UNL     1      18.916   0.449  51.276  1.00  0.00     0.037 A 
HETATM   20 CL1  UNL     1      17.289   0.207  51.911  1.00  0.00    -0.084 Cl
HETATM   21  C18 UNL     1      20.048   0.088  52.018  1.00  0.00     0.038 A 
HETATM   22  C19 UNL     1      21.411   0.203  51.676  1.00  0.00     0.001 A 
HETATM   23  C20 UNL     1      21.599   0.731  50.470  1.00  0.00     0.043 A 
HETATM   24  H14 UNL     1      18.086   4.791  49.500  1.00  0.00     0.188 HD
HETATM   25  H17 UNL     1      20.162   1.508  47.495  1.00  0.00     0.167 HD
ENDROOT
BRANCH   1  26
HETATM   26  O1  UNL     1      21.843  -1.277  53.532  1.00  0.00    -0.355 OA
HETATM   27  C1  UNL     1      22.259  -1.275  54.906  1.00  0.00     0.210 C 
ENDBRANCH   1  26
TORSDOF 1
ENDMDL
MODEL 6
REMARK VINA RESULT:      -7.8      8.680     11.767
REMARK  1 active torsions:
REMARK  status: ('A' for Active; 'I' for Inactive)
REMARK    1  A    between atoms: O1_2  and  C2_3 
ROOT
HETATM    1  C2  UNL     1      32.684   5.061  48.040  1.00  0.00     0.078 C 
HETATM    2  C3  UNL     1      33.914   5.503  48.389  1.00  0.00     0.037 C 
HETATM    3  C4  UNL     1      34.929   6.569  48.506  1.00  0.00    -0.001 C 
HETATM    4  C5  UNL     1      34.969   7.862  48.140  1.00  0.00    -0.021 C 
HETATM    5  C6  UNL     1      34.599   9.184  47.578  1.00  0.00     0.021 C 
HETATM    6  C7  UNL     1      33.501   9.592  46.901  1.00  0.00     0.003 C 
HETATM    7  C8  UNL     1      33.255  10.956  46.400  1.00  0.00     0.040 C 
HETATM    8  C9  UNL     1      31.951  11.536  46.829  1.00  0.00    -0.072 C 
HETATM    9  C10 UNL     1      31.943  12.066  48.037  1.00  0.00     0.005 C 
HETATM   10  C11 UNL     1      30.833  12.191  48.974  1.00  0.00     0.019 C 
HETATM   11  C12 UNL     1      29.583  11.694  49.003  1.00  0.00     0.109 C 
HETATM   12  N1  UNL     1      28.976  10.643  48.212  1.00  0.00    -0.288 N 
HETATM   13  N2  UNL     1      29.439   9.827  47.137  1.00  0.00    -0.161 NA
HETATM   14  C13 UNL     1      30.198  10.063  46.113  1.00  0.00     0.128 C 
HETATM   15  C14 UNL     1      30.922  11.333  45.741  1.00  0.00     0.114 C 
HETATM   16  N3  UNL     1      29.919   8.684  45.721  1.00  0.00    -0.343 N 
HETATM   17  C15 UNL     1      30.307   7.523  46.426  1.00  0.00     0.035 A 
HETATM   18  C16 UNL     1      29.114   7.124  46.992  1.00  0.00     0.053 A 
HETATM   19  C17 UNL     1      29.070   6.021  47.866  1.00  0.00     0.037 A 
HETATM   20 CL1  UNL     1      27.646   5.367  48.675  1.00  0.00    -0.084 Cl
HETATM   21  C18 UNL     1      30.336   5.450  48.048  1.00  0.00     0.038 A 
HETATM   22  C19 UNL     1      31.574   5.830  47.489  1.00  0.00     0.001 A 
HETATM   23  C20 UNL     1      31.474   6.880  46.680  1.00  0.00     0.043 A 
HETATM   24  H14 UNL     1      28.000  10.596  48.649  1.00  0.00     0.188 HD
HETATM   25  H17 UNL     1      29.371   8.847  44.885  1.00  0.00     0.167 HD
ENDROOT
BRANCH   1  26
HETATM   26  O1  UNL     1      32.396   3.689  48.242  1.00  0.00    -0.355 OA
HETATM   27  C1  UNL     1      33.137   2.796  47.397  1.00  0.00     0.210 C 
ENDBRANCH   1  26
TORSDOF 1
ENDMDL
MODEL 7
REMARK VINA RESULT:      -7.7      3.061      5.634
REMARK  1 active torsions:
REMARK  status: ('A' for Active; 'I' for Inactive)
REMARK    1  A    between atoms: O1_2  and  C2_3 
ROOT
HETATM    1  C2  UNL     1      22.936   0.627  51.997  1.00  0.00     0.078 C 
HETATM    2  C3  UNL     1      24.218   0.555  52.424  1.00  0.00     0.037 C 
HETATM    3  C4  UNL     1      25.614   1.035  52.437  1.00  0.00    -0.001 C 
HETATM    4  C5  UNL     1      26.274   1.999  51.770  1.00  0.00    -0.021 C 
HETATM    5  C6  UNL     1      26.592   3.111  50.842  1.00  0.00     0.021 C 
HETATM    6  C7  UNL     1      25.840   3.743  49.912  1.00  0.00     0.003 C 
HETATM    7  C8  UNL     1      26.286   4.854  49.051  1.00  0.00     0.040 C 
HETATM    8  C9  UNL     1      25.403   6.053  49.100  1.00  0.00    -0.072 C 
HETATM    9  C10 UNL     1      25.614   6.865  50.118  1.00  0.00     0.005 C 
HETATM   10  C11 UNL     1      24.672   7.746  50.797  1.00  0.00     0.019 C 
HETATM   11  C12 UNL     1      23.335   7.893  50.741  1.00  0.00     0.109 C 
HETATM   12  N1  UNL     1      22.324   7.042  50.150  1.00  0.00    -0.288 N 
HETATM   13  N2  UNL     1      22.373   5.826  49.406  1.00  0.00    -0.161 NA
HETATM   14  C13 UNL     1      23.181   5.379  48.495  1.00  0.00     0.128 C 
HETATM   15  C14 UNL     1      24.432   6.016  47.942  1.00  0.00     0.114 C 
HETATM   16  N3  UNL     1      22.291   4.223  48.421  1.00  0.00    -0.343 N 
HETATM   17  C15 UNL     1      22.061   3.282  49.448  1.00  0.00     0.035 A 
HETATM   18  C16 UNL     1      20.806   3.647  49.891  1.00  0.00     0.053 A 
HETATM   19  C17 UNL     1      20.219   2.998  50.993  1.00  0.00     0.037 A 
HETATM   20 CL1  UNL     1      18.633   3.324  51.693  1.00  0.00    -0.084 Cl
HETATM   21  C18 UNL     1      21.056   2.005  51.520  1.00  0.00     0.038 A 
HETATM   22  C19 UNL     1      22.340   1.606  51.096  1.00  0.00     0.001 A 
HETATM   23  C20 UNL     1      22.774   2.295  50.044  1.00  0.00     0.043 A 
HETATM   24  H14 UNL     1      21.430   7.568  50.417  1.00  0.00     0.188 HD
HETATM   25  H17 UNL     1      21.910   4.356  47.491  1.00  0.00     0.167 HD
ENDROOT
BRANCH   1  26
HETATM   26  O1  UNL     1      22.025  -0.341  52.486  1.00  0.00    -0.355 OA
HETATM   27  C1  UNL     1      22.436  -0.983  53.703  1.00  0.00     0.210 C 
ENDBRANCH   1  26
TORSDOF 1
ENDMDL
MODEL 8
REMARK VINA RESULT:      -7.3      3.052      5.898
REMARK  1 active torsions:
REMARK  status: ('A' for Active; 'I' for Inactive)
REMARK    1  A    between atoms: O1_2  and  C2_3 
ROOT
HETATM    1  C2  UNL     1      21.047   1.108  51.473  1.00  0.00     0.078 C 
HETATM    2  C3  UNL     1      20.305   1.141  50.342  1.00  0.00     0.037 C 
HETATM    3  C4  UNL     1      19.799   1.830  49.138  1.00  0.00    -0.001 C 
HETATM    4  C5  UNL     1      19.938   3.075  48.648  1.00  0.00    -0.021 C 
HETATM    5  C6  UNL     1      20.333   4.495  48.491  1.00  0.00     0.021 C 
HETATM    6  C7  UNL     1      21.037   5.322  49.298  1.00  0.00     0.003 C 
HETATM    7  C8  UNL     1      21.369   6.730  49.011  1.00  0.00     0.040 C 
HETATM    8  C9  UNL     1      22.820   7.047  49.128  1.00  0.00    -0.072 C 
HETATM    9  C10 UNL     1      23.548   6.745  48.070  1.00  0.00     0.005 C 
HETATM   10  C11 UNL     1      24.958   6.380  48.002  1.00  0.00     0.019 C 
HETATM   11  C12 UNL     1      25.883   6.077  48.931  1.00  0.00     0.109 C 
HETATM   12  N1  UNL     1      25.729   5.769  50.338  1.00  0.00    -0.288 N 
HETATM   13  N2  UNL     1      24.609   5.724  51.220  1.00  0.00    -0.161 NA
HETATM   14  C13 UNL     1      23.547   6.459  51.337  1.00  0.00     0.128 C 
HETATM   15  C14 UNL     1      23.105   7.629  50.493  1.00  0.00     0.114 C 
HETATM   16  N3  UNL     1      23.222   5.622  52.489  1.00  0.00    -0.343 N 
HETATM   17  C15 UNL     1      22.923   4.242  52.457  1.00  0.00     0.035 A 
HETATM   18  C16 UNL     1      24.084   3.690  52.958  1.00  0.00     0.053 A 
HETATM   19  C17 UNL     1      24.243   2.292  53.021  1.00  0.00     0.037 A 
HETATM   20 CL1  UNL     1      25.645   1.413  53.629  1.00  0.00    -0.084 Cl
HETATM   21  C18 UNL     1      23.118   1.618  52.529  1.00  0.00     0.038 A 
HETATM   22  C19 UNL     1      21.918   2.147  52.010  1.00  0.00     0.001 A 
HETATM   23  C20 UNL     1      21.897   3.476  52.012  1.00  0.00     0.043 A 
HETATM   24  H14 UNL     1      26.742   5.555  50.613  1.00  0.00     0.188 HD
HETATM   25  H17 UNL     1      23.324   6.302  53.234  1.00  0.00     0.167 HD
ENDROOT
BRANCH   1  26
HETATM   26  O1  UNL     1      21.016  -0.079  52.245  1.00  0.00    -0.355 OA
HETATM   27  C1  UNL     1      19.793  -0.286  52.968  1.00  0.00     0.210 C 
ENDBRANCH   1  26
TORSDOF 1
ENDMDL
MODEL 9
REMARK VINA RESULT:      -7.3      2.783      4.214
REMARK  1 active torsions:
REMARK  status: ('A' for Active; 'I' for Inactive)
REMARK    1  A    between atoms: O1_2  and  C2_3 
ROOT
HETATM    1  C2  UNL     1      25.941   5.517  48.968  1.00  0.00     0.078 C 
HETATM    2  C3  UNL     1      26.662   4.421  49.300  1.00  0.00     0.037 C 
HETATM    3  C4  UNL     1      26.809   3.113  49.968  1.00  0.00    -0.001 C 
HETATM    4  C5  UNL     1      26.006   2.373  50.754  1.00  0.00    -0.021 C 
HETATM    5  C6  UNL     1      24.847   1.915  51.558  1.00  0.00     0.021 C 
HETATM    6  C7  UNL     1      23.673   2.517  51.857  1.00  0.00     0.003 C 
HETATM    7  C8  UNL     1      22.590   1.937  52.673  1.00  0.00     0.040 C 
HETATM    8  C9  UNL     1      21.256   1.951  52.010  1.00  0.00    -0.072 C 
HETATM    9  C10 UNL     1      21.038   0.961  51.165  1.00  0.00     0.005 C 
HETATM   10  C11 UNL     1      20.184   0.938  49.984  1.00  0.00     0.019 C 
HETATM   11  C12 UNL     1      19.518   1.888  49.302  1.00  0.00     0.109 C 
HETATM   12  N1  UNL     1      19.617   3.331  49.370  1.00  0.00    -0.288 N 
HETATM   13  N2  UNL     1      20.378   4.229  50.176  1.00  0.00    -0.161 NA
HETATM   14  C13 UNL     1      20.727   4.217  51.425  1.00  0.00     0.128 C 
HETATM   15  C14 UNL     1      20.473   3.159  52.470  1.00  0.00     0.114 C 
HETATM   16  N3  UNL     1      21.323   5.524  51.163  1.00  0.00    -0.343 N 
HETATM   17  C15 UNL     1      22.410   5.786  50.300  1.00  0.00     0.035 A 
HETATM   18  C16 UNL     1      21.779   6.363  49.217  1.00  0.00     0.053 A 
HETATM   19  C17 UNL     1      22.509   6.711  48.065  1.00  0.00     0.037 A 
HETATM   20 CL1  UNL     1      21.879   7.455  46.596  1.00  0.00    -0.084 Cl
HETATM   21  C18 UNL     1      23.868   6.395  48.195  1.00  0.00     0.038 A 
HETATM   22  C19 UNL     1      24.547   5.807  49.282  1.00  0.00     0.001 A 
HETATM   23  C20 UNL     1      23.742   5.534  50.305  1.00  0.00     0.043 A 
HETATM   24  H14 UNL     1      18.925   3.620  48.605  1.00  0.00     0.188 HD
HETATM   25  H17 UNL     1      20.713   6.109  51.723  1.00  0.00     0.167 HD
ENDROOT
BRANCH   1  26
HETATM   26  O1  UNL     1      26.582   6.519  48.199  1.00  0.00    -0.355 OA
HETATM   27  C1  UNL     1      28.016   6.447  48.207  1.00  0.00     0.210 C 
ENDBRANCH   1  26
TORSDOF 1
ENDMDL
