MODEL 1
REMARK VINA RESULT:      -6.8      0.000      0.000
REMARK  6 active torsions:
REMARK  status: ('A' for Active; 'I' for Inactive)
REMARK    1  A    between atoms: O1_1  and  C1_2 
REMARK    2  A    between atoms: C1_2  and  C2_3 
REMARK    3  A    between atoms: C1_2  and  C11_16 
REMARK    4  A    between atoms: C2_3  and  O2_4 
REMARK    5  A    between atoms: O2_4  and  C3_5 
REMARK    6  A    between atoms: C11_16  and  N2_17 
ROOT
HETATM    1  C3  UNL     1      25.665   1.859  53.314  1.00  0.00     0.142 C 
HETATM    2  C4  UNL     1      25.971   1.218  52.042  1.00  0.00     0.034 C 
HETATM    3  C5  UNL     1      26.631  -0.250  51.807  1.00  0.00     0.073 C 
HETATM    4  C6  UNL     1      27.058  -0.548  53.262  1.00  0.00    -0.015 C 
HETATM    5  C7  UNL     1      28.283  -0.065  53.683  1.00  0.00     0.138 C 
HETATM    6  F1  UNL     1      29.606  -0.137  53.845  1.00  0.00    -0.207 F 
HETATM    7  C8  UNL     1      27.896   1.240  54.436  1.00  0.00     0.250 C 
HETATM    8 CL1  UNL     1      28.685   2.448  53.502  1.00  0.00    -0.094 Cl
HETATM    9  N1  UNL     1      26.409   1.035  54.356  1.00  0.00    -0.314 N 
HETATM   10  C9  UNL     1      26.074  -0.229  55.298  1.00  0.00     0.096 C 
HETATM   11  C10 UNL     1      25.747  -0.753  54.070  1.00  0.00     0.027 C 
ENDROOT
BRANCH   1  12
HETATM   12  O2  UNL     1      24.821   2.995  53.352  1.00  0.00    -0.333 OA
BRANCH  12  13
HETATM   13  C2  UNL     1      23.815   3.221  52.418  1.00  0.00     0.210 C 
BRANCH  13  14
HETATM   14  C1  UNL     1      24.072   4.431  51.547  1.00  0.00     0.160 C 
BRANCH  14  15
HETATM   15  O1  UNL     1      22.897   5.215  51.631  1.00  0.00    -0.392 OA
HETATM   16  H1  UNL     1      23.104   6.177  51.711  1.00  0.00     0.210 HD
ENDBRANCH  14  15
BRANCH  14  17
HETATM   17  C11 UNL     1      24.213   4.066  50.073  1.00  0.00     0.163 C 
BRANCH  17  18
HETATM   18  N2  UNL     1      25.500   4.436  49.554  1.00  0.00    -0.348 N 
HETATM   19  C12 UNL     1      25.790   5.658  49.023  1.00  0.00     0.111 A 
HETATM   20  C13 UNL     1      27.115   5.693  48.615  1.00  0.00     0.135 A 
HETATM   21  N3  UNL     1      27.614   4.482  48.905  1.00  0.00    -0.255 NA
HETATM   22  C14 UNL     1      26.651   3.747  49.460  1.00  0.00     0.209 A 
ENDBRANCH  17  18
ENDBRANCH  14  17
ENDBRANCH  13  14
ENDBRANCH  12  13
ENDBRANCH   1  12
TORSDOF 6
ENDMDL
MODEL 2
REMARK VINA RESULT:      -6.7      3.450      4.947
REMARK  6 active torsions:
REMARK  status: ('A' for Active; 'I' for Inactive)
REMARK    1  A    between atoms: O1_1  and  C1_2 
REMARK    2  A    between atoms: C1_2  and  C2_3 
REMARK    3  A    between atoms: C1_2  and  C11_16 
REMARK    4  A    between atoms: C2_3  and  O2_4 
REMARK    5  A    between atoms: O2_4  and  C3_5 
REMARK    6  A    between atoms: C11_16  and  N2_17 
ROOT
HETATM    1  C3  UNL     1      24.559  -0.467  53.483  1.00  0.00     0.142 C 
HETATM    2  C4  UNL     1      25.179  -0.656  54.788  1.00  0.00     0.034 C 
HETATM    3  C5  UNL     1      26.513   0.073  55.365  1.00  0.00     0.073 C 
HETATM    4  C6  UNL     1      27.006   0.725  54.053  1.00  0.00    -0.015 C 
HETATM    5  C7  UNL     1      27.789  -0.041  53.211  1.00  0.00     0.138 C 
HETATM    6  F1  UNL     1      28.952  -0.533  52.776  1.00  0.00    -0.207 F 
HETATM    7  C8  UNL     1      26.762  -0.550  52.159  1.00  0.00     0.250 C 
HETATM    8 CL1  UNL     1      26.820  -2.252  52.386  1.00  0.00    -0.094 Cl
HETATM    9  N1  UNL     1      25.605   0.269  52.657  1.00  0.00    -0.314 N 
HETATM   10  C9  UNL     1      25.963   1.807  52.333  1.00  0.00     0.096 C 
HETATM   11  C10 UNL     1      25.981   1.841  53.707  1.00  0.00     0.027 C 
ENDROOT
BRANCH   1  12
HETATM   12  O2  UNL     1      23.245  -0.938  53.246  1.00  0.00    -0.333 OA
BRANCH  12  13
HETATM   13  C2  UNL     1      22.304  -1.096  54.258  1.00  0.00     0.210 C 
BRANCH  13  14
HETATM   14  C1  UNL     1      20.982  -0.427  53.952  1.00  0.00     0.160 C 
BRANCH  14  15
HETATM   15  O1  UNL     1      20.003  -1.437  54.102  1.00  0.00    -0.392 OA
HETATM   16  H1  UNL     1      19.335  -1.409  53.375  1.00  0.00     0.210 HD
ENDBRANCH  14  15
BRANCH  14  17
HETATM   17  C11 UNL     1      20.883   0.024  52.499  1.00  0.00     0.163 C 
BRANCH  17  18
HETATM   18  N2  UNL     1      20.866   1.456  52.386  1.00  0.00    -0.348 N 
HETATM   19  C12 UNL     1      21.975   2.222  52.180  1.00  0.00     0.111 A 
HETATM   20  C13 UNL     1      21.620   3.561  52.119  1.00  0.00     0.135 A 
HETATM   21  N3  UNL     1      20.290   3.590  52.290  1.00  0.00    -0.255 NA
HETATM   22  C14 UNL     1      19.854   2.340  52.447  1.00  0.00     0.209 A 
ENDBRANCH  17  18
ENDBRANCH  14  17
ENDBRANCH  13  14
ENDBRANCH  12  13
ENDBRANCH   1  12
TORSDOF 6
ENDMDL
MODEL 3
REMARK VINA RESULT:      -6.5      2.310      2.738
REMARK  6 active torsions:
REMARK  status: ('A' for Active; 'I' for Inactive)
REMARK    1  A    between atoms: O1_1  and  C1_2 
REMARK    2  A    between atoms: C1_2  and  C2_3 
REMARK    3  A    between atoms: C1_2  and  C11_16 
REMARK    4  A    between atoms: C2_3  and  O2_4 
REMARK    5  A    between atoms: O2_4  and  C3_5 
REMARK    6  A    between atoms: C11_16  and  N2_17 
ROOT
HETATM    1  C3  UNL     1      25.651   1.896  53.387  1.00  0.00     0.142 C 
HETATM    2  C4  UNL     1      25.936   1.330  52.075  1.00  0.00     0.034 C 
HETATM    3  C5  UNL     1      26.604  -0.115  51.743  1.00  0.00     0.073 C 
HETATM    4  C6  UNL     1      27.066  -0.489  53.171  1.00  0.00    -0.015 C 
HETATM    5  C7  UNL     1      28.295  -0.018  53.591  1.00  0.00     0.138 C 
HETATM    6  F1  UNL     1      29.622  -0.085  53.721  1.00  0.00    -0.207 F 
HETATM    7  C8  UNL     1      27.911   1.239  54.424  1.00  0.00     0.250 C 
HETATM    8 CL1  UNL     1      28.669   2.506  53.544  1.00  0.00    -0.094 Cl
HETATM    9  N1  UNL     1      26.425   1.023  54.365  1.00  0.00    -0.314 N 
HETATM   10  C9  UNL     1      26.123  -0.296  55.242  1.00  0.00     0.096 C 
HETATM   11  C10 UNL     1      25.775  -0.753  53.993  1.00  0.00     0.027 C 
ENDROOT
BRANCH   1  12
HETATM   12  O2  UNL     1      24.798   3.019  53.507  1.00  0.00    -0.333 OA
BRANCH  12  13
HETATM   13  C2  UNL     1      23.853   3.357  52.542  1.00  0.00     0.210 C 
BRANCH  13  14
HETATM   14  C1  UNL     1      23.678   4.851  52.378  1.00  0.00     0.160 C 
BRANCH  14  15
HETATM   15  O1  UNL     1      23.856   5.398  53.671  1.00  0.00    -0.392 OA
HETATM   16  H1  UNL     1      23.886   4.695  54.364  1.00  0.00     0.210 HD
ENDBRANCH  14  15
BRANCH  14  17
HETATM   17  C11 UNL     1      22.258   5.227  51.968  1.00  0.00     0.163 C 
BRANCH  17  18
HETATM   18  N2  UNL     1      22.240   6.377  51.107  1.00  0.00    -0.348 N 
HETATM   19  C12 UNL     1      23.342   7.116  50.792  1.00  0.00     0.111 A 
HETATM   20  C13 UNL     1      22.988   8.154  49.943  1.00  0.00     0.135 A 
HETATM   21  N3  UNL     1      21.666   8.029  49.752  1.00  0.00    -0.255 NA
HETATM   22  C14 UNL     1      21.234   6.975  50.445  1.00  0.00     0.209 A 
ENDBRANCH  17  18
ENDBRANCH  14  17
ENDBRANCH  13  14
ENDBRANCH  12  13
ENDBRANCH   1  12
TORSDOF 6
ENDMDL
MODEL 4
REMARK VINA RESULT:      -6.5      3.674      4.656
REMARK  6 active torsions:
REMARK  status: ('A' for Active; 'I' for Inactive)
REMARK    1  A    between atoms: O1_1  and  C1_2 
REMARK    2  A    between atoms: C1_2  and  C2_3 
REMARK    3  A    between atoms: C1_2  and  C11_16 
REMARK    4  A    between atoms: C2_3  and  O2_4 
REMARK    5  A    between atoms: O2_4  and  C3_5 
REMARK    6  A    between atoms: C11_16  and  N2_17 
ROOT
HETATM    1  C3  UNL     1      25.508  -0.397  54.443  1.00  0.00     0.142 C 
HETATM    2  C4  UNL     1      25.501  -0.836  53.054  1.00  0.00     0.034 C 
HETATM    3  C5  UNL     1      26.700  -0.695  51.965  1.00  0.00     0.073 C 
HETATM    4  C6  UNL     1      27.626   0.253  52.762  1.00  0.00    -0.015 C 
HETATM    5  C7  UNL     1      27.385   1.610  52.671  1.00  0.00     0.138 C 
HETATM    6  F1  UNL     1      27.520   2.816  52.113  1.00  0.00    -0.207 F 
HETATM    7  C8  UNL     1      26.564   1.898  53.962  1.00  0.00     0.250 C 
HETATM    8 CL1  UNL     1      25.063   2.441  53.327  1.00  0.00    -0.094 Cl
HETATM    9  N1  UNL     1      26.714   0.525  54.555  1.00  0.00    -0.314 N 
HETATM   10  C9  UNL     1      28.269   0.369  54.950  1.00  0.00     0.096 C 
HETATM   11  C10 UNL     1      28.179  -0.575  53.955  1.00  0.00     0.027 C 
ENDROOT
BRANCH   1  12
HETATM   12  O2  UNL     1      24.515  -0.860  55.340  1.00  0.00    -0.333 OA
BRANCH  12  13
HETATM   13  C2  UNL     1      23.364  -1.519  54.918  1.00  0.00     0.210 C 
BRANCH  13  14
HETATM   14  C1  UNL     1      22.258  -0.576  54.498  1.00  0.00     0.160 C 
BRANCH  14  15
HETATM   15  O1  UNL     1      21.095  -1.039  55.157  1.00  0.00    -0.392 OA
HETATM   16  H1  UNL     1      20.272  -0.720  54.715  1.00  0.00     0.210 HD
ENDBRANCH  14  15
BRANCH  14  17
HETATM   17  C11 UNL     1      21.948  -0.673  53.008  1.00  0.00     0.163 C 
BRANCH  17  18
HETATM   18  N2  UNL     1      21.801   0.625  52.410  1.00  0.00    -0.348 N 
HETATM   19  C12 UNL     1      20.931   1.578  52.849  1.00  0.00     0.111 A 
HETATM   20  C13 UNL     1      21.034   2.713  52.059  1.00  0.00     0.135 A 
HETATM   21  N3  UNL     1      21.974   2.431  51.144  1.00  0.00    -0.255 NA
HETATM   22  C14 UNL     1      22.421   1.194  51.360  1.00  0.00     0.209 A 
ENDBRANCH  17  18
ENDBRANCH  14  17
ENDBRANCH  13  14
ENDBRANCH  12  13
ENDBRANCH   1  12
TORSDOF 6
ENDMDL
MODEL 5
REMARK VINA RESULT:      -6.4      2.812      4.812
REMARK  6 active torsions:
REMARK  status: ('A' for Active; 'I' for Inactive)
REMARK    1  A    between atoms: O1_1  and  C1_2 
REMARK    2  A    between atoms: C1_2  and  C2_3 
REMARK    3  A    between atoms: C1_2  and  C11_16 
REMARK    4  A    between atoms: C2_3  and  O2_4 
REMARK    5  A    between atoms: O2_4  and  C3_5 
REMARK    6  A    between atoms: C11_16  and  N2_17 
ROOT
HETATM    1  C3  UNL     1      25.692   1.861  53.169  1.00  0.00     0.142 C 
HETATM    2  C4  UNL     1      26.135   1.252  51.921  1.00  0.00     0.034 C 
HETATM    3  C5  UNL     1      26.841  -0.199  51.723  1.00  0.00     0.073 C 
HETATM    4  C6  UNL     1      27.126  -0.523  53.208  1.00  0.00    -0.015 C 
HETATM    5  C7  UNL     1      28.294  -0.030  53.759  1.00  0.00     0.138 C 
HETATM    6  F1  UNL     1      29.595  -0.086  54.051  1.00  0.00    -0.207 F 
HETATM    7  C8  UNL     1      27.810   1.252  54.495  1.00  0.00     0.250 C 
HETATM    8 CL1  UNL     1      28.667   2.493  53.671  1.00  0.00    -0.094 Cl
HETATM    9  N1  UNL     1      26.343   1.026  54.263  1.00  0.00    -0.314 N 
HETATM   10  C9  UNL     1      25.938  -0.264  55.141  1.00  0.00     0.096 C 
HETATM   11  C10 UNL     1      25.745  -0.766  53.876  1.00  0.00     0.027 C 
ENDROOT
BRANCH   1  12
HETATM   12  O2  UNL     1      24.829   2.983  53.145  1.00  0.00    -0.333 OA
BRANCH  12  13
HETATM   13  C2  UNL     1      23.627   2.997  52.444  1.00  0.00     0.210 C 
BRANCH  13  14
HETATM   14  C1  UNL     1      22.993   1.629  52.321  1.00  0.00     0.160 C 
BRANCH  14  15
HETATM   15  O1  UNL     1      22.868   1.393  50.931  1.00  0.00    -0.392 OA
HETATM   16  H1  UNL     1      23.226   2.144  50.399  1.00  0.00     0.210 HD
ENDBRANCH  14  15
BRANCH  14  17
HETATM   17  C11 UNL     1      21.570   1.598  52.868  1.00  0.00     0.163 C 
BRANCH  17  18
HETATM   18  N2  UNL     1      21.238   0.311  53.413  1.00  0.00    -0.348 N 
HETATM   19  C12 UNL     1      22.133  -0.517  54.023  1.00  0.00     0.111 A 
HETATM   20  C13 UNL     1      21.497  -1.678  54.436  1.00  0.00     0.135 A 
HETATM   21  N3  UNL     1      20.214  -1.537  54.069  1.00  0.00    -0.255 NA
HETATM   22  C14 UNL     1      20.072  -0.357  53.465  1.00  0.00     0.209 A 
ENDBRANCH  17  18
ENDBRANCH  14  17
ENDBRANCH  13  14
ENDBRANCH  12  13
ENDBRANCH   1  12
TORSDOF 6
ENDMDL
MODEL 6
REMARK VINA RESULT:      -6.4      4.272      6.221
REMARK  6 active torsions:
REMARK  status: ('A' for Active; 'I' for Inactive)
REMARK    1  A    between atoms: O1_1  and  C1_2 
REMARK    2  A    between atoms: C1_2  and  C2_3 
REMARK    3  A    between atoms: C1_2  and  C11_16 
REMARK    4  A    between atoms: C2_3  and  O2_4 
REMARK    5  A    between atoms: O2_4  and  C3_5 
REMARK    6  A    between atoms: C11_16  and  N2_17 
ROOT
HETATM    1  C3  UNL     1      22.939   1.572  51.613  1.00  0.00     0.142 C 
HETATM    2  C4  UNL     1      22.121   2.755  51.849  1.00  0.00     0.034 C 
HETATM    3  C5  UNL     1      20.670   2.826  52.581  1.00  0.00     0.073 C 
HETATM    4  C6  UNL     1      20.368   1.310  52.642  1.00  0.00    -0.015 C 
HETATM    5  C7  UNL     1      19.781   0.729  51.535  1.00  0.00     0.138 C 
HETATM    6  F1  UNL     1      18.737   0.364  50.786  1.00  0.00    -0.207 F 
HETATM    7  C8  UNL     1      20.996   0.099  50.795  1.00  0.00     0.250 C 
HETATM    8 CL1  UNL     1      20.996   0.950  49.302  1.00  0.00    -0.094 Cl
HETATM    9  N1  UNL     1      22.006   0.396  51.867  1.00  0.00    -0.314 N 
HETATM   10  C9  UNL     1      21.621  -0.536  53.125  1.00  0.00     0.096 C 
HETATM   11  C10 UNL     1      21.372   0.704  53.661  1.00  0.00     0.027 C 
ENDROOT
BRANCH   1  12
HETATM   12  O2  UNL     1      24.298   1.711  51.243  1.00  0.00    -0.333 OA
BRANCH  12  13
HETATM   13  C2  UNL     1      24.936   2.945  51.159  1.00  0.00     0.210 C 
BRANCH  13  14
HETATM   14  C1  UNL     1      26.353   2.920  51.690  1.00  0.00     0.160 C 
BRANCH  14  15
HETATM   15  O1  UNL     1      27.146   3.514  50.680  1.00  0.00    -0.392 OA
HETATM   16  H1  UNL     1      28.103   3.294  50.790  1.00  0.00     0.210 HD
ENDBRANCH  14  15
BRANCH  14  17
HETATM   17  C11 UNL     1      26.889   1.501  51.846  1.00  0.00     0.163 C 
BRANCH  17  18
HETATM   18  N2  UNL     1      27.730   1.374  53.004  1.00  0.00    -0.348 N 
HETATM   19  C12 UNL     1      27.862   0.231  53.735  1.00  0.00     0.111 A 
HETATM   20  C13 UNL     1      28.744   0.439  54.783  1.00  0.00     0.135 A 
HETATM   21  N3  UNL     1      29.139   1.717  54.674  1.00  0.00    -0.255 NA
HETATM   22  C14 UNL     1      28.534   2.260  53.618  1.00  0.00     0.209 A 
ENDBRANCH  17  18
ENDBRANCH  14  17
ENDBRANCH  13  14
ENDBRANCH  12  13
ENDBRANCH   1  12
TORSDOF 6
ENDMDL
MODEL 7
REMARK VINA RESULT:      -6.4      2.498      3.123
REMARK  6 active torsions:
REMARK  status: ('A' for Active; 'I' for Inactive)
REMARK    1  A    between atoms: O1_1  and  C1_2 
REMARK    2  A    between atoms: C1_2  and  C2_3 
REMARK    3  A    between atoms: C1_2  and  C11_16 
REMARK    4  A    between atoms: C2_3  and  O2_4 
REMARK    5  A    between atoms: O2_4  and  C3_5 
REMARK    6  A    between atoms: C11_16  and  N2_17 
ROOT
HETATM    1  C3  UNL     1      25.679   1.911  53.384  1.00  0.00     0.142 C 
HETATM    2  C4  UNL     1      25.966   1.363  52.065  1.00  0.00     0.034 C 
HETATM    3  C5  UNL     1      26.622  -0.083  51.715  1.00  0.00     0.073 C 
HETATM    4  C6  UNL     1      27.071  -0.484  53.140  1.00  0.00    -0.015 C 
HETATM    5  C7  UNL     1      28.302  -0.031  53.575  1.00  0.00     0.138 C 
HETATM    6  F1  UNL     1      29.627  -0.113  53.712  1.00  0.00    -0.207 F 
HETATM    7  C8  UNL     1      27.926   1.217  54.425  1.00  0.00     0.250 C 
HETATM    8 CL1  UNL     1      28.701   2.489  53.569  1.00  0.00    -0.094 Cl
HETATM    9  N1  UNL     1      26.438   1.016  54.353  1.00  0.00    -0.314 N 
HETATM   10  C9  UNL     1      26.117  -0.313  55.208  1.00  0.00     0.096 C 
HETATM   11  C10 UNL     1      25.772  -0.748  53.950  1.00  0.00     0.027 C 
ENDROOT
BRANCH   1  12
HETATM   12  O2  UNL     1      24.835   3.041  53.515  1.00  0.00    -0.333 OA
BRANCH  12  13
HETATM   13  C2  UNL     1      23.695   3.227  52.741  1.00  0.00     0.210 C 
BRANCH  13  14
HETATM   14  C1  UNL     1      23.499   4.662  52.304  1.00  0.00     0.160 C 
BRANCH  14  15
HETATM   15  O1  UNL     1      23.950   5.453  53.388  1.00  0.00    -0.392 OA
HETATM   16  H1  UNL     1      24.875   5.226  53.647  1.00  0.00     0.210 HD
ENDBRANCH  14  15
BRANCH  14  17
HETATM   17  C11 UNL     1      22.027   5.019  52.124  1.00  0.00     0.163 C 
BRANCH  17  18
HETATM   18  N2  UNL     1      21.423   4.263  51.063  1.00  0.00    -0.348 N 
HETATM   19  C12 UNL     1      20.294   3.510  51.204  1.00  0.00     0.111 A 
HETATM   20  C13 UNL     1      19.974   2.909  49.996  1.00  0.00     0.135 A 
HETATM   21  N3  UNL     1      20.919   3.308  49.132  1.00  0.00    -0.255 NA
HETATM   22  C14 UNL     1      21.771   4.108  49.773  1.00  0.00     0.209 A 
ENDBRANCH  17  18
ENDBRANCH  14  17
ENDBRANCH  13  14
ENDBRANCH  12  13
ENDBRANCH   1  12
TORSDOF 6
ENDMDL
MODEL 8
REMARK VINA RESULT:      -6.3      4.135      6.399
REMARK  6 active torsions:
REMARK  status: ('A' for Active; 'I' for Inactive)
REMARK    1  A    between atoms: O1_1  and  C1_2 
REMARK    2  A    between atoms: C1_2  and  C2_3 
REMARK    3  A    between atoms: C1_2  and  C11_16 
REMARK    4  A    between atoms: C2_3  and  O2_4 
REMARK    5  A    between atoms: O2_4  and  C3_5 
REMARK    6  A    between atoms: C11_16  and  N2_17 
ROOT
HETATM    1  C3  UNL     1      22.615   2.003  51.741  1.00  0.00     0.142 C 
HETATM    2  C4  UNL     1      22.503   1.296  50.471  1.00  0.00     0.034 C 
HETATM    3  C5  UNL     1      21.147   0.979  49.631  1.00  0.00     0.073 C 
HETATM    4  C6  UNL     1      20.110   1.378  50.706  1.00  0.00    -0.015 C 
HETATM    5  C7  UNL     1      19.754   0.422  51.639  1.00  0.00     0.138 C 
HETATM    6  F1  UNL     1      19.026  -0.605  52.082  1.00  0.00    -0.207 F 
HETATM    7  C8  UNL     1      20.642   0.792  52.862  1.00  0.00     0.250 C 
HETATM    8 CL1  UNL     1      21.621  -0.609  53.041  1.00  0.00    -0.094 Cl
HETATM    9  N1  UNL     1      21.193   2.064  52.281  1.00  0.00    -0.314 N 
HETATM   10  C9  UNL     1      19.959   3.098  52.200  1.00  0.00     0.096 C 
HETATM   11  C10 UNL     1      20.210   2.920  50.861  1.00  0.00     0.027 C 
ENDROOT
BRANCH   1  12
HETATM   12  O2  UNL     1      23.878   2.462  52.189  1.00  0.00    -0.333 OA
BRANCH  12  13
HETATM   13  C2  UNL     1      24.885   2.871  51.321  1.00  0.00     0.210 C 
BRANCH  13  14
HETATM   14  C1  UNL     1      26.275   2.610  51.857  1.00  0.00     0.160 C 
BRANCH  14  15
HETATM   15  O1  UNL     1      27.153   3.294  50.983  1.00  0.00    -0.392 OA
HETATM   16  H1  UNL     1      27.390   2.743  50.198  1.00  0.00     0.210 HD
ENDBRANCH  14  15
BRANCH  14  17
HETATM   17  C11 UNL     1      26.668   1.140  51.760  1.00  0.00     0.163 C 
BRANCH  17  18
HETATM   18  N2  UNL     1      27.343   0.691  52.946  1.00  0.00    -0.348 N 
HETATM   19  C12 UNL     1      28.460   1.278  53.462  1.00  0.00     0.111 A 
HETATM   20  C13 UNL     1      28.861   0.606  54.607  1.00  0.00     0.135 A 
HETATM   21  N3  UNL     1      27.975  -0.387  54.772  1.00  0.00    -0.255 NA
HETATM   22  C14 UNL     1      27.081  -0.328  53.785  1.00  0.00     0.209 A 
ENDBRANCH  17  18
ENDBRANCH  14  17
ENDBRANCH  13  14
ENDBRANCH  12  13
ENDBRANCH   1  12
TORSDOF 6
ENDMDL
MODEL 9
REMARK VINA RESULT:      -6.3      2.523      3.568
REMARK  6 active torsions:
REMARK  status: ('A' for Active; 'I' for Inactive)
REMARK    1  A    between atoms: O1_1  and  C1_2 
REMARK    2  A    between atoms: C1_2  and  C2_3 
REMARK    3  A    between atoms: C1_2  and  C11_16 
REMARK    4  A    between atoms: C2_3  and  O2_4 
REMARK    5  A    between atoms: O2_4  and  C3_5 
REMARK    6  A    between atoms: C11_16  and  N2_17 
ROOT
HETATM    1  C3  UNL     1      26.780   1.860  52.159  1.00  0.00     0.142 C 
HETATM    2  C4  UNL     1      27.113   2.075  53.561  1.00  0.00     0.034 C 
HETATM    3  C5  UNL     1      27.156   0.967  54.750  1.00  0.00     0.073 C 
HETATM    4  C6  UNL     1      26.482  -0.205  53.999  1.00  0.00    -0.015 C 
HETATM    5  C7  UNL     1      25.101  -0.258  54.001  1.00  0.00     0.138 C 
HETATM    6  F1  UNL     1      23.918  -0.606  54.510  1.00  0.00    -0.207 F 
HETATM    7  C8  UNL     1      24.734   0.372  52.626  1.00  0.00     0.250 C 
HETATM    8 CL1  UNL     1      23.843   1.767  53.090  1.00  0.00    -0.094 Cl
HETATM    9  N1  UNL     1      26.144   0.477  52.117  1.00  0.00    -0.314 N 
HETATM   10  C9  UNL     1      26.654  -1.034  51.878  1.00  0.00     0.096 C 
HETATM   11  C10 UNL     1      27.487  -0.659  52.905  1.00  0.00     0.027 C 
ENDROOT
BRANCH   1  12
HETATM   12  O2  UNL     1      27.080   2.854  51.197  1.00  0.00    -0.333 OA
BRANCH  12  13
HETATM   13  C2  UNL     1      26.491   2.889  49.937  1.00  0.00     0.210 C 
BRANCH  13  14
HETATM   14  C1  UNL     1      26.546   4.256  49.292  1.00  0.00     0.160 C 
BRANCH  14  15
HETATM   15  O1  UNL     1      27.869   4.716  49.492  1.00  0.00    -0.392 OA
HETATM   16  H1  UNL     1      28.504   4.285  48.870  1.00  0.00     0.210 HD
ENDBRANCH  14  15
BRANCH  14  17
HETATM   17  C11 UNL     1      25.651   5.268  50.001  1.00  0.00     0.163 C 
BRANCH  17  18
HETATM   18  N2  UNL     1      24.261   4.930  49.875  1.00  0.00    -0.348 N 
HETATM   19  C12 UNL     1      23.594   4.856  48.688  1.00  0.00     0.111 A 
HETATM   20  C13 UNL     1      22.271   4.506  48.911  1.00  0.00     0.135 A 
HETATM   21  N3  UNL     1      22.152   4.372  50.240  1.00  0.00    -0.255 NA
HETATM   22  C14 UNL     1      23.334   4.624  50.801  1.00  0.00     0.209 A 
ENDBRANCH  17  18
ENDBRANCH  14  17
ENDBRANCH  13  14
ENDBRANCH  12  13
ENDBRANCH   1  12
TORSDOF 6
ENDMDL
