MODEL 1
REMARK VINA RESULT:      -9.2      0.000      0.000
REMARK  5 active torsions:
REMARK  status: ('A' for Active; 'I' for Inactive)
REMARK    1  A    between atoms: C5_6  and  C6_7 
REMARK    2  A    between atoms: C6_7  and  C7_8 
REMARK    3  A    between atoms: C9_11  and  O1_12 
REMARK    4  A    between atoms: C16_19  and  C17_20 
REMARK    5  A    between atoms: C17_20  and  N2_21 
ROOT
HETATM    1  C1  UNL     1      21.917  -2.001  54.078  1.00  0.00     0.037 C 
HETATM    2  C2  UNL     1      21.804  -0.513  54.323  1.00  0.00     0.111 C 
HETATM    3  N1  UNL     1      20.368  -0.222  54.363  1.00  0.00    -0.381 N 
HETATM    4  C3  UNL     1      19.885   0.019  53.046  1.00  0.00     0.040 A 
HETATM    5  C4  UNL     1      18.573   0.030  52.617  1.00  0.00     0.037 A 
HETATM    6  C5  UNL     1      18.347   0.290  51.275  1.00  0.00    -0.054 A 
HETATM    7  C12 UNL     1      19.406   0.529  50.408  1.00  0.00     0.008 A 
HETATM    8  C13 UNL     1      20.714   0.510  50.877  1.00  0.00     0.015 A 
HETATM    9  C14 UNL     1      20.967   0.250  52.221  1.00  0.00    -0.002 A 
HETATM   10  C15 UNL     1      22.164   0.152  53.046  1.00  0.00    -0.026 C 
HETATM   11  C16 UNL     1      23.351   0.595  52.675  1.00  0.00    -0.002 C 
HETATM   12  H5  UNL     1      19.831  -0.208  55.273  1.00  0.00     0.160 HD
ENDROOT
BRANCH   6  13
HETATM   13  C6  UNL     1      16.919   0.304  50.800  1.00  0.00     0.061 C 
BRANCH  13  14
HETATM   14  C7  UNL     1      16.282   1.460  51.507  1.00  0.00     0.037 A 
HETATM   15  S1  UNL     1      16.826   3.017  51.391  1.00  0.00    -0.126 SA
HETATM   16  C8  UNL     1      15.952   4.090  52.262  1.00  0.00     0.082 A 
HETATM   17  C9  UNL     1      14.822   3.585  53.026  1.00  0.00     0.068 A 
HETATM   18  C10 UNL     1      14.509   2.285  53.015  1.00  0.00     0.012 A 
HETATM   19  C11 UNL     1      15.100   1.123  52.344  1.00  0.00     0.052 A 
BRANCH  17  20
HETATM   20  O1  UNL     1      13.998   4.411  53.811  1.00  0.00    -0.361 OA
HETATM   21  H10 UNL     1      14.093   5.404  53.643  1.00  0.00     0.217 HD
ENDBRANCH  17  20
ENDBRANCH  13  14
ENDBRANCH   6  13
BRANCH  11  22
HETATM   22  C17 UNL     1      24.567   0.474  53.560  1.00  0.00     0.124 C 
BRANCH  22  23
HETATM   23  N2  UNL     1      25.637  -0.119  52.844  1.00  0.00    -0.272 N 
HETATM   24  C18 UNL     1      26.604   0.035  53.558  1.00  0.00     0.042 A 
HETATM   25  C19 UNL     1      27.426   0.151  54.142  1.00  0.00    -0.135 C 
HETATM   26  C23 UNL     1      26.943  -0.690  52.273  1.00  0.00     0.138 A 
HETATM   27  C20 UNL     1      28.551   0.288  54.911  1.00  0.00     0.086 C 
HETATM   28  C21 UNL     1      29.244  -0.746  53.680  1.00  0.00     0.013 C 
HETATM   29  C22 UNL     1      27.960  -1.355  53.064  1.00  0.00     0.020 C 
ENDBRANCH  22  23
ENDBRANCH  11  22
TORSDOF 5
ENDMDL
MODEL 2
REMARK VINA RESULT:      -9.0      6.949      9.030
REMARK  5 active torsions:
REMARK  status: ('A' for Active; 'I' for Inactive)
REMARK    1  A    between atoms: C5_6  and  C6_7 
REMARK    2  A    between atoms: C6_7  and  C7_8 
REMARK    3  A    between atoms: C9_11  and  O1_12 
REMARK    4  A    between atoms: C16_19  and  C17_20 
REMARK    5  A    between atoms: C17_20  and  N2_21 
ROOT
HETATM    1  C1  UNL     1      23.013   1.986  50.738  1.00  0.00     0.037 C 
HETATM    2  C2  UNL     1      23.781   2.764  51.782  1.00  0.00     0.111 C 
HETATM    3  N1  UNL     1      23.597   4.179  51.442  1.00  0.00    -0.381 N 
HETATM    4  C3  UNL     1      24.585   4.583  50.500  1.00  0.00     0.040 A 
HETATM    5  C4  UNL     1      24.584   5.717  49.712  1.00  0.00     0.037 A 
HETATM    6  C5  UNL     1      25.664   5.898  48.863  1.00  0.00    -0.054 A 
HETATM    7  C12 UNL     1      26.697   4.970  48.817  1.00  0.00     0.008 A 
HETATM    8  C13 UNL     1      26.663   3.841  49.626  1.00  0.00     0.015 A 
HETATM    9  C14 UNL     1      25.588   3.636  50.487  1.00  0.00    -0.002 A 
HETATM   10  C15 UNL     1      25.219   2.607  51.450  1.00  0.00    -0.026 C 
HETATM   11  C16 UNL     1      26.060   1.704  51.920  1.00  0.00    -0.002 C 
HETATM   12  H5  UNL     1      22.824   4.755  51.872  1.00  0.00     0.160 HD
ENDROOT
BRANCH   6  13
HETATM   13  C6  UNL     1      25.671   7.132  48.001  1.00  0.00     0.061 C 
BRANCH  13  14
HETATM   14  C7  UNL     1      26.907   7.879  48.396  1.00  0.00     0.037 A 
HETATM   15  S1  UNL     1      28.283   7.922  47.480  1.00  0.00    -0.126 SA
HETATM   16  C8  UNL     1      29.488   8.810  48.137  1.00  0.00     0.082 A 
HETATM   17  C9  UNL     1      29.238   9.452  49.418  1.00  0.00     0.068 A 
HETATM   18  C10 UNL     1      28.060   9.318  50.038  1.00  0.00     0.012 A 
HETATM   19  C11 UNL     1      26.829   8.600  49.693  1.00  0.00     0.052 A 
BRANCH  17  20
HETATM   20  O1  UNL     1      30.197  10.239  50.081  1.00  0.00    -0.361 OA
HETATM   21  H10 UNL     1      30.162  10.206  51.091  1.00  0.00     0.217 HD
ENDBRANCH  17  20
ENDBRANCH  13  14
ENDBRANCH   6  13
BRANCH  11  22
HETATM   22  C17 UNL     1      25.637   0.653  52.917  1.00  0.00     0.124 C 
BRANCH  22  23
HETATM   23  N2  UNL     1      26.151  -0.613  52.543  1.00  0.00    -0.272 N 
HETATM   24  C18 UNL     1      27.296  -0.607  52.939  1.00  0.00     0.042 A 
HETATM   25  C19 UNL     1      28.257  -0.624  53.265  1.00  0.00    -0.135 C 
HETATM   26  C23 UNL     1      26.929  -1.905  52.250  1.00  0.00     0.138 A 
HETATM   27  C20 UNL     1      29.555  -0.678  53.699  1.00  0.00     0.086 C 
HETATM   28  C21 UNL     1      29.419  -2.347  53.188  1.00  0.00     0.013 C 
HETATM   29  C22 UNL     1      27.879  -2.511  53.162  1.00  0.00     0.020 C 
ENDBRANCH  22  23
ENDBRANCH  11  22
TORSDOF 5
ENDMDL
MODEL 3
REMARK VINA RESULT:      -8.8      1.406      2.199
REMARK  5 active torsions:
REMARK  status: ('A' for Active; 'I' for Inactive)
REMARK    1  A    between atoms: C5_6  and  C6_7 
REMARK    2  A    between atoms: C6_7  and  C7_8 
REMARK    3  A    between atoms: C9_11  and  O1_12 
REMARK    4  A    between atoms: C16_19  and  C17_20 
REMARK    5  A    between atoms: C17_20  and  N2_21 
ROOT
HETATM    1  C1  UNL     1      23.280   2.902  52.291  1.00  0.00     0.037 C 
HETATM    2  C2  UNL     1      23.522   1.551  51.655  1.00  0.00     0.111 C 
HETATM    3  N1  UNL     1      22.595   1.471  50.522  1.00  0.00    -0.381 N 
HETATM    4  C3  UNL     1      21.335   0.974  50.959  1.00  0.00     0.040 A 
HETATM    5  C4  UNL     1      20.128   1.029  50.291  1.00  0.00     0.037 A 
HETATM    6  C5  UNL     1      19.028   0.473  50.924  1.00  0.00    -0.054 A 
HETATM    7  C12 UNL     1      19.149  -0.113  52.177  1.00  0.00     0.008 A 
HETATM    8  C13 UNL     1      20.381  -0.150  52.819  1.00  0.00     0.015 A 
HETATM    9  C14 UNL     1      21.501   0.403  52.204  1.00  0.00    -0.002 A 
HETATM   10  C15 UNL     1      22.907   0.546  52.558  1.00  0.00    -0.026 C 
HETATM   11  C16 UNL     1      23.494  -0.129  53.530  1.00  0.00    -0.002 C 
HETATM   12  H5  UNL     1      22.886   1.758  49.547  1.00  0.00     0.160 HD
ENDROOT
BRANCH   6  13
HETATM   13  C6  UNL     1      17.709   0.529  50.201  1.00  0.00     0.061 C 
BRANCH  13  14
HETATM   14  C7  UNL     1      16.827   1.380  51.061  1.00  0.00     0.037 A 
HETATM   15  S1  UNL     1      15.525   0.797  51.898  1.00  0.00    -0.126 SA
HETATM   16  C8  UNL     1      14.730   1.934  52.761  1.00  0.00     0.082 A 
HETATM   17  C9  UNL     1      15.229   3.299  52.709  1.00  0.00     0.068 A 
HETATM   18  C10 UNL     1      16.305   3.613  51.977  1.00  0.00     0.012 A 
HETATM   19  C11 UNL     1      17.194   2.819  51.123  1.00  0.00     0.052 A 
BRANCH  17  20
HETATM   20  O1  UNL     1      14.629   4.362  53.408  1.00  0.00    -0.361 OA
HETATM   21  H10 UNL     1      15.206   5.185  53.525  1.00  0.00     0.217 HD
ENDBRANCH  17  20
ENDBRANCH  13  14
ENDBRANCH   6  13
BRANCH  11  22
HETATM   22  C17 UNL     1      24.954   0.049  53.865  1.00  0.00     0.124 C 
BRANCH  22  23
HETATM   23  N2  UNL     1      25.745  -0.846  53.102  1.00  0.00    -0.272 N 
HETATM   24  C18 UNL     1      26.881  -0.637  53.468  1.00  0.00     0.042 A 
HETATM   25  C19 UNL     1      27.839  -0.480  53.763  1.00  0.00    -0.135 C 
HETATM   26  C23 UNL     1      26.804  -1.713  52.406  1.00  0.00     0.138 A 
HETATM   27  C20 UNL     1      29.141  -0.294  54.144  1.00  0.00     0.086 C 
HETATM   28  C21 UNL     1      29.402  -1.698  53.131  1.00  0.00     0.013 C 
HETATM   29  C22 UNL     1      27.966  -2.273  53.068  1.00  0.00     0.020 C 
ENDBRANCH  22  23
ENDBRANCH  11  22
TORSDOF 5
ENDMDL
MODEL 4
REMARK VINA RESULT:      -8.7      7.443     10.841
REMARK  5 active torsions:
REMARK  status: ('A' for Active; 'I' for Inactive)
REMARK    1  A    between atoms: C5_6  and  C6_7 
REMARK    2  A    between atoms: C6_7  and  C7_8 
REMARK    3  A    between atoms: C9_11  and  O1_12 
REMARK    4  A    between atoms: C16_19  and  C17_20 
REMARK    5  A    between atoms: C17_20  and  N2_21 
ROOT
HETATM    1  C1  UNL     1      22.676   5.072  50.136  1.00  0.00     0.037 C 
HETATM    2  C2  UNL     1      23.693   5.229  51.245  1.00  0.00     0.111 C 
HETATM    3  N1  UNL     1      24.513   6.386  50.874  1.00  0.00    -0.381 N 
HETATM    4  C3  UNL     1      25.584   5.972  50.033  1.00  0.00     0.040 A 
HETATM    5  C4  UNL     1      26.387   6.765  49.238  1.00  0.00     0.037 A 
HETATM    6  C5  UNL     1      27.372   6.130  48.499  1.00  0.00    -0.054 A 
HETATM    7  C12 UNL     1      27.535   4.752  48.566  1.00  0.00     0.008 A 
HETATM    8  C13 UNL     1      26.707   3.986  49.378  1.00  0.00     0.015 A 
HETATM    9  C14 UNL     1      25.709   4.601  50.129  1.00  0.00    -0.002 A 
HETATM   10  C15 UNL     1      24.686   4.142  51.060  1.00  0.00    -0.026 C 
HETATM   11  C16 UNL     1      24.686   2.946  51.622  1.00  0.00    -0.002 C 
HETATM   12  H5  UNL     1      24.286   7.359  51.219  1.00  0.00     0.160 HD
ENDROOT
BRANCH   6  13
HETATM   13  C6  UNL     1      28.252   6.988  47.630  1.00  0.00     0.061 C 
BRANCH  13  14
HETATM   14  C7  UNL     1      29.643   6.758  48.133  1.00  0.00     0.037 A 
HETATM   15  S1  UNL     1      30.486   7.861  49.033  1.00  0.00    -0.126 SA
HETATM   16  C8  UNL     1      31.984   7.363  49.456  1.00  0.00     0.082 A 
HETATM   17  C9  UNL     1      32.413   6.045  49.014  1.00  0.00     0.068 A 
HETATM   18  C10 UNL     1      31.605   5.267  48.285  1.00  0.00     0.012 A 
HETATM   19  C11 UNL     1      30.244   5.448  47.770  1.00  0.00     0.052 A 
BRANCH  17  20
HETATM   20  O1  UNL     1      33.678   5.510  49.316  1.00  0.00    -0.361 OA
HETATM   21  H10 UNL     1      33.792   5.174  50.264  1.00  0.00     0.217 HD
ENDBRANCH  17  20
ENDBRANCH  13  14
ENDBRANCH   6  13
BRANCH  11  22
HETATM   22  C17 UNL     1      23.608   2.509  52.581  1.00  0.00     0.124 C 
BRANCH  22  23
HETATM   23  N2  UNL     1      23.758   1.135  52.895  1.00  0.00    -0.272 N 
HETATM   24  C18 UNL     1      22.687   0.809  53.358  1.00  0.00     0.042 A 
HETATM   25  C19 UNL     1      21.797   0.514  53.746  1.00  0.00    -0.135 C 
HETATM   26  C23 UNL     1      23.673  -0.339  53.317  1.00  0.00     0.138 A 
HETATM   27  C20 UNL     1      20.605   0.086  54.267  1.00  0.00     0.086 C 
HETATM   28  C21 UNL     1      21.380  -1.480  54.163  1.00  0.00     0.013 C 
HETATM   29  C22 UNL     1      22.501  -1.174  53.139  1.00  0.00     0.020 C 
ENDBRANCH  22  23
ENDBRANCH  11  22
TORSDOF 5
ENDMDL
MODEL 5
REMARK VINA RESULT:      -8.6      1.723      2.068
REMARK  5 active torsions:
REMARK  status: ('A' for Active; 'I' for Inactive)
REMARK    1  A    between atoms: C5_6  and  C6_7 
REMARK    2  A    between atoms: C6_7  and  C7_8 
REMARK    3  A    between atoms: C9_11  and  O1_12 
REMARK    4  A    between atoms: C16_19  and  C17_20 
REMARK    5  A    between atoms: C17_20  and  N2_21 
ROOT
HETATM    1  C1  UNL     1      21.597  -1.701  54.379  1.00  0.00     0.037 C 
HETATM    2  C2  UNL     1      22.001  -0.245  54.448  1.00  0.00     0.111 C 
HETATM    3  N1  UNL     1      20.761   0.522  54.291  1.00  0.00    -0.381 N 
HETATM    4  C3  UNL     1      20.489   0.725  52.908  1.00  0.00     0.040 A 
HETATM    5  C4  UNL     1      19.299   1.123  52.333  1.00  0.00     0.037 A 
HETATM    6  C5  UNL     1      19.274   1.252  50.953  1.00  0.00    -0.054 A 
HETATM    7  C12 UNL     1      20.407   0.990  50.194  1.00  0.00     0.008 A 
HETATM    8  C13 UNL     1      21.588   0.591  50.809  1.00  0.00     0.015 A 
HETATM    9  C14 UNL     1      21.637   0.453  52.193  1.00  0.00    -0.002 A 
HETATM   10  C15 UNL     1      22.661   0.069  53.156  1.00  0.00    -0.026 C 
HETATM   11  C16 UNL     1      23.951   0.022  52.879  1.00  0.00    -0.002 C 
HETATM   12  H5  UNL     1      20.201   0.846  55.126  1.00  0.00     0.160 HD
ENDROOT
BRANCH   6  13
HETATM   13  C6  UNL     1      17.980   1.686  50.319  1.00  0.00     0.061 C 
BRANCH  13  14
HETATM   14  C7  UNL     1      16.910   0.966  51.078  1.00  0.00     0.037 A 
HETATM   15  S1  UNL     1      15.738   1.732  51.959  1.00  0.00    -0.126 SA
HETATM   16  C8  UNL     1      14.689   0.715  52.691  1.00  0.00     0.082 A 
HETATM   17  C9  UNL     1      14.884  -0.714  52.503  1.00  0.00     0.068 A 
HETATM   18  C10 UNL     1      15.890  -1.180  51.754  1.00  0.00     0.012 A 
HETATM   19  C11 UNL     1      16.958  -0.518  50.997  1.00  0.00     0.052 A 
BRANCH  17  20
HETATM   20  O1  UNL     1      14.048  -1.685  53.082  1.00  0.00    -0.361 OA
HETATM   21  H10 UNL     1      13.055  -1.506  53.002  1.00  0.00     0.217 HD
ENDBRANCH  17  20
ENDBRANCH  13  14
ENDBRANCH   6  13
BRANCH  11  22
HETATM   22  C17 UNL     1      24.980  -0.381  53.906  1.00  0.00     0.124 C 
BRANCH  22  23
HETATM   23  N2  UNL     1      26.086  -1.003  53.274  1.00  0.00    -0.272 N 
HETATM   24  C18 UNL     1      27.045  -0.351  53.624  1.00  0.00     0.042 A 
HETATM   25  C19 UNL     1      27.861   0.180  53.908  1.00  0.00    -0.135 C 
HETATM   26  C23 UNL     1      27.427  -1.494  52.708  1.00  0.00     0.138 A 
HETATM   27  C20 UNL     1      28.982   0.874  54.279  1.00  0.00     0.086 C 
HETATM   28  C21 UNL     1      29.794  -0.440  53.457  1.00  0.00     0.013 C 
HETATM   29  C22 UNL     1      28.672  -1.508  53.451  1.00  0.00     0.020 C 
ENDBRANCH  22  23
ENDBRANCH  11  22
TORSDOF 5
ENDMDL
MODEL 6
REMARK VINA RESULT:      -8.5      8.095     10.680
REMARK  5 active torsions:
REMARK  status: ('A' for Active; 'I' for Inactive)
REMARK    1  A    between atoms: C5_6  and  C6_7 
REMARK    2  A    between atoms: C6_7  and  C7_8 
REMARK    3  A    between atoms: C9_11  and  O1_12 
REMARK    4  A    between atoms: C16_19  and  C17_20 
REMARK    5  A    between atoms: C17_20  and  N2_21 
ROOT
HETATM    1  C1  UNL     1      23.504   3.474  49.164  1.00  0.00     0.037 C 
HETATM    2  C2  UNL     1      24.152   4.129  50.364  1.00  0.00     0.111 C 
HETATM    3  N1  UNL     1      24.289   5.547  50.020  1.00  0.00    -0.381 N 
HETATM    4  C3  UNL     1      25.510   5.761  49.319  1.00  0.00     0.040 A 
HETATM    5  C4  UNL     1      25.872   6.863  48.572  1.00  0.00     0.037 A 
HETATM    6  C5  UNL     1      27.123   6.842  47.977  1.00  0.00    -0.054 A 
HETATM    7  C12 UNL     1      27.968   5.751  48.136  1.00  0.00     0.008 A 
HETATM    8  C13 UNL     1      27.569   4.659  48.896  1.00  0.00     0.015 A 
HETATM    9  C14 UNL     1      26.316   4.656  49.503  1.00  0.00    -0.002 A 
HETATM   10  C15 UNL     1      25.579   3.722  50.345  1.00  0.00    -0.026 C 
HETATM   11  C16 UNL     1      26.133   2.698  50.967  1.00  0.00    -0.002 C 
HETATM   12  H5  UNL     1      23.551   6.255  50.285  1.00  0.00     0.160 HD
ENDROOT
BRANCH   6  13
HETATM   13  C6  UNL     1      27.525   8.041  47.160  1.00  0.00     0.061 C 
BRANCH  13  14
HETATM   14  C7  UNL     1      28.958   8.293  47.514  1.00  0.00     0.037 A 
HETATM   15  S1  UNL     1      29.445   8.942  48.955  1.00  0.00    -0.126 SA
HETATM   16  C8  UNL     1      31.065   9.113  49.090  1.00  0.00     0.082 A 
HETATM   17  C9  UNL     1      31.889   8.693  47.967  1.00  0.00     0.068 A 
HETATM   18  C10 UNL     1      31.337   8.183  46.860  1.00  0.00     0.012 A 
HETATM   19  C11 UNL     1      29.948   7.920  46.470  1.00  0.00     0.052 A 
BRANCH  17  20
HETATM   20  O1  UNL     1      33.292   8.792  47.967  1.00  0.00    -0.361 OA
HETATM   21  H10 UNL     1      33.767   8.219  47.281  1.00  0.00     0.217 HD
ENDBRANCH  17  20
ENDBRANCH  13  14
ENDBRANCH   6  13
BRANCH  11  22
HETATM   22  C17 UNL     1      25.334   1.753  51.829  1.00  0.00     0.124 C 
BRANCH  22  23
HETATM   23  N2  UNL     1      25.987   0.498  51.919  1.00  0.00    -0.272 N 
HETATM   24  C18 UNL     1      27.005   0.727  52.534  1.00  0.00     0.042 A 
HETATM   25  C19 UNL     1      27.862   0.896  53.050  1.00  0.00    -0.135 C 
HETATM   26  C23 UNL     1      26.878  -0.731  52.147  1.00  0.00     0.138 A 
HETATM   27  C20 UNL     1      29.023   1.093  53.750  1.00  0.00     0.086 C 
HETATM   28  C21 UNL     1      29.098  -0.655  53.677  1.00  0.00     0.013 C 
HETATM   29  C22 UNL     1      27.618  -0.989  53.367  1.00  0.00     0.020 C 
ENDBRANCH  22  23
ENDBRANCH  11  22
TORSDOF 5
ENDMDL
MODEL 7
REMARK VINA RESULT:      -8.3      7.397      9.752
REMARK  5 active torsions:
REMARK  status: ('A' for Active; 'I' for Inactive)
REMARK    1  A    between atoms: C5_6  and  C6_7 
REMARK    2  A    between atoms: C6_7  and  C7_8 
REMARK    3  A    between atoms: C9_11  and  O1_12 
REMARK    4  A    between atoms: C16_19  and  C17_20 
REMARK    5  A    between atoms: C17_20  and  N2_21 
ROOT
HETATM    1  C1  UNL     1      22.036   4.333  52.246  1.00  0.00     0.037 C 
HETATM    2  C2  UNL     1      23.480   4.422  52.688  1.00  0.00     0.111 C 
HETATM    3  N1  UNL     1      23.873   5.821  52.489  1.00  0.00    -0.381 N 
HETATM    4  C3  UNL     1      24.332   6.011  51.155  1.00  0.00     0.040 A 
HETATM    5  C4  UNL     1      24.504   7.205  50.485  1.00  0.00     0.037 A 
HETATM    6  C5  UNL     1      24.965   7.138  49.180  1.00  0.00    -0.054 A 
HETATM    7  C12 UNL     1      25.240   5.913  48.584  1.00  0.00     0.008 A 
HETATM    8  C13 UNL     1      25.054   4.731  49.291  1.00  0.00     0.015 A 
HETATM    9  C14 UNL     1      24.591   4.772  50.603  1.00  0.00    -0.002 A 
HETATM   10  C15 UNL     1      24.286   3.777  51.622  1.00  0.00    -0.026 C 
HETATM   11  C16 UNL     1      24.683   2.518  51.563  1.00  0.00    -0.002 C 
HETATM   12  H5  UNL     1      23.801   6.532  53.267  1.00  0.00     0.160 HD
ENDROOT
BRANCH   6  13
HETATM   13  C6  UNL     1      25.156   8.435  48.442  1.00  0.00     0.061 C 
BRANCH  13  14
HETATM   14  C7  UNL     1      26.639   8.618  48.347  1.00  0.00     0.037 A 
HETATM   15  S1  UNL     1      27.582   9.127  49.606  1.00  0.00    -0.126 SA
HETATM   16  C8  UNL     1      29.170   9.243  49.239  1.00  0.00     0.082 A 
HETATM   17  C9  UNL     1      29.583   8.898  47.888  1.00  0.00     0.068 A 
HETATM   18  C10 UNL     1      28.689   8.500  46.975  1.00  0.00     0.012 A 
HETATM   19  C11 UNL     1      27.236   8.309  47.021  1.00  0.00     0.052 A 
BRANCH  17  20
HETATM   20  O1  UNL     1      30.920   8.959  47.455  1.00  0.00    -0.361 OA
HETATM   21  H10 UNL     1      31.599   9.163  48.176  1.00  0.00     0.217 HD
ENDBRANCH  17  20
ENDBRANCH  13  14
ENDBRANCH   6  13
BRANCH  11  22
HETATM   22  C17 UNL     1      24.346   1.518  52.640  1.00  0.00     0.124 C 
BRANCH  22  23
HETATM   23  N2  UNL     1      23.134   0.852  52.329  1.00  0.00    -0.272 N 
HETATM   24  C18 UNL     1      22.938   0.117  53.272  1.00  0.00     0.042 A 
HETATM   25  C19 UNL     1      22.754  -0.504  54.053  1.00  0.00    -0.135 C 
HETATM   26  C23 UNL     1      21.853   0.011  52.222  1.00  0.00     0.138 A 
HETATM   27  C20 UNL     1      22.477  -1.347  55.096  1.00  0.00     0.086 C 
HETATM   28  C21 UNL     1      20.969  -1.556  54.231  1.00  0.00     0.013 C 
HETATM   29  C22 UNL     1      20.978  -0.292  53.337  1.00  0.00     0.020 C 
ENDBRANCH  22  23
ENDBRANCH  11  22
TORSDOF 5
ENDMDL
MODEL 8
REMARK VINA RESULT:      -8.2      3.718      4.593
REMARK  5 active torsions:
REMARK  status: ('A' for Active; 'I' for Inactive)
REMARK    1  A    between atoms: C5_6  and  C6_7 
REMARK    2  A    between atoms: C6_7  and  C7_8 
REMARK    3  A    between atoms: C9_11  and  O1_12 
REMARK    4  A    between atoms: C16_19  and  C17_20 
REMARK    5  A    between atoms: C17_20  and  N2_21 
ROOT
HETATM    1  C1  UNL     1      24.354   3.131  53.159  1.00  0.00     0.037 C 
HETATM    2  C2  UNL     1      24.874   2.040  52.249  1.00  0.00     0.111 C 
HETATM    3  N1  UNL     1      24.549   2.468  50.885  1.00  0.00    -0.381 N 
HETATM    4  C3  UNL     1      23.234   2.044  50.544  1.00  0.00     0.040 A 
HETATM    5  C4  UNL     1      22.449   2.487  49.499  1.00  0.00     0.037 A 
HETATM    6  C5  UNL     1      21.191   1.922  49.367  1.00  0.00    -0.054 A 
HETATM    7  C12 UNL     1      20.751   0.949  50.256  1.00  0.00     0.008 A 
HETATM    8  C13 UNL     1      21.570   0.527  51.296  1.00  0.00     0.015 A 
HETATM    9  C14 UNL     1      22.838   1.081  51.451  1.00  0.00    -0.002 A 
HETATM   10  C15 UNL     1      23.938   0.896  52.388  1.00  0.00    -0.026 C 
HETATM   11  C16 UNL     1      24.042  -0.135  53.206  1.00  0.00    -0.002 C 
HETATM   12  H5  UNL     1      25.239   3.010  50.296  1.00  0.00     0.160 HD
ENDROOT
BRANCH   6  13
HETATM   13  C6  UNL     1      20.330   2.400  48.229  1.00  0.00     0.061 C 
BRANCH  13  14
HETATM   14  C7  UNL     1      20.238   3.884  48.404  1.00  0.00     0.037 A 
HETATM   15  S1  UNL     1      19.429   4.612  49.649  1.00  0.00    -0.126 SA
HETATM   16  C8  UNL     1      19.483   6.245  49.609  1.00  0.00     0.082 A 
HETATM   17  C9  UNL     1      20.212   6.875  48.519  1.00  0.00     0.068 A 
HETATM   18  C10 UNL     1      20.818   6.139  47.580  1.00  0.00     0.012 A 
HETATM   19  C11 UNL     1      20.933   4.693  47.367  1.00  0.00     0.052 A 
BRANCH  17  20
HETATM   20  O1  UNL     1      20.327   8.269  48.378  1.00  0.00    -0.361 OA
HETATM   21  H10 UNL     1      21.237   8.654  48.599  1.00  0.00     0.217 HD
ENDBRANCH  17  20
ENDBRANCH  13  14
ENDBRANCH   6  13
BRANCH  11  22
HETATM   22  C17 UNL     1      25.198  -0.289  54.162  1.00  0.00     0.124 C 
BRANCH  22  23
HETATM   23  N2  UNL     1      26.294  -0.910  53.512  1.00  0.00    -0.272 N 
HETATM   24  C18 UNL     1      27.240  -0.195  53.759  1.00  0.00     0.042 A 
HETATM   25  C19 UNL     1      28.047   0.388  53.958  1.00  0.00    -0.135 C 
HETATM   26  C23 UNL     1      27.621  -1.385  52.904  1.00  0.00     0.138 A 
HETATM   27  C20 UNL     1      29.154   1.152  54.214  1.00  0.00     0.086 C 
HETATM   28  C21 UNL     1      29.978  -0.185  53.438  1.00  0.00     0.013 C 
HETATM   29  C22 UNL     1      28.905  -1.294  53.572  1.00  0.00     0.020 C 
ENDBRANCH  22  23
ENDBRANCH  11  22
TORSDOF 5
ENDMDL
MODEL 9
REMARK VINA RESULT:      -8.2      8.461     10.544
REMARK  5 active torsions:
REMARK  status: ('A' for Active; 'I' for Inactive)
REMARK    1  A    between atoms: C5_6  and  C6_7 
REMARK    2  A    between atoms: C6_7  and  C7_8 
REMARK    3  A    between atoms: C9_11  and  O1_12 
REMARK    4  A    between atoms: C16_19  and  C17_20 
REMARK    5  A    between atoms: C17_20  and  N2_21 
ROOT
HETATM    1  C1  UNL     1      23.851   4.378  48.611  1.00  0.00     0.037 C 
HETATM    2  C2  UNL     1      24.508   5.071  49.784  1.00  0.00     0.111 C 
HETATM    3  N1  UNL     1      24.825   6.426  49.322  1.00  0.00    -0.381 N 
HETATM    4  C3  UNL     1      26.096   6.435  48.681  1.00  0.00     0.040 A 
HETATM    5  C4  UNL     1      26.620   7.413  47.860  1.00  0.00     0.037 A 
HETATM    6  C5  UNL     1      27.888   7.198  47.347  1.00  0.00    -0.054 A 
HETATM    7  C12 UNL     1      28.594   6.041  47.655  1.00  0.00     0.008 A 
HETATM    8  C13 UNL     1      28.034   5.078  48.485  1.00  0.00     0.015 A 
HETATM    9  C14 UNL     1      26.760   5.271  49.012  1.00  0.00    -0.002 A 
HETATM   10  C15 UNL     1      25.878   4.510  49.888  1.00  0.00    -0.026 C 
HETATM   11  C16 UNL     1      26.279   3.496  50.633  1.00  0.00    -0.002 C 
HETATM   12  H5  UNL     1      24.161   7.233  49.476  1.00  0.00     0.160 HD
ENDROOT
BRANCH   6  13
HETATM   13  C6  UNL     1      28.466   8.260  46.451  1.00  0.00     0.061 C 
BRANCH  13  14
HETATM   14  C7  UNL     1      28.342   9.536  47.225  1.00  0.00     0.037 A 
HETATM   15  S1  UNL     1      27.137  10.642  46.980  1.00  0.00    -0.126 SA
HETATM   16  C8  UNL     1      27.229  11.948  47.957  1.00  0.00     0.082 A 
HETATM   17  C9  UNL     1      28.323  12.006  48.914  1.00  0.00     0.068 A 
HETATM   18  C10 UNL     1      29.225  11.021  48.989  1.00  0.00     0.012 A 
HETATM   19  C11 UNL     1      29.389   9.762  48.255  1.00  0.00     0.052 A 
BRANCH  17  20
HETATM   20  O1  UNL     1      28.506  13.078  49.806  1.00  0.00    -0.361 OA
HETATM   21  H10 UNL     1      29.103  12.885  50.599  1.00  0.00     0.217 HD
ENDBRANCH  17  20
ENDBRANCH  13  14
ENDBRANCH   6  13
BRANCH  11  22
HETATM   22  C17 UNL     1      25.334   2.733  51.528  1.00  0.00     0.124 C 
BRANCH  22  23
HETATM   23  N2  UNL     1      25.927   1.515  51.943  1.00  0.00    -0.272 N 
HETATM   24  C18 UNL     1      26.921   1.850  52.549  1.00  0.00     0.042 A 
HETATM   25  C19 UNL     1      27.756   2.109  53.064  1.00  0.00    -0.135 C 
HETATM   26  C23 UNL     1      26.752   0.346  52.502  1.00  0.00     0.138 A 
HETATM   27  C20 UNL     1      28.886   2.429  53.768  1.00  0.00     0.086 C 
HETATM   28  C21 UNL     1      28.891   0.711  54.105  1.00  0.00     0.013 C 
HETATM   29  C22 UNL     1      27.416   0.357  53.791  1.00  0.00     0.020 C 
ENDBRANCH  22  23
ENDBRANCH  11  22
TORSDOF 5
ENDMDL
