MODEL 1
REMARK VINA RESULT:      -7.9      0.000      0.000
REMARK  7 active torsions:
REMARK  status: ('A' for Active; 'I' for Inactive)
REMARK       I    between atoms: C1_2  and  N1_3 
REMARK    1  A    between atoms: C1_2  and  C14_20 
REMARK    2  A    between atoms: N1_3  and  C2_4 
REMARK    3  A    between atoms: C2_4  and  C3_5 
REMARK    4  A    between atoms: C3_5  and  C4_6 
REMARK    5  A    between atoms: C4_6  and  N2_7 
REMARK    6  A    between atoms: N2_7  and  C5_8 
REMARK    7  A    between atoms: C8_12  and  C9_13 
ROOT
HETATM    1  C4  UNL     1      22.482   2.972  48.612  1.00  0.00     0.163 C 
ENDROOT
BRANCH   1   2
HETATM    2  C3  UNL     1      23.455   3.206  49.464  1.00  0.00    -0.093 C 
BRANCH   2   3
HETATM    3  C2  UNL     1      24.199   3.347  50.551  1.00  0.00     0.148 C 
BRANCH   3   4
HETATM    4  N1  UNL     1      25.252   2.471  50.806  1.00  0.00    -0.326 N 
HETATM    5  C1  UNL     1      25.590   2.214  52.166  1.00  0.00     0.256 C 
HETATM    6  O1  UNL     1      24.916   2.794  53.026  1.00  0.00    -0.267 OA
HETATM    7  H1  UNL     1      25.797   2.000  50.054  1.00  0.00     0.169 HD
BRANCH   5   8
HETATM    8  C14 UNL     1      26.665   1.321  52.581  1.00  0.00     0.032 A 
HETATM    9  C15 UNL     1      27.774   1.916  53.148  1.00  0.00     0.018 A 
HETATM   10  C16 UNL     1      28.818   1.088  53.554  1.00  0.00     0.025 A 
HETATM   11  C17 UNL     1      28.830  -0.289  53.434  1.00  0.00     0.034 A 
HETATM   12 CL1  UNL     1      30.169  -1.250  53.965  1.00  0.00    -0.084 Cl
HETATM   13  C18 UNL     1      27.675  -0.812  52.853  1.00  0.00     0.025 A 
HETATM   14  C19 UNL     1      26.608  -0.049  52.430  1.00  0.00     0.018 A 
ENDBRANCH   5   8
ENDBRANCH   3   4
ENDBRANCH   2   3
ENDBRANCH   1   2
BRANCH   1  15
HETATM   15  N2  UNL     1      21.980   1.655  48.509  1.00  0.00    -0.191 N 
HETATM   16  H4  UNL     1      22.173   0.991  47.737  1.00  0.00     0.184 HD
BRANCH  15  17
HETATM   17  C5  UNL     1      21.137   1.220  49.572  1.00  0.00     0.727 A 
HETATM   18  N3  UNL     1      19.784   1.348  49.461  1.00  0.00    -0.075 NA
HETATM   19  C6  UNL     1      18.940   0.950  50.441  1.00  0.00     0.139 A 
HETATM   20  C7  UNL     1      19.475   0.401  51.586  1.00  0.00     0.053 A 
HETATM   21  C8  UNL     1      20.841   0.268  51.710  1.00  0.00     0.089 A 
HETATM   22  N5  UNL     1      21.635   0.678  50.706  1.00  0.00    -0.062 NA
BRANCH  21  23
HETATM   23  C9  UNL     1      21.487  -0.302  52.885  1.00  0.00     0.011 A 
HETATM   24  C10 UNL     1      22.836  -0.083  53.064  1.00  0.00     0.017 A 
HETATM   25  C11 UNL     1      23.473  -0.618  54.180  1.00  0.00     0.020 A 
HETATM   26  C12 UNL     1      22.813  -1.375  55.141  1.00  0.00     0.116 A 
HETATM   27  N4  UNL     1      21.480  -1.564  54.920  1.00  0.00    -0.272 NA
HETATM   28  C13 UNL     1      20.850  -1.055  53.847  1.00  0.00     0.130 A 
ENDBRANCH  21  23
ENDBRANCH  15  17
ENDBRANCH   1  15
TORSDOF 7
ENDMDL
MODEL 2
REMARK VINA RESULT:      -7.9      2.963      5.661
REMARK  7 active torsions:
REMARK  status: ('A' for Active; 'I' for Inactive)
REMARK       I    between atoms: C1_2  and  N1_3 
REMARK    1  A    between atoms: C1_2  and  C14_20 
REMARK    2  A    between atoms: N1_3  and  C2_4 
REMARK    3  A    between atoms: C2_4  and  C3_5 
REMARK    4  A    between atoms: C3_5  and  C4_6 
REMARK    5  A    between atoms: C4_6  and  N2_7 
REMARK    6  A    between atoms: N2_7  and  C5_8 
REMARK    7  A    between atoms: C8_12  and  C9_13 
ROOT
HETATM    1  C4  UNL     1      21.220   1.014  52.710  1.00  0.00     0.163 C 
ENDROOT
BRANCH   1   2
HETATM    2  C3  UNL     1      21.175   1.471  51.479  1.00  0.00    -0.093 C 
BRANCH   2   3
HETATM    3  C2  UNL     1      21.468   1.871  50.250  1.00  0.00     0.148 C 
BRANCH   3   4
HETATM    4  N1  UNL     1      22.772   2.226  49.913  1.00  0.00    -0.326 N 
HETATM    5  C1  UNL     1      23.078   3.613  49.809  1.00  0.00     0.256 C 
HETATM    6  O1  UNL     1      22.154   4.406  50.027  1.00  0.00    -0.267 OA
HETATM    7  H1  UNL     1      23.526   1.529  49.737  1.00  0.00     0.169 HD
BRANCH   5   8
HETATM    8  C14 UNL     1      24.398   4.131  49.466  1.00  0.00     0.032 A 
HETATM    9  C15 UNL     1      25.460   3.267  49.635  1.00  0.00     0.018 A 
HETATM   10  C16 UNL     1      26.733   3.734  49.317  1.00  0.00     0.025 A 
HETATM   11  C17 UNL     1      27.017   5.001  48.841  1.00  0.00     0.034 A 
HETATM   12 CL1  UNL     1      28.630   5.506  48.467  1.00  0.00    -0.084 Cl
HETATM   13  C18 UNL     1      25.892   5.811  48.698  1.00  0.00     0.025 A 
HETATM   14  C19 UNL     1      24.607   5.411  48.995  1.00  0.00     0.018 A 
ENDBRANCH   5   8
ENDBRANCH   3   4
ENDBRANCH   2   3
ENDBRANCH   1   2
BRANCH   1  15
HETATM   15  N2  UNL     1      22.244   0.103  53.053  1.00  0.00    -0.191 N 
HETATM   16  H4  UNL     1      22.115  -0.905  53.261  1.00  0.00     0.184 HD
BRANCH  15  17
HETATM   17  C5  UNL     1      23.565   0.635  53.111  1.00  0.00     0.727 A 
HETATM   18  N3  UNL     1      23.750   1.985  53.152  1.00  0.00    -0.075 NA
HETATM   19  C6  UNL     1      24.982   2.541  53.208  1.00  0.00     0.139 A 
HETATM   20  C7  UNL     1      26.080   1.708  53.223  1.00  0.00     0.053 A 
HETATM   21  C8  UNL     1      25.904   0.341  53.181  1.00  0.00     0.089 A 
HETATM   22  N5  UNL     1      24.657  -0.160  53.127  1.00  0.00    -0.062 NA
BRANCH  21  23
HETATM   23  C9  UNL     1      27.008  -0.609  53.193  1.00  0.00     0.011 A 
HETATM   24  C10 UNL     1      28.229  -0.191  53.681  1.00  0.00     0.017 A 
HETATM   25  C11 UNL     1      29.297  -1.081  53.701  1.00  0.00     0.020 A 
HETATM   26  C12 UNL     1      29.203  -2.392  53.249  1.00  0.00     0.116 A 
HETATM   27  N4  UNL     1      27.977  -2.759  52.776  1.00  0.00    -0.272 NA
HETATM   28  C13 UNL     1      26.934  -1.911  52.749  1.00  0.00     0.130 A 
ENDBRANCH  21  23
ENDBRANCH  15  17
ENDBRANCH   1  15
TORSDOF 7
ENDMDL
MODEL 3
REMARK VINA RESULT:      -7.8      5.080      6.502
REMARK  7 active torsions:
REMARK  status: ('A' for Active; 'I' for Inactive)
REMARK       I    between atoms: C1_2  and  N1_3 
REMARK    1  A    between atoms: C1_2  and  C14_20 
REMARK    2  A    between atoms: N1_3  and  C2_4 
REMARK    3  A    between atoms: C2_4  and  C3_5 
REMARK    4  A    between atoms: C3_5  and  C4_6 
REMARK    5  A    between atoms: C4_6  and  N2_7 
REMARK    6  A    between atoms: N2_7  and  C5_8 
REMARK    7  A    between atoms: C8_12  and  C9_13 
ROOT
HETATM    1  C4  UNL     1      25.404   3.741  49.917  1.00  0.00     0.163 C 
ENDROOT
BRANCH   1   2
HETATM    2  C3  UNL     1      26.007   4.724  49.287  1.00  0.00    -0.093 C 
BRANCH   2   3
HETATM    3  C2  UNL     1      26.891   5.519  48.700  1.00  0.00     0.148 C 
BRANCH   3   4
HETATM    4  N1  UNL     1      28.257   5.310  48.878  1.00  0.00    -0.326 N 
HETATM    5  C1  UNL     1      29.157   6.110  48.117  1.00  0.00     0.256 C 
HETATM    6  O1  UNL     1      28.653   6.937  47.348  1.00  0.00    -0.267 OA
HETATM    7  H1  UNL     1      28.645   4.603  49.537  1.00  0.00     0.169 HD
BRANCH   5   8
HETATM    8  C14 UNL     1      30.609   6.002  48.200  1.00  0.00     0.032 A 
HETATM    9  C15 UNL     1      31.268   7.046  48.818  1.00  0.00     0.018 A 
HETATM   10  C16 UNL     1      32.656   6.971  48.911  1.00  0.00     0.025 A 
HETATM   11  C17 UNL     1      33.428   5.928  48.433  1.00  0.00     0.034 A 
HETATM   12 CL1  UNL     1      35.152   5.910  48.588  1.00  0.00    -0.084 Cl
HETATM   13  C18 UNL     1      32.688   4.916  47.823  1.00  0.00     0.025 A 
HETATM   14  C19 UNL     1      31.315   4.929  47.698  1.00  0.00     0.018 A 
ENDBRANCH   5   8
ENDBRANCH   3   4
ENDBRANCH   2   3
ENDBRANCH   1   2
BRANCH   1  15
HETATM   15  N2  UNL     1      25.518   3.672  51.323  1.00  0.00    -0.191 N 
HETATM   16  H4  UNL     1      25.792   4.452  51.949  1.00  0.00     0.184 HD
BRANCH  15  17
HETATM   17  C5  UNL     1      25.225   2.409  51.916  1.00  0.00     0.727 A 
HETATM   18  N3  UNL     1      23.947   2.115  52.286  1.00  0.00    -0.075 NA
HETATM   19  C6  UNL     1      23.616   0.931  52.852  1.00  0.00     0.139 A 
HETATM   20  C7  UNL     1      24.611  -0.001  53.058  1.00  0.00     0.053 A 
HETATM   21  C8  UNL     1      25.907   0.288  52.687  1.00  0.00     0.089 A 
HETATM   22  N5  UNL     1      26.182   1.479  52.128  1.00  0.00    -0.062 NA
BRANCH  21  23
HETATM   23  C9  UNL     1      27.016  -0.640  52.870  1.00  0.00     0.011 A 
HETATM   24  C10 UNL     1      28.215  -0.146  53.339  1.00  0.00     0.017 A 
HETATM   25  C11 UNL     1      29.286  -1.014  53.520  1.00  0.00     0.020 A 
HETATM   26  C12 UNL     1      29.217  -2.375  53.249  1.00  0.00     0.116 A 
HETATM   27  N4  UNL     1      28.011  -2.816  52.787  1.00  0.00    -0.272 NA
HETATM   28  C13 UNL     1      26.966  -1.991  52.605  1.00  0.00     0.130 A 
ENDBRANCH  21  23
ENDBRANCH  15  17
ENDBRANCH   1  15
TORSDOF 7
ENDMDL
MODEL 4
REMARK VINA RESULT:      -7.7      5.824      7.481
REMARK  7 active torsions:
REMARK  status: ('A' for Active; 'I' for Inactive)
REMARK       I    between atoms: C1_2  and  N1_3 
REMARK    1  A    between atoms: C1_2  and  C14_20 
REMARK    2  A    between atoms: N1_3  and  C2_4 
REMARK    3  A    between atoms: C2_4  and  C3_5 
REMARK    4  A    between atoms: C3_5  and  C4_6 
REMARK    5  A    between atoms: C4_6  and  N2_7 
REMARK    6  A    between atoms: N2_7  and  C5_8 
REMARK    7  A    between atoms: C8_12  and  C9_13 
ROOT
HETATM    1  C4  UNL     1      25.841   3.404  49.835  1.00  0.00     0.163 C 
ENDROOT
BRANCH   1   2
HETATM    2  C3  UNL     1      26.796   4.184  49.380  1.00  0.00    -0.093 C 
BRANCH   2   3
HETATM    3  C2  UNL     1      27.598   4.919  48.623  1.00  0.00     0.148 C 
BRANCH   3   4
HETATM    4  N1  UNL     1      27.797   6.269  48.908  1.00  0.00    -0.326 N 
HETATM    5  C1  UNL     1      28.946   6.903  48.355  1.00  0.00     0.256 C 
HETATM    6  O1  UNL     1      29.687   6.200  47.656  1.00  0.00    -0.267 OA
HETATM    7  H1  UNL     1      27.149   6.829  49.501  1.00  0.00     0.169 HD
BRANCH   5   8
HETATM    8  C14 UNL     1      29.282   8.306  48.566  1.00  0.00     0.032 A 
HETATM    9  C15 UNL     1      30.615   8.594  48.777  1.00  0.00     0.018 A 
HETATM   10  C16 UNL     1      30.965   9.927  48.983  1.00  0.00     0.025 A 
HETATM   11  C17 UNL     1      30.078  10.988  48.992  1.00  0.00     0.034 A 
HETATM   12 CL1  UNL     1      30.594  12.619  49.256  1.00  0.00    -0.084 Cl
HETATM   13  C18 UNL     1      28.754  10.613  48.773  1.00  0.00     0.025 A 
HETATM   14  C19 UNL     1      28.341   9.315  48.563  1.00  0.00     0.018 A 
ENDBRANCH   5   8
ENDBRANCH   3   4
ENDBRANCH   2   3
ENDBRANCH   1   2
BRANCH   1  15
HETATM   15  N2  UNL     1      25.475   3.510  51.196  1.00  0.00    -0.191 N 
HETATM   16  H4  UNL     1      25.382   4.393  51.732  1.00  0.00     0.184 HD
BRANCH  15  17
HETATM   17  C5  UNL     1      25.214   2.284  51.873  1.00  0.00     0.727 A 
HETATM   18  N3  UNL     1      23.957   2.012  52.324  1.00  0.00    -0.075 NA
HETATM   19  C6  UNL     1      23.657   0.863  52.972  1.00  0.00     0.139 A 
HETATM   20  C7  UNL     1      24.663  -0.057  53.180  1.00  0.00     0.053 A 
HETATM   21  C8  UNL     1      25.938   0.208  52.728  1.00  0.00     0.089 A 
HETATM   22  N5  UNL     1      26.182   1.366  52.089  1.00  0.00    -0.062 NA
BRANCH  21  23
HETATM   23  C9  UNL     1      27.056  -0.708  52.906  1.00  0.00     0.011 A 
HETATM   24  C10 UNL     1      28.248  -0.206  53.384  1.00  0.00     0.017 A 
HETATM   25  C11 UNL     1      29.329  -1.063  53.561  1.00  0.00     0.020 A 
HETATM   26  C12 UNL     1      29.275  -2.423  53.278  1.00  0.00     0.116 A 
HETATM   27  N4  UNL     1      28.075  -2.873  52.809  1.00  0.00    -0.272 NA
HETATM   28  C13 UNL     1      27.021  -2.058  52.631  1.00  0.00     0.130 A 
ENDBRANCH  21  23
ENDBRANCH  15  17
ENDBRANCH   1  15
TORSDOF 7
ENDMDL
MODEL 5
REMARK VINA RESULT:      -7.6      3.559      5.447
REMARK  7 active torsions:
REMARK  status: ('A' for Active; 'I' for Inactive)
REMARK       I    between atoms: C1_2  and  N1_3 
REMARK    1  A    between atoms: C1_2  and  C14_20 
REMARK    2  A    between atoms: N1_3  and  C2_4 
REMARK    3  A    between atoms: C2_4  and  C3_5 
REMARK    4  A    between atoms: C3_5  and  C4_6 
REMARK    5  A    between atoms: C4_6  and  N2_7 
REMARK    6  A    between atoms: N2_7  and  C5_8 
REMARK    7  A    between atoms: C8_12  and  C9_13 
ROOT
HETATM    1  C4  UNL     1      21.877   2.923  51.269  1.00  0.00     0.163 C 
ENDROOT
BRANCH   1   2
HETATM    2  C3  UNL     1      22.506   3.931  51.831  1.00  0.00    -0.093 C 
BRANCH   2   3
HETATM    3  C2  UNL     1      23.213   5.026  52.071  1.00  0.00     0.148 C 
BRANCH   3   4
HETATM    4  N1  UNL     1      24.497   5.167  51.548  1.00  0.00    -0.326 N 
HETATM    5  C1  UNL     1      24.624   5.668  50.221  1.00  0.00     0.256 C 
HETATM    6  O1  UNL     1      23.574   5.943  49.628  1.00  0.00    -0.267 OA
HETATM    7  H1  UNL     1      25.359   4.925  52.081  1.00  0.00     0.169 HD
BRANCH   5   8
HETATM    8  C14 UNL     1      25.901   5.867  49.546  1.00  0.00     0.032 A 
HETATM    9  C15 UNL     1      26.607   4.728  49.216  1.00  0.00     0.018 A 
HETATM   10  C16 UNL     1      27.831   4.888  48.571  1.00  0.00     0.025 A 
HETATM   11  C17 UNL     1      28.397   6.104  48.234  1.00  0.00     0.034 A 
HETATM   12 CL1  UNL     1      29.926   6.219  47.431  1.00  0.00    -0.084 Cl
HETATM   13  C18 UNL     1      27.623   7.204  48.601  1.00  0.00     0.025 A 
HETATM   14  C19 UNL     1      26.405   7.114  49.241  1.00  0.00     0.018 A 
ENDBRANCH   5   8
ENDBRANCH   3   4
ENDBRANCH   2   3
ENDBRANCH   1   2
BRANCH   1  15
HETATM   15  N2  UNL     1      22.625   1.780  50.907  1.00  0.00    -0.191 N 
HETATM   16  H4  UNL     1      22.909   1.520  49.945  1.00  0.00     0.184 HD
BRANCH  15  17
HETATM   17  C5  UNL     1      23.017   0.922  51.976  1.00  0.00     0.727 A 
HETATM   18  N3  UNL     1      22.074   0.205  52.650  1.00  0.00    -0.075 NA
HETATM   19  C6  UNL     1      22.393  -0.624  53.671  1.00  0.00     0.139 A 
HETATM   20  C7  UNL     1      23.717  -0.738  54.036  1.00  0.00     0.053 A 
HETATM   21  C8  UNL     1      24.679  -0.016  53.361  1.00  0.00     0.089 A 
HETATM   22  N5  UNL     1      24.308   0.792  52.354  1.00  0.00    -0.062 NA
BRANCH  21  23
HETATM   23  C9  UNL     1      26.098  -0.080  53.683  1.00  0.00     0.011 A 
HETATM   24  C10 UNL     1      26.913  -0.878  52.908  1.00  0.00     0.017 A 
HETATM   25  C11 UNL     1      28.271  -0.953  53.198  1.00  0.00     0.020 A 
HETATM   26  C12 UNL     1      28.865  -0.257  54.244  1.00  0.00     0.116 A 
HETATM   27  N4  UNL     1      28.020   0.519  54.982  1.00  0.00    -0.272 NA
HETATM   28  C13 UNL     1      26.704   0.602  54.716  1.00  0.00     0.130 A 
ENDBRANCH  21  23
ENDBRANCH  15  17
ENDBRANCH   1  15
TORSDOF 7
ENDMDL
MODEL 6
REMARK VINA RESULT:      -7.5      4.360      6.441
REMARK  7 active torsions:
REMARK  status: ('A' for Active; 'I' for Inactive)
REMARK       I    between atoms: C1_2  and  N1_3 
REMARK    1  A    between atoms: C1_2  and  C14_20 
REMARK    2  A    between atoms: N1_3  and  C2_4 
REMARK    3  A    between atoms: C2_4  and  C3_5 
REMARK    4  A    between atoms: C3_5  and  C4_6 
REMARK    5  A    between atoms: C4_6  and  N2_7 
REMARK    6  A    between atoms: N2_7  and  C5_8 
REMARK    7  A    between atoms: C8_12  and  C9_13 
ROOT
HETATM    1  C4  UNL     1      23.189   4.583  52.436  1.00  0.00     0.163 C 
ENDROOT
BRANCH   1   2
HETATM    2  C3  UNL     1      23.515   5.336  51.410  1.00  0.00    -0.093 C 
BRANCH   2   3
HETATM    3  C2  UNL     1      23.967   5.800  50.253  1.00  0.00     0.148 C 
BRANCH   3   4
HETATM    4  N1  UNL     1      25.321   5.710  49.935  1.00  0.00    -0.326 N 
HETATM    5  C1  UNL     1      25.781   6.408  48.782  1.00  0.00     0.256 C 
HETATM    6  O1  UNL     1      24.936   7.048  48.145  1.00  0.00    -0.267 OA
HETATM    7  H1  UNL     1      26.003   5.161  50.498  1.00  0.00     0.169 HD
BRANCH   5   8
HETATM    8  C14 UNL     1      27.167   6.406  48.330  1.00  0.00     0.032 A 
HETATM    9  C15 UNL     1      27.581   7.507  47.610  1.00  0.00     0.018 A 
HETATM   10  C16 UNL     1      28.901   7.532  47.164  1.00  0.00     0.025 A 
HETATM   11  C17 UNL     1      29.832   6.535  47.388  1.00  0.00     0.034 A 
HETATM   12 CL1  UNL     1      31.457   6.641  46.799  1.00  0.00    -0.084 Cl
HETATM   13  C18 UNL     1      29.336   5.459  48.122  1.00  0.00     0.025 A 
HETATM   14  C19 UNL     1      28.043   5.372  48.592  1.00  0.00     0.018 A 
ENDBRANCH   5   8
ENDBRANCH   3   4
ENDBRANCH   2   3
ENDBRANCH   1   2
BRANCH   1  15
HETATM   15  N2  UNL     1      24.223   4.079  53.257  1.00  0.00    -0.191 N 
HETATM   16  H4  UNL     1      24.832   4.641  53.880  1.00  0.00     0.184 HD
BRANCH  15  17
HETATM   17  C5  UNL     1      24.431   2.669  53.210  1.00  0.00     0.727 A 
HETATM   18  N3  UNL     1      23.368   1.832  53.043  1.00  0.00    -0.075 NA
HETATM   19  C6  UNL     1      23.512   0.488  52.991  1.00  0.00     0.139 A 
HETATM   20  C7  UNL     1      24.777  -0.043  53.114  1.00  0.00     0.053 A 
HETATM   21  C8  UNL     1      25.859   0.794  53.284  1.00  0.00     0.089 A 
HETATM   22  N5  UNL     1      25.661   2.123  53.328  1.00  0.00    -0.062 NA
BRANCH  21  23
HETATM   23  C9  UNL     1      27.227   0.314  53.422  1.00  0.00     0.011 A 
HETATM   24  C10 UNL     1      27.516  -0.973  53.021  1.00  0.00     0.017 A 
HETATM   25  C11 UNL     1      28.817  -1.451  53.145  1.00  0.00     0.020 A 
HETATM   26  C12 UNL     1      29.861  -0.692  53.660  1.00  0.00     0.116 A 
HETATM   27  N4  UNL     1      29.526   0.574  54.042  1.00  0.00    -0.272 NA
HETATM   28  C13 UNL     1      28.275   1.052  53.931  1.00  0.00     0.130 A 
ENDBRANCH  21  23
ENDBRANCH  15  17
ENDBRANCH   1  15
TORSDOF 7
ENDMDL
MODEL 7
REMARK VINA RESULT:      -7.4      5.312      6.539
REMARK  7 active torsions:
REMARK  status: ('A' for Active; 'I' for Inactive)
REMARK       I    between atoms: C1_2  and  N1_3 
REMARK    1  A    between atoms: C1_2  and  C14_20 
REMARK    2  A    between atoms: N1_3  and  C2_4 
REMARK    3  A    between atoms: C2_4  and  C3_5 
REMARK    4  A    between atoms: C3_5  and  C4_6 
REMARK    5  A    between atoms: C4_6  and  N2_7 
REMARK    6  A    between atoms: N2_7  and  C5_8 
REMARK    7  A    between atoms: C8_12  and  C9_13 
ROOT
HETATM    1  C4  UNL     1      26.309   3.212  49.859  1.00  0.00     0.163 C 
ENDROOT
BRANCH   1   2
HETATM    2  C3  UNL     1      26.757   4.318  49.307  1.00  0.00    -0.093 C 
BRANCH   2   3
HETATM    3  C2  UNL     1      27.450   5.222  48.629  1.00  0.00     0.148 C 
BRANCH   3   4
HETATM    4  N1  UNL     1      28.818   5.374  48.848  1.00  0.00    -0.326 N 
HETATM    5  C1  UNL     1      29.519   6.319  48.045  1.00  0.00     0.256 C 
HETATM    6  O1  UNL     1      28.854   6.939  47.207  1.00  0.00    -0.267 OA
HETATM    7  H1  UNL     1      29.344   4.833  49.566  1.00  0.00     0.169 HD
BRANCH   5   8
HETATM    8  C14 UNL     1      30.948   6.584  48.163  1.00  0.00     0.032 A 
HETATM    9  C15 UNL     1      31.769   5.481  48.288  1.00  0.00     0.018 A 
HETATM   10  C16 UNL     1      33.139   5.704  48.403  1.00  0.00     0.025 A 
HETATM   11  C17 UNL     1      33.744   6.947  48.401  1.00  0.00     0.034 A 
HETATM   12 CL1  UNL     1      35.459   7.140  48.549  1.00  0.00    -0.084 Cl
HETATM   13  C18 UNL     1      32.848   8.006  48.271  1.00  0.00     0.025 A 
HETATM   14  C19 UNL     1      31.483   7.855  48.153  1.00  0.00     0.018 A 
ENDBRANCH   5   8
ENDBRANCH   3   4
ENDBRANCH   2   3
ENDBRANCH   1   2
BRANCH   1  15
HETATM   15  N2  UNL     1      26.095   3.196  51.255  1.00  0.00    -0.191 N 
HETATM   16  H4  UNL     1      26.018   4.029  51.868  1.00  0.00     0.184 HD
BRANCH  15  17
HETATM   17  C5  UNL     1      25.976   1.909  51.857  1.00  0.00     0.727 A 
HETATM   18  N3  UNL     1      27.048   1.067  51.874  1.00  0.00    -0.075 NA
HETATM   19  C6  UNL     1      26.988  -0.164  52.432  1.00  0.00     0.139 A 
HETATM   20  C7  UNL     1      25.800  -0.572  52.999  1.00  0.00     0.053 A 
HETATM   21  C8  UNL     1      24.709   0.272  52.986  1.00  0.00     0.089 A 
HETATM   22  N5  UNL     1      24.823   1.485  52.419  1.00  0.00    -0.062 NA
BRANCH  21  23
HETATM   23  C9  UNL     1      23.419  -0.081  53.562  1.00  0.00     0.011 A 
HETATM   24  C10 UNL     1      22.292   0.560  53.092  1.00  0.00     0.017 A 
HETATM   25  C11 UNL     1      21.049   0.238  53.628  1.00  0.00     0.020 A 
HETATM   26  C12 UNL     1      20.876  -0.710  54.630  1.00  0.00     0.116 A 
HETATM   27  N4  UNL     1      22.019  -1.316  55.063  1.00  0.00    -0.272 NA
HETATM   28  C13 UNL     1      23.227  -1.017  54.556  1.00  0.00     0.130 A 
ENDBRANCH  21  23
ENDBRANCH  15  17
ENDBRANCH   1  15
TORSDOF 7
ENDMDL
MODEL 8
REMARK VINA RESULT:      -7.4      3.002      6.179
REMARK  7 active torsions:
REMARK  status: ('A' for Active; 'I' for Inactive)
REMARK       I    between atoms: C1_2  and  N1_3 
REMARK    1  A    between atoms: C1_2  and  C14_20 
REMARK    2  A    between atoms: N1_3  and  C2_4 
REMARK    3  A    between atoms: C2_4  and  C3_5 
REMARK    4  A    between atoms: C3_5  and  C4_6 
REMARK    5  A    between atoms: C4_6  and  N2_7 
REMARK    6  A    between atoms: N2_7  and  C5_8 
REMARK    7  A    between atoms: C8_12  and  C9_13 
ROOT
HETATM    1  C4  UNL     1      26.490   3.073  50.118  1.00  0.00     0.163 C 
ENDROOT
BRANCH   1   2
HETATM    2  C3  UNL     1      25.385   3.567  49.606  1.00  0.00    -0.093 C 
BRANCH   2   3
HETATM    3  C2  UNL     1      24.177   4.082  49.421  1.00  0.00     0.148 C 
BRANCH   3   4
HETATM    4  N1  UNL     1      23.045   3.274  49.499  1.00  0.00    -0.326 N 
HETATM    5  C1  UNL     1      22.384   3.175  50.757  1.00  0.00     0.256 C 
HETATM    6  O1  UNL     1      22.869   3.821  51.693  1.00  0.00    -0.267 OA
HETATM    7  H1  UNL     1      22.664   2.744  48.687  1.00  0.00     0.169 HD
BRANCH   5   8
HETATM    8  C14 UNL     1      21.190   2.370  50.987  1.00  0.00     0.032 A 
HETATM    9  C15 UNL     1      21.047   1.245  50.200  1.00  0.00     0.018 A 
HETATM   10  C16 UNL     1      19.915   0.456  50.397  1.00  0.00     0.025 A 
HETATM   11  C17 UNL     1      18.921   0.713  51.323  1.00  0.00     0.034 A 
HETATM   12 CL1  UNL     1      17.543  -0.319  51.507  1.00  0.00    -0.084 Cl
HETATM   13  C18 UNL     1      19.140   1.865  52.076  1.00  0.00     0.025 A 
HETATM   14  C19 UNL     1      20.236   2.688  51.931  1.00  0.00     0.018 A 
ENDBRANCH   5   8
ENDBRANCH   3   4
ENDBRANCH   2   3
ENDBRANCH   1   2
BRANCH   1  15
HETATM   15  N2  UNL     1      26.700   3.192  51.510  1.00  0.00    -0.191 N 
HETATM   16  H4  UNL     1      26.855   4.078  52.027  1.00  0.00     0.184 HD
BRANCH  15  17
HETATM   17  C5  UNL     1      26.691   1.975  52.252  1.00  0.00     0.727 A 
HETATM   18  N3  UNL     1      27.865   1.337  52.522  1.00  0.00    -0.075 NA
HETATM   19  C6  UNL     1      27.911   0.181  53.222  1.00  0.00     0.139 A 
HETATM   20  C7  UNL     1      26.728  -0.363  53.673  1.00  0.00     0.053 A 
HETATM   21  C8  UNL     1      25.535   0.274  53.405  1.00  0.00     0.089 A 
HETATM   22  N5  UNL     1      25.545   1.421  52.705  1.00  0.00    -0.062 NA
BRANCH  21  23
HETATM   23  C9  UNL     1      24.242  -0.233  53.844  1.00  0.00     0.011 A 
HETATM   24  C10 UNL     1      23.127   0.074  53.093  1.00  0.00     0.017 A 
HETATM   25  C11 UNL     1      21.882  -0.399  53.495  1.00  0.00     0.020 A 
HETATM   26  C12 UNL     1      21.694  -1.179  54.630  1.00  0.00     0.116 A 
HETATM   27  N4  UNL     1      22.826  -1.457  55.339  1.00  0.00    -0.272 NA
HETATM   28  C13 UNL     1      24.037  -1.006  54.966  1.00  0.00     0.130 A 
ENDBRANCH  21  23
ENDBRANCH  15  17
ENDBRANCH   1  15
TORSDOF 7
ENDMDL
MODEL 9
REMARK VINA RESULT:      -7.3      5.884      7.298
REMARK  7 active torsions:
REMARK  status: ('A' for Active; 'I' for Inactive)
REMARK       I    between atoms: C1_2  and  N1_3 
REMARK    1  A    between atoms: C1_2  and  C14_20 
REMARK    2  A    between atoms: N1_3  and  C2_4 
REMARK    3  A    between atoms: C2_4  and  C3_5 
REMARK    4  A    between atoms: C3_5  and  C4_6 
REMARK    5  A    between atoms: C4_6  and  N2_7 
REMARK    6  A    between atoms: N2_7  and  C5_8 
REMARK    7  A    between atoms: C8_12  and  C9_13 
ROOT
HETATM    1  C4  UNL     1      26.466   5.672  48.963  1.00  0.00     0.163 C 
ENDROOT
BRANCH   1   2
HETATM    2  C3  UNL     1      27.308   6.609  48.589  1.00  0.00    -0.093 C 
BRANCH   2   3
HETATM    3  C2  UNL     1      28.314   7.290  48.057  1.00  0.00     0.148 C 
BRANCH   3   4
HETATM    4  N1  UNL     1      29.312   6.632  47.340  1.00  0.00    -0.326 N 
HETATM    5  C1  UNL     1      30.613   6.570  47.916  1.00  0.00     0.256 C 
HETATM    6  O1  UNL     1      30.760   7.110  49.019  1.00  0.00    -0.267 OA
HETATM    7  H1  UNL     1      29.149   6.189  46.412  1.00  0.00     0.169 HD
BRANCH   5   8
HETATM    8  C14 UNL     1      31.752   5.916  47.281  1.00  0.00     0.032 A 
HETATM    9  C15 UNL     1      31.732   4.537  47.254  1.00  0.00     0.018 A 
HETATM   10  C16 UNL     1      32.807   3.885  46.655  1.00  0.00     0.025 A 
HETATM   11  C17 UNL     1      33.897   4.514  46.083  1.00  0.00     0.034 A 
HETATM   12 CL1  UNL     1      35.197   3.630  45.357  1.00  0.00    -0.084 Cl
HETATM   13  C18 UNL     1      33.842   5.905  46.152  1.00  0.00     0.025 A 
HETATM   14  C19 UNL     1      32.809   6.611  46.730  1.00  0.00     0.018 A 
ENDBRANCH   5   8
ENDBRANCH   3   4
ENDBRANCH   2   3
ENDBRANCH   1   2
BRANCH   1  15
HETATM   15  N2  UNL     1      26.929   4.339  49.031  1.00  0.00    -0.191 N 
HETATM   16  H4  UNL     1      27.695   3.933  48.463  1.00  0.00     0.184 HD
BRANCH  15  17
HETATM   17  C5  UNL     1      26.271   3.493  49.972  1.00  0.00     0.727 A 
HETATM   18  N3  UNL     1      24.916   3.359  49.931  1.00  0.00    -0.075 NA
HETATM   19  C6  UNL     1      24.244   2.569  50.800  1.00  0.00     0.139 A 
HETATM   20  C7  UNL     1      24.963   1.883  51.756  1.00  0.00     0.053 A 
HETATM   21  C8  UNL     1      26.334   2.013  51.806  1.00  0.00     0.089 A 
HETATM   22  N5  UNL     1      26.952   2.810  50.918  1.00  0.00    -0.062 NA
BRANCH  21  23
HETATM   23  C9  UNL     1      27.167   1.324  52.783  1.00  0.00     0.011 A 
HETATM   24  C10 UNL     1      28.213   2.015  53.358  1.00  0.00     0.017 A 
HETATM   25  C11 UNL     1      29.021   1.376  54.293  1.00  0.00     0.020 A 
HETATM   26  C12 UNL     1      28.831   0.056  54.687  1.00  0.00     0.116 A 
HETATM   27  N4  UNL     1      27.785  -0.585  54.091  1.00  0.00    -0.272 NA
HETATM   28  C13 UNL     1      26.995   0.017  53.185  1.00  0.00     0.130 A 
ENDBRANCH  21  23
ENDBRANCH  15  17
ENDBRANCH   1  15
TORSDOF 7
ENDMDL
