MODEL 1
REMARK VINA RESULT:      -8.7      0.000      0.000
REMARK  5 active torsions:
REMARK  status: ('A' for Active; 'I' for Inactive)
REMARK    1  A    between atoms: O1_1  and  C1_2 
REMARK    2  A    between atoms: C1_2  and  C2_3 
REMARK    3  A    between atoms: C2_3  and  N1_4 
REMARK    4  A    between atoms: C2_3  and  C13_18 
REMARK    5  A    between atoms: N1_4  and  C3_5 
ROOT
HETATM    1  C3  UNL     1      24.778   2.042  51.714  1.00  0.00     0.139 A 
HETATM    2  N2  UNL     1      25.098   3.230  51.191  1.00  0.00    -0.224 NA
HETATM    3  C4  UNL     1      24.290   4.271  50.997  1.00  0.00     0.236 A 
HETATM    4  N3  UNL     1      23.019   4.075  51.378  1.00  0.00    -0.234 NA
HETATM    5  C5  UNL     1      22.655   2.895  51.909  1.00  0.00     0.114 A 
HETATM    6  S1  UNL     1      21.093   2.394  52.473  1.00  0.00    -0.073 SA
HETATM    7  C6  UNL     1      21.602   0.715  52.979  1.00  0.00    -0.008 A 
HETATM    8  C7  UNL     1      22.949   0.692  52.664  1.00  0.00    -0.028 A 
HETATM    9  C8  UNL     1      23.480   1.826  52.110  1.00  0.00     0.053 A 
HETATM   10  C9  UNL     1      23.316  -0.669  53.088  1.00  0.00     0.041 C 
HETATM   11  C10 UNL     1      22.934  -0.856  54.556  1.00  0.00     0.005 C 
HETATM   12  C11 UNL     1      21.450  -1.175  54.570  1.00  0.00     0.005 C 
HETATM   13  C12 UNL     1      20.730  -0.301  53.568  1.00  0.00     0.047 C 
ENDROOT
BRANCH   1  14
HETATM   14  N1  UNL     1      25.861   1.094  51.801  1.00  0.00    -0.363 N 
HETATM   15  H5  UNL     1      26.271   0.386  51.199  1.00  0.00     0.162 HD
BRANCH  14  16
HETATM   16  C2  UNL     1      26.654   1.028  52.991  1.00  0.00     0.141 C 
BRANCH  16  17
HETATM   17  C1  UNL     1      27.786   2.006  53.045  1.00  0.00     0.194 C 
BRANCH  17  18
HETATM   18  O1  UNL     1      27.689   2.874  54.130  1.00  0.00    -0.399 OA
HETATM   19  H1  UNL     1      28.223   3.680  53.957  1.00  0.00     0.209 HD
ENDBRANCH  17  18
ENDBRANCH  16  17
BRANCH  16  20
HETATM   20  C13 UNL     1      27.295  -0.329  53.147  1.00  0.00    -0.021 C 
HETATM   21  C14 UNL     1      26.737  -1.513  53.031  1.00  0.00    -0.005 C 
HETATM   22  C15 UNL     1      27.475  -2.426  52.512  1.00  0.00    -0.013 C 
HETATM   23  C16 UNL     1      28.641  -2.639  53.085  1.00  0.00     0.013 C 
HETATM   24  C17 UNL     1      29.392  -1.415  53.436  1.00  0.00     0.002 C 
HETATM   25  C18 UNL     1      28.716  -0.255  53.467  1.00  0.00     0.010 C 
ENDBRANCH  16  20
ENDBRANCH  14  16
ENDBRANCH   1  14
TORSDOF 5
ENDMDL
MODEL 2
REMARK VINA RESULT:      -8.5      2.528      4.288
REMARK  5 active torsions:
REMARK  status: ('A' for Active; 'I' for Inactive)
REMARK    1  A    between atoms: O1_1  and  C1_2 
REMARK    2  A    between atoms: C1_2  and  C2_3 
REMARK    3  A    between atoms: C2_3  and  N1_4 
REMARK    4  A    between atoms: C2_3  and  C13_18 
REMARK    5  A    between atoms: N1_4  and  C3_5 
ROOT
HETATM    1  C3  UNL     1      22.725   0.690  52.683  1.00  0.00     0.139 A 
HETATM    2  N2  UNL     1      21.571   0.014  52.713  1.00  0.00    -0.224 NA
HETATM    3  C4  UNL     1      20.625  -0.009  51.776  1.00  0.00     0.236 A 
HETATM    4  N3  UNL     1      20.887   0.739  50.694  1.00  0.00    -0.234 NA
HETATM    5  C5  UNL     1      22.035   1.433  50.623  1.00  0.00     0.114 A 
HETATM    6  S1  UNL     1      22.603   2.465  49.350  1.00  0.00    -0.073 SA
HETATM    7  C6  UNL     1      24.176   2.918  50.158  1.00  0.00    -0.008 A 
HETATM    8  C7  UNL     1      24.121   2.224  51.354  1.00  0.00    -0.028 A 
HETATM    9  C8  UNL     1      23.007   1.460  51.581  1.00  0.00     0.053 A 
HETATM   10  C9  UNL     1      25.401   2.612  51.967  1.00  0.00     0.041 C 
HETATM   11  C10 UNL     1      26.541   2.272  51.008  1.00  0.00     0.005 C 
HETATM   12  C11 UNL     1      26.598   3.405  49.999  1.00  0.00     0.005 C 
HETATM   13  C12 UNL     1      25.195   3.810  49.605  1.00  0.00     0.047 C 
ENDROOT
BRANCH   1  14
HETATM   14  N1  UNL     1      23.562   0.533  53.847  1.00  0.00    -0.363 N 
HETATM   15  H5  UNL     1      23.884   1.123  54.607  1.00  0.00     0.162 HD
BRANCH  14  16
HETATM   16  C2  UNL     1      24.157  -0.738  54.127  1.00  0.00     0.141 C 
BRANCH  16  17
HETATM   17  C1  UNL     1      23.995  -1.208  55.539  1.00  0.00     0.194 C 
BRANCH  17  18
HETATM   18  O1  UNL     1      22.796  -1.888  55.741  1.00  0.00    -0.399 OA
HETATM   19  H1  UNL     1      22.764  -2.680  55.162  1.00  0.00     0.209 HD
ENDBRANCH  17  18
ENDBRANCH  16  17
BRANCH  16  20
HETATM   20  C13 UNL     1      25.646  -0.711  53.888  1.00  0.00    -0.021 C 
HETATM   21  C14 UNL     1      26.337  -1.354  52.973  1.00  0.00    -0.005 C 
HETATM   22  C15 UNL     1      27.342  -0.720  52.488  1.00  0.00    -0.013 C 
HETATM   23  C16 UNL     1      28.229  -0.272  53.352  1.00  0.00     0.013 C 
HETATM   24  C17 UNL     1      27.656   0.378  54.549  1.00  0.00     0.002 C 
HETATM   25  C18 UNL     1      26.358   0.157  54.818  1.00  0.00     0.010 C 
ENDBRANCH  16  20
ENDBRANCH  14  16
ENDBRANCH   1  14
TORSDOF 5
ENDMDL
MODEL 3
REMARK VINA RESULT:      -8.2      2.345      3.807
REMARK  5 active torsions:
REMARK  status: ('A' for Active; 'I' for Inactive)
REMARK    1  A    between atoms: O1_1  and  C1_2 
REMARK    2  A    between atoms: C1_2  and  C2_3 
REMARK    3  A    between atoms: C2_3  and  N1_4 
REMARK    4  A    between atoms: C2_3  and  C13_18 
REMARK    5  A    between atoms: N1_4  and  C3_5 
ROOT
HETATM    1  C3  UNL     1      23.610  -0.290  53.542  1.00  0.00     0.139 A 
HETATM    2  N2  UNL     1      23.920  -0.999  54.633  1.00  0.00    -0.224 NA
HETATM    3  C4  UNL     1      23.078  -1.608  55.467  1.00  0.00     0.236 A 
HETATM    4  N3  UNL     1      21.782  -1.477  55.151  1.00  0.00    -0.234 NA
HETATM    5  C5  UNL     1      21.427  -0.774  54.062  1.00  0.00     0.114 A 
HETATM    6  S1  UNL     1      19.836  -0.458  53.445  1.00  0.00    -0.073 SA
HETATM    7  C6  UNL     1      20.381   0.532  52.012  1.00  0.00    -0.008 A 
HETATM    8  C7  UNL     1      21.759   0.530  52.139  1.00  0.00    -0.028 A 
HETATM    9  C8  UNL     1      22.286  -0.149  53.206  1.00  0.00     0.053 A 
HETATM   10  C9  UNL     1      22.154   1.331  50.969  1.00  0.00     0.041 C 
HETATM   11  C10 UNL     1      21.563   0.701  49.708  1.00  0.00     0.005 C 
HETATM   12  C11 UNL     1      20.122   1.172  49.634  1.00  0.00     0.005 C 
HETATM   13  C12 UNL     1      19.504   1.146  51.014  1.00  0.00     0.047 C 
ENDROOT
BRANCH   1  14
HETATM   14  N1  UNL     1      24.733   0.264  52.827  1.00  0.00    -0.363 N 
HETATM   15  H5  UNL     1      25.187   0.107  51.933  1.00  0.00     0.162 HD
BRANCH  14  16
HETATM   16  C2  UNL     1      25.497   1.322  53.414  1.00  0.00     0.141 C 
BRANCH  16  17
HETATM   17  C1  UNL     1      25.359   2.647  52.731  1.00  0.00     0.194 C 
BRANCH  17  18
HETATM   18  O1  UNL     1      24.517   3.517  53.421  1.00  0.00    -0.399 OA
HETATM   19  H1  UNL     1      24.030   4.081  52.782  1.00  0.00     0.209 HD
ENDBRANCH  17  18
ENDBRANCH  16  17
BRANCH  16  20
HETATM   20  C13 UNL     1      26.973   1.014  53.385  1.00  0.00    -0.021 C 
HETATM   21  C14 UNL     1      27.982   1.833  53.585  1.00  0.00    -0.005 C 
HETATM   22  C15 UNL     1      28.993   1.329  54.195  1.00  0.00    -0.013 C 
HETATM   23  C16 UNL     1      29.519   0.242  53.669  1.00  0.00     0.013 C 
HETATM   24  C17 UNL     1      28.537  -0.774  53.236  1.00  0.00     0.002 C 
HETATM   25  C18 UNL     1      27.259  -0.386  53.094  1.00  0.00     0.010 C 
ENDBRANCH  16  20
ENDBRANCH  14  16
ENDBRANCH   1  14
TORSDOF 5
ENDMDL
MODEL 4
REMARK VINA RESULT:      -8.1      2.299      5.328
REMARK  5 active torsions:
REMARK  status: ('A' for Active; 'I' for Inactive)
REMARK    1  A    between atoms: O1_1  and  C1_2 
REMARK    2  A    between atoms: C1_2  and  C2_3 
REMARK    3  A    between atoms: C2_3  and  N1_4 
REMARK    4  A    between atoms: C2_3  and  C13_18 
REMARK    5  A    between atoms: N1_4  and  C3_5 
ROOT
HETATM    1  C3  UNL     1      26.184   2.297  52.327  1.00  0.00     0.139 A 
HETATM    2  N2  UNL     1      27.519   2.311  52.406  1.00  0.00    -0.224 NA
HETATM    3  C4  UNL     1      28.299   1.452  53.059  1.00  0.00     0.236 A 
HETATM    4  N3  UNL     1      27.643   0.473  53.700  1.00  0.00    -0.234 NA
HETATM    5  C5  UNL     1      26.301   0.422  53.646  1.00  0.00     0.114 A 
HETATM    6  S1  UNL     1      25.229  -0.727  54.382  1.00  0.00    -0.073 SA
HETATM    7  C6  UNL     1      23.687   0.023  53.755  1.00  0.00    -0.008 A 
HETATM    8  C7  UNL     1      24.143   1.106  53.025  1.00  0.00    -0.028 A 
HETATM    9  C8  UNL     1      25.498   1.300  52.978  1.00  0.00     0.053 A 
HETATM   10  C9  UNL     1      22.876   1.675  52.538  1.00  0.00     0.041 C 
HETATM   11  C10 UNL     1      22.099   0.597  51.785  1.00  0.00     0.005 C 
HETATM   12  C11 UNL     1      21.400  -0.238  52.843  1.00  0.00     0.005 C 
HETATM   13  C12 UNL     1      22.332  -0.467  54.011  1.00  0.00     0.047 C 
ENDROOT
BRANCH   1  14
HETATM   14  N1  UNL     1      25.600   3.362  51.550  1.00  0.00    -0.363 N 
HETATM   15  H5  UNL     1      25.220   4.285  51.734  1.00  0.00     0.162 HD
BRANCH  14  16
HETATM   16  C2  UNL     1      25.464   3.215  50.133  1.00  0.00     0.141 C 
BRANCH  16  17
HETATM   17  C1  UNL     1      26.326   4.131  49.322  1.00  0.00     0.194 C 
BRANCH  17  18
HETATM   18  O1  UNL     1      27.585   4.319  49.889  1.00  0.00    -0.399 OA
HETATM   19  H1  UNL     1      27.739   3.643  50.584  1.00  0.00     0.209 HD
ENDBRANCH  17  18
ENDBRANCH  16  17
BRANCH  16  20
HETATM   20  C13 UNL     1      24.052   3.503  49.686  1.00  0.00    -0.021 C 
HETATM   21  C14 UNL     1      23.373   2.936  48.713  1.00  0.00    -0.005 C 
HETATM   22  C15 UNL     1      22.118   2.779  48.930  1.00  0.00    -0.013 C 
HETATM   23  C16 UNL     1      21.436   3.857  49.256  1.00  0.00     0.013 C 
HETATM   24  C17 UNL     1      22.093   4.728  50.253  1.00  0.00     0.002 C 
HETATM   25  C18 UNL     1      23.407   4.550  50.469  1.00  0.00     0.010 C 
ENDBRANCH  16  20
ENDBRANCH  14  16
ENDBRANCH   1  14
TORSDOF 5
ENDMDL
MODEL 5
REMARK VINA RESULT:      -7.8      3.230      6.572
REMARK  5 active torsions:
REMARK  status: ('A' for Active; 'I' for Inactive)
REMARK    1  A    between atoms: O1_1  and  C1_2 
REMARK    2  A    between atoms: C1_2  and  C2_3 
REMARK    3  A    between atoms: C2_3  and  N1_4 
REMARK    4  A    between atoms: C2_3  and  C13_18 
REMARK    5  A    between atoms: N1_4  and  C3_5 
ROOT
HETATM    1  C3  UNL     1      24.097  -0.211  53.698  1.00  0.00     0.139 A 
HETATM    2  N2  UNL     1      24.364  -0.893  54.817  1.00  0.00    -0.224 NA
HETATM    3  C4  UNL     1      25.505  -0.902  55.504  1.00  0.00     0.236 A 
HETATM    4  N3  UNL     1      26.476  -0.132  54.991  1.00  0.00    -0.234 NA
HETATM    5  C5  UNL     1      26.249   0.571  53.868  1.00  0.00     0.114 A 
HETATM    6  S1  UNL     1      27.327   1.626  53.012  1.00  0.00    -0.073 SA
HETATM    7  C6  UNL     1      26.148   2.070  51.689  1.00  0.00    -0.008 A 
HETATM    8  C7  UNL     1      25.015   1.355  52.032  1.00  0.00    -0.028 A 
HETATM    9  C8  UNL     1      25.082   0.583  53.161  1.00  0.00     0.053 A 
HETATM   10  C9  UNL     1      24.096   1.742  50.949  1.00  0.00     0.041 C 
HETATM   11  C10 UNL     1      23.982   3.266  50.910  1.00  0.00     0.005 C 
HETATM   12  C11 UNL     1      25.200   3.763  50.152  1.00  0.00     0.005 C 
HETATM   13  C12 UNL     1      26.419   2.973  50.571  1.00  0.00     0.047 C 
ENDROOT
BRANCH   1  14
HETATM   14  N1  UNL     1      22.770  -0.396  53.165  1.00  0.00    -0.363 N 
HETATM   15  H5  UNL     1      22.341  -0.955  52.434  1.00  0.00     0.162 HD
BRANCH  14  16
HETATM   16  C2  UNL     1      21.673   0.335  53.721  1.00  0.00     0.141 C 
BRANCH  16  17
HETATM   17  C1  UNL     1      20.643  -0.507  54.409  1.00  0.00     0.194 C 
BRANCH  17  18
HETATM   18  O1  UNL     1      21.184  -1.667  54.959  1.00  0.00    -0.399 OA
HETATM   19  H1  UNL     1      21.986  -1.928  54.456  1.00  0.00     0.209 HD
ENDBRANCH  17  18
ENDBRANCH  16  17
BRANCH  16  20
HETATM   20  C13 UNL     1      20.918   1.088  52.653  1.00  0.00    -0.021 C 
HETATM   21  C14 UNL     1      20.421   2.304  52.709  1.00  0.00    -0.005 C 
HETATM   22  C15 UNL     1      20.476   2.977  51.618  1.00  0.00    -0.013 C 
HETATM   23  C16 UNL     1      19.936   2.422  50.553  1.00  0.00     0.013 C 
HETATM   24  C17 UNL     1      20.257   0.991  50.369  1.00  0.00     0.002 C 
HETATM   25  C18 UNL     1      20.751   0.322  51.424  1.00  0.00     0.010 C 
ENDBRANCH  16  20
ENDBRANCH  14  16
ENDBRANCH   1  14
TORSDOF 5
ENDMDL
MODEL 6
REMARK VINA RESULT:      -7.8      2.701      5.859
REMARK  5 active torsions:
REMARK  status: ('A' for Active; 'I' for Inactive)
REMARK    1  A    between atoms: O1_1  and  C1_2 
REMARK    2  A    between atoms: C1_2  and  C2_3 
REMARK    3  A    between atoms: C2_3  and  N1_4 
REMARK    4  A    between atoms: C2_3  and  C13_18 
REMARK    5  A    between atoms: N1_4  and  C3_5 
ROOT
HETATM    1  C3  UNL     1      23.800   1.358  51.737  1.00  0.00     0.139 A 
HETATM    2  N2  UNL     1      22.478   1.165  51.802  1.00  0.00    -0.224 NA
HETATM    3  C4  UNL     1      21.813   0.419  52.682  1.00  0.00     0.236 A 
HETATM    4  N3  UNL     1      22.582  -0.195  53.593  1.00  0.00    -0.234 NA
HETATM    5  C5  UNL     1      23.915  -0.027  53.565  1.00  0.00     0.114 A 
HETATM    6  S1  UNL     1      25.117  -0.704  54.617  1.00  0.00    -0.073 SA
HETATM    7  C6  UNL     1      26.549   0.078  53.798  1.00  0.00    -0.008 A 
HETATM    8  C7  UNL     1      25.964   0.800  52.773  1.00  0.00    -0.028 A 
HETATM    9  C8  UNL     1      24.600   0.736  52.664  1.00  0.00     0.053 A 
HETATM   10  C9  UNL     1      27.146   1.413  52.146  1.00  0.00     0.041 C 
HETATM   11  C10 UNL     1      27.925   2.195  53.203  1.00  0.00     0.005 C 
HETATM   12  C11 UNL     1      28.763   1.175  53.953  1.00  0.00     0.005 C 
HETATM   13  C12 UNL     1      27.949  -0.077  54.194  1.00  0.00     0.047 C 
ENDROOT
BRANCH   1  14
HETATM   14  N1  UNL     1      24.246   2.217  50.668  1.00  0.00    -0.363 N 
HETATM   15  H5  UNL     1      24.654   2.095  49.747  1.00  0.00     0.162 HD
BRANCH  14  16
HETATM   16  C2  UNL     1      24.142   3.637  50.808  1.00  0.00     0.141 C 
BRANCH  16  17
HETATM   17  C1  UNL     1      22.925   4.241  50.179  1.00  0.00     0.194 C 
BRANCH  17  18
HETATM   18  O1  UNL     1      21.787   4.094  50.969  1.00  0.00    -0.399 OA
HETATM   19  H1  UNL     1      21.543   4.960  51.362  1.00  0.00     0.209 HD
ENDBRANCH  17  18
ENDBRANCH  16  17
BRANCH  16  20
HETATM   20  C13 UNL     1      25.311   4.339  50.162  1.00  0.00    -0.021 C 
HETATM   21  C14 UNL     1      26.541   3.903  50.010  1.00  0.00    -0.005 C 
HETATM   22  C15 UNL     1      27.124   4.253  48.922  1.00  0.00    -0.013 C 
HETATM   23  C16 UNL     1      27.172   5.544  48.667  1.00  0.00     0.013 C 
HETATM   24  C17 UNL     1      25.909   6.271  48.909  1.00  0.00     0.002 C 
HETATM   25  C18 UNL     1      24.974   5.666  49.660  1.00  0.00     0.010 C 
ENDBRANCH  16  20
ENDBRANCH  14  16
ENDBRANCH   1  14
TORSDOF 5
ENDMDL
MODEL 7
REMARK VINA RESULT:      -7.7      2.243      5.008
REMARK  5 active torsions:
REMARK  status: ('A' for Active; 'I' for Inactive)
REMARK    1  A    between atoms: O1_1  and  C1_2 
REMARK    2  A    between atoms: C1_2  and  C2_3 
REMARK    3  A    between atoms: C2_3  and  N1_4 
REMARK    4  A    between atoms: C2_3  and  C13_18 
REMARK    5  A    between atoms: N1_4  and  C3_5 
ROOT
HETATM    1  C3  UNL     1      24.615   1.165  52.338  1.00  0.00     0.139 A 
HETATM    2  N2  UNL     1      25.877   0.870  52.671  1.00  0.00    -0.224 NA
HETATM    3  C4  UNL     1      26.286  -0.020  53.573  1.00  0.00     0.236 A 
HETATM    4  N3  UNL     1      25.301  -0.678  54.202  1.00  0.00    -0.234 NA
HETATM    5  C5  UNL     1      24.019  -0.412  53.897  1.00  0.00     0.114 A 
HETATM    6  S1  UNL     1      22.578  -1.114  54.559  1.00  0.00    -0.073 SA
HETATM    7  C6  UNL     1      21.410  -0.139  53.549  1.00  0.00    -0.008 A 
HETATM    8  C7  UNL     1      22.248   0.650  52.782  1.00  0.00    -0.028 A 
HETATM    9  C8  UNL     1      23.595   0.499  52.973  1.00  0.00     0.053 A 
HETATM   10  C9  UNL     1      21.271   1.412  51.987  1.00  0.00     0.041 C 
HETATM   11  C10 UNL     1      20.355   0.436  51.250  1.00  0.00     0.005 C 
HETATM   12  C11 UNL     1      19.304  -0.000  52.256  1.00  0.00     0.005 C 
HETATM   13  C12 UNL     1      19.951  -0.232  53.603  1.00  0.00     0.047 C 
ENDROOT
BRANCH   1  14
HETATM   14  N1  UNL     1      24.467   2.182  51.326  1.00  0.00    -0.363 N 
HETATM   15  H5  UNL     1      24.195   2.214  50.349  1.00  0.00     0.162 HD
BRANCH  14  16
HETATM   16  C2  UNL     1      24.737   3.550  51.648  1.00  0.00     0.141 C 
BRANCH  16  17
HETATM   17  C1  UNL     1      23.534   4.351  52.038  1.00  0.00     0.194 C 
BRANCH  17  18
HETATM   18  O1  UNL     1      23.781   5.190  53.123  1.00  0.00    -0.399 OA
HETATM   19  H1  UNL     1      23.658   4.692  53.960  1.00  0.00     0.209 HD
ENDBRANCH  17  18
ENDBRANCH  16  17
BRANCH  16  20
HETATM   20  C13 UNL     1      25.336   4.282  50.472  1.00  0.00    -0.021 C 
HETATM   21  C14 UNL     1      24.939   5.409  49.925  1.00  0.00    -0.005 C 
HETATM   22  C15 UNL     1      25.873   6.174  49.490  1.00  0.00    -0.013 C 
HETATM   23  C16 UNL     1      26.720   5.644  48.633  1.00  0.00     0.013 C 
HETATM   24  C17 UNL     1      27.196   4.290  48.989  1.00  0.00     0.002 C 
HETATM   25  C18 UNL     1      26.501   3.607  49.913  1.00  0.00     0.010 C 
ENDBRANCH  16  20
ENDBRANCH  14  16
ENDBRANCH   1  14
TORSDOF 5
ENDMDL
MODEL 8
REMARK VINA RESULT:      -7.6      3.151      6.189
REMARK  5 active torsions:
REMARK  status: ('A' for Active; 'I' for Inactive)
REMARK    1  A    between atoms: O1_1  and  C1_2 
REMARK    2  A    between atoms: C1_2  and  C2_3 
REMARK    3  A    between atoms: C2_3  and  N1_4 
REMARK    4  A    between atoms: C2_3  and  C13_18 
REMARK    5  A    between atoms: N1_4  and  C3_5 
ROOT
HETATM    1  C3  UNL     1      22.104  -0.075  52.823  1.00  0.00     0.139 A 
HETATM    2  N2  UNL     1      20.952  -0.622  53.225  1.00  0.00    -0.224 NA
HETATM    3  C4  UNL     1      20.749  -1.379  54.302  1.00  0.00     0.236 A 
HETATM    4  N3  UNL     1      21.843  -1.600  55.047  1.00  0.00    -0.234 NA
HETATM    5  C5  UNL     1      23.021  -1.068  54.678  1.00  0.00     0.114 A 
HETATM    6  S1  UNL     1      24.564  -1.205  55.459  1.00  0.00    -0.073 SA
HETATM    7  C6  UNL     1      25.479  -0.187  54.250  1.00  0.00    -0.008 A 
HETATM    8  C7  UNL     1      24.499   0.172  53.342  1.00  0.00    -0.028 A 
HETATM    9  C8  UNL     1      23.232  -0.292  53.576  1.00  0.00     0.053 A 
HETATM   10  C9  UNL     1      25.275   0.988  52.394  1.00  0.00     0.041 C 
HETATM   11  C10 UNL     1      25.973   2.114  53.157  1.00  0.00     0.005 C 
HETATM   12  C11 UNL     1      27.222   1.502  53.764  1.00  0.00     0.005 C 
HETATM   13  C12 UNL     1      26.908   0.125  54.304  1.00  0.00     0.047 C 
ENDROOT
BRANCH   1  14
HETATM   14  N1  UNL     1      22.029   0.697  51.607  1.00  0.00    -0.363 N 
HETATM   15  H5  UNL     1      22.267   0.559  50.631  1.00  0.00     0.162 HD
BRANCH  14  16
HETATM   16  C2  UNL     1      21.495   2.025  51.641  1.00  0.00     0.141 C 
BRANCH  16  17
HETATM   17  C1  UNL     1      20.219   2.206  50.879  1.00  0.00     0.194 C 
BRANCH  17  18
HETATM   18  O1  UNL     1      19.258   1.255  51.213  1.00  0.00    -0.399 OA
HETATM   19  H1  UNL     1      19.148   0.621  50.471  1.00  0.00     0.209 HD
ENDBRANCH  17  18
ENDBRANCH  16  17
BRANCH  16  20
HETATM   20  C13 UNL     1      22.459   3.019  51.043  1.00  0.00    -0.021 C 
HETATM   21  C14 UNL     1      22.754   4.227  51.469  1.00  0.00    -0.005 C 
HETATM   22  C15 UNL     1      23.976   4.588  51.312  1.00  0.00    -0.013 C 
HETATM   23  C16 UNL     1      24.461   4.515  50.090  1.00  0.00     0.013 C 
HETATM   24  C17 UNL     1      24.124   3.273  49.362  1.00  0.00     0.002 C 
HETATM   25  C18 UNL     1      23.119   2.522  49.841  1.00  0.00     0.010 C 
ENDBRANCH  16  20
ENDBRANCH  14  16
ENDBRANCH   1  14
TORSDOF 5
ENDMDL
MODEL 9
REMARK VINA RESULT:      -7.6      2.567      5.146
REMARK  5 active torsions:
REMARK  status: ('A' for Active; 'I' for Inactive)
REMARK    1  A    between atoms: O1_1  and  C1_2 
REMARK    2  A    between atoms: C1_2  and  C2_3 
REMARK    3  A    between atoms: C2_3  and  N1_4 
REMARK    4  A    between atoms: C2_3  and  C13_18 
REMARK    5  A    between atoms: N1_4  and  C3_5 
ROOT
HETATM    1  C3  UNL     1      22.081   3.297  51.167  1.00  0.00     0.139 A 
HETATM    2  N2  UNL     1      20.972   4.026  50.999  1.00  0.00    -0.224 NA
HETATM    3  C4  UNL     1      19.793   3.852  51.594  1.00  0.00     0.236 A 
HETATM    4  N3  UNL     1      19.743   2.822  52.452  1.00  0.00    -0.234 NA
HETATM    5  C5  UNL     1      20.835   2.064  52.650  1.00  0.00     0.114 A 
HETATM    6  S1  UNL     1      21.026   0.690  53.692  1.00  0.00    -0.073 SA
HETATM    7  C6  UNL     1      22.776   0.377  53.274  1.00  0.00    -0.008 A 
HETATM    8  C7  UNL     1      23.059   1.374  52.357  1.00  0.00    -0.028 A 
HETATM    9  C8  UNL     1      22.044   2.239  52.043  1.00  0.00     0.053 A 
HETATM   10  C9  UNL     1      24.470   1.088  52.052  1.00  0.00     0.041 C 
HETATM   11  C10 UNL     1      25.272   1.081  53.352  1.00  0.00     0.005 C 
HETATM   12  C11 UNL     1      25.055  -0.286  53.977  1.00  0.00     0.005 C 
HETATM   13  C12 UNL     1      23.607  -0.694  53.823  1.00  0.00     0.047 C 
ENDROOT
BRANCH   1  14
HETATM   14  N1  UNL     1      23.218   3.713  50.384  1.00  0.00    -0.363 N 
HETATM   15  H5  UNL     1      23.535   3.596  49.427  1.00  0.00     0.162 HD
BRANCH  14  16
HETATM   16  C2  UNL     1      24.243   4.507  50.987  1.00  0.00     0.141 C 
BRANCH  16  17
HETATM   17  C1  UNL     1      23.756   5.751  51.663  1.00  0.00     0.194 C 
BRANCH  17  18
HETATM   18  O1  UNL     1      23.942   5.716  53.043  1.00  0.00    -0.399 OA
HETATM   19  H1  UNL     1      24.452   4.913  53.287  1.00  0.00     0.209 HD
ENDBRANCH  17  18
ENDBRANCH  16  17
BRANCH  16  20
HETATM   20  C13 UNL     1      25.245   4.980  49.963  1.00  0.00    -0.021 C 
HETATM   21  C14 UNL     1      25.277   6.127  49.322  1.00  0.00    -0.005 C 
HETATM   22  C15 UNL     1      26.447   6.603  49.094  1.00  0.00    -0.013 C 
HETATM   23  C16 UNL     1      27.290   5.818  48.456  1.00  0.00     0.013 C 
HETATM   24  C17 UNL     1      27.315   4.419  48.932  1.00  0.00     0.002 C 
HETATM   25  C18 UNL     1      26.288   3.998  49.689  1.00  0.00     0.010 C 
ENDBRANCH  16  20
ENDBRANCH  14  16
ENDBRANCH   1  14
TORSDOF 5
ENDMDL
