MODEL 1
REMARK VINA RESULT:      -7.2      0.000      0.000
REMARK  8 active torsions:
REMARK  status: ('A' for Active; 'I' for Inactive)
REMARK    1  A    between atoms: C2_2  and  O1_3 
REMARK    2  A    between atoms: O1_3  and  C3_4 
REMARK    3  A    between atoms: C3_4  and  N1_5 
REMARK    4  A    between atoms: C6_8  and  N2_9 
REMARK    5  A    between atoms: N2_9  and  C7_10 
REMARK    6  A    between atoms: C11_16  and  O2_17 
REMARK    7  A    between atoms: C13_19  and  O3_20 
REMARK    8  A    between atoms: C18_25  and  O4_26 
ROOT
HETATM    1  C7  UNL     1      26.113   2.611  50.887  1.00  0.00     0.142 A 
HETATM    2  N3  UNL     1      27.267   2.595  51.581  1.00  0.00    -0.224 NA
HETATM    3  C8  UNL     1      27.292   2.117  52.855  1.00  0.00     0.236 A 
HETATM    4  N4  UNL     1      26.142   1.667  53.393  1.00  0.00    -0.241 NA
HETATM    5  C9  UNL     1      24.963   1.676  52.702  1.00  0.00     0.075 A 
HETATM    6  C10 UNL     1      23.784   1.215  53.251  1.00  0.00     0.072 A 
HETATM    7  C11 UNL     1      22.590   1.224  52.556  1.00  0.00     0.103 A 
HETATM    8  C13 UNL     1      22.609   1.716  51.268  1.00  0.00     0.102 A 
HETATM    9  C15 UNL     1      23.758   2.190  50.667  1.00  0.00     0.057 A 
HETATM   10  C16 UNL     1      24.919   2.157  51.409  1.00  0.00     0.042 A 
ENDROOT
BRANCH   1  11
HETATM   11  N2  UNL     1      26.200   3.131  49.564  1.00  0.00    -0.340 N 
HETATM   12  H10 UNL     1      26.066   2.695  48.649  1.00  0.00     0.167 HD
BRANCH  11  13
HETATM   13  C6  UNL     1      26.524   4.481  49.353  1.00  0.00     0.035 A 
HETATM   14  C5  UNL     1      27.701   4.895  48.590  1.00  0.00     0.046 A 
HETATM   15  C4  UNL     1      28.075   6.139  48.346  1.00  0.00     0.093 A 
HETATM   16  N1  UNL     1      27.255   7.173  48.875  1.00  0.00    -0.340 N 
HETATM   17  C18 UNL     1      26.041   6.936  49.662  1.00  0.00     0.247 A 
HETATM   18  C17 UNL     1      25.795   5.490  49.823  1.00  0.00     0.055 A 
BRANCH  16  19
HETATM   19  C3  UNL     1      27.651   8.544  48.617  1.00  0.00     0.295 C 
BRANCH  19  20
HETATM   20  O1  UNL     1      28.364   9.060  49.685  1.00  0.00    -0.372 OA
BRANCH  20  21
HETATM   21  C2  UNL     1      29.543   9.692  49.281  1.00  0.00     0.165 C 
HETATM   22  C1  UNL     1      30.694   8.714  49.213  1.00  0.00     0.033 C 
ENDBRANCH  20  21
ENDBRANCH  19  20
ENDBRANCH  16  19
BRANCH  17  23
HETATM   23  O4  UNL     1      26.227   7.598  50.865  1.00  0.00    -0.373 OA
HETATM   24  H22 UNL     1      27.114   8.005  50.871  1.00  0.00     0.212 HD
ENDBRANCH  17  23
ENDBRANCH  11  13
ENDBRANCH   1  11
BRANCH   8  25
HETATM   25  O3  UNL     1      21.417   1.731  50.554  1.00  0.00    -0.353 OA
HETATM   26  C14 UNL     1      21.349   1.083  49.276  1.00  0.00     0.210 C 
ENDBRANCH   8  25
BRANCH   7  27
HETATM   27  O2  UNL     1      21.401   0.769  53.084  1.00  0.00    -0.353 OA
HETATM   28  C12 UNL     1      21.289  -0.119  54.153  1.00  0.00     0.210 C 
ENDBRANCH   7  27
TORSDOF 8
ENDMDL
MODEL 2
REMARK VINA RESULT:      -7.1      3.160      8.741
REMARK  8 active torsions:
REMARK  status: ('A' for Active; 'I' for Inactive)
REMARK    1  A    between atoms: C2_2  and  O1_3 
REMARK    2  A    between atoms: O1_3  and  C3_4 
REMARK    3  A    between atoms: C3_4  and  N1_5 
REMARK    4  A    between atoms: C6_8  and  N2_9 
REMARK    5  A    between atoms: N2_9  and  C7_10 
REMARK    6  A    between atoms: C11_16  and  O2_17 
REMARK    7  A    between atoms: C13_19  and  O3_20 
REMARK    8  A    between atoms: C18_25  and  O4_26 
ROOT
HETATM    1  C7  UNL     1      29.002   7.311  48.355  1.00  0.00     0.142 A 
HETATM    2  N3  UNL     1      28.633   8.538  48.769  1.00  0.00    -0.224 NA
HETATM    3  C8  UNL     1      29.551   9.380  49.317  1.00  0.00     0.236 A 
HETATM    4  N4  UNL     1      30.824   8.953  49.431  1.00  0.00    -0.241 NA
HETATM    5  C9  UNL     1      31.215   7.712  49.015  1.00  0.00     0.075 A 
HETATM    6  C10 UNL     1      32.518   7.273  49.130  1.00  0.00     0.072 A 
HETATM    7  C11 UNL     1      32.917   6.019  48.711  1.00  0.00     0.103 A 
HETATM    8  C13 UNL     1      31.955   5.197  48.161  1.00  0.00     0.102 A 
HETATM    9  C15 UNL     1      30.637   5.583  48.021  1.00  0.00     0.057 A 
HETATM   10  C16 UNL     1      30.298   6.845  48.457  1.00  0.00     0.042 A 
ENDROOT
BRANCH   1  11
HETATM   11  N2  UNL     1      27.963   6.514  47.797  1.00  0.00    -0.340 N 
HETATM   12  H10 UNL     1      27.681   6.338  46.829  1.00  0.00     0.167 HD
BRANCH  11  13
HETATM   13  C6  UNL     1      27.100   5.787  48.633  1.00  0.00     0.035 A 
HETATM   14  C5  UNL     1      25.876   6.364  49.188  1.00  0.00     0.046 A 
HETATM   15  C4  UNL     1      25.013   5.750  49.980  1.00  0.00     0.093 A 
HETATM   16  N1  UNL     1      25.302   4.402  50.324  1.00  0.00    -0.340 N 
HETATM   17  C18 UNL     1      26.484   3.671  49.857  1.00  0.00     0.247 A 
HETATM   18  C17 UNL     1      27.319   4.524  48.989  1.00  0.00     0.055 A 
BRANCH  16  19
HETATM   19  C3  UNL     1      24.366   3.715  51.192  1.00  0.00     0.295 C 
BRANCH  19  20
HETATM   20  O1  UNL     1      24.243   2.385  50.828  1.00  0.00    -0.372 OA
BRANCH  20  21
HETATM   21  C2  UNL     1      23.801   1.584  51.884  1.00  0.00     0.165 C 
HETATM   22  C1  UNL     1      24.950   0.838  52.525  1.00  0.00     0.033 C 
ENDBRANCH  20  21
ENDBRANCH  19  20
ENDBRANCH  16  19
BRANCH  17  23
HETATM   23  O4  UNL     1      27.143   3.237  50.997  1.00  0.00    -0.373 OA
HETATM   24  H22 UNL     1      27.005   2.277  51.098  1.00  0.00     0.212 HD
ENDBRANCH  17  23
ENDBRANCH  11  13
ENDBRANCH   1  11
BRANCH   8  25
HETATM   25  O3  UNL     1      32.339   3.932  47.734  1.00  0.00    -0.353 OA
HETATM   26  C14 UNL     1      32.378   3.641  46.329  1.00  0.00     0.210 C 
ENDBRANCH   8  25
BRANCH   7  27
HETATM   27  O2  UNL     1      34.212   5.559  48.815  1.00  0.00    -0.353 OA
HETATM   28  C12 UNL     1      35.353   6.349  48.686  1.00  0.00     0.210 C 
ENDBRANCH   7  27
TORSDOF 8
ENDMDL
MODEL 3
REMARK VINA RESULT:      -7.0      2.805      7.803
REMARK  8 active torsions:
REMARK  status: ('A' for Active; 'I' for Inactive)
REMARK    1  A    between atoms: C2_2  and  O1_3 
REMARK    2  A    between atoms: O1_3  and  C3_4 
REMARK    3  A    between atoms: C3_4  and  N1_5 
REMARK    4  A    between atoms: C6_8  and  N2_9 
REMARK    5  A    between atoms: N2_9  and  C7_10 
REMARK    6  A    between atoms: C11_16  and  O2_17 
REMARK    7  A    between atoms: C13_19  and  O3_20 
REMARK    8  A    between atoms: C18_25  and  O4_26 
ROOT
HETATM    1  C7  UNL     1      25.206   4.356  50.087  1.00  0.00     0.142 A 
HETATM    2  N3  UNL     1      24.034   4.614  50.696  1.00  0.00    -0.224 NA
HETATM    3  C8  UNL     1      23.574   5.892  50.781  1.00  0.00     0.236 A 
HETATM    4  N4  UNL     1      24.318   6.878  50.243  1.00  0.00    -0.241 NA
HETATM    5  C9  UNL     1      25.510   6.633  49.621  1.00  0.00     0.075 A 
HETATM    6  C10 UNL     1      26.274   7.640  49.068  1.00  0.00     0.072 A 
HETATM    7  C11 UNL     1      27.479   7.397  48.439  1.00  0.00     0.103 A 
HETATM    8  C13 UNL     1      27.909   6.087  48.376  1.00  0.00     0.102 A 
HETATM    9  C15 UNL     1      27.186   5.039  48.910  1.00  0.00     0.057 A 
HETATM   10  C16 UNL     1      25.991   5.343  49.526  1.00  0.00     0.042 A 
ENDROOT
BRANCH   1  11
HETATM   11  N2  UNL     1      25.592   2.986  50.055  1.00  0.00    -0.340 N 
HETATM   12  H10 UNL     1      25.679   2.318  49.284  1.00  0.00     0.167 HD
BRANCH  11  13
HETATM   13  C6  UNL     1      25.940   2.319  51.241  1.00  0.00     0.035 A 
HETATM   14  C5  UNL     1      25.079   1.310  51.855  1.00  0.00     0.046 A 
HETATM   15  C4  UNL     1      25.333   0.640  52.966  1.00  0.00     0.093 A 
HETATM   16  N1  UNL     1      26.559   0.926  53.625  1.00  0.00    -0.340 N 
HETATM   17  C18 UNL     1      27.537   1.907  53.148  1.00  0.00     0.247 A 
HETATM   18  C17 UNL     1      27.074   2.546  51.900  1.00  0.00     0.055 A 
BRANCH  16  19
HETATM   19  C3  UNL     1      26.852   0.199  54.845  1.00  0.00     0.295 C 
BRANCH  19  20
HETATM   20  O1  UNL     1      28.181  -0.188  54.880  1.00  0.00    -0.372 OA
BRANCH  20  21
HETATM   21  C2  UNL     1      28.536  -0.971  53.779  1.00  0.00     0.165 C 
HETATM   22  C1  UNL     1      30.025  -0.912  53.522  1.00  0.00     0.033 C 
ENDBRANCH  20  21
ENDBRANCH  19  20
ENDBRANCH  16  19
BRANCH  17  23
HETATM   23  O4  UNL     1      27.721   2.805  54.187  1.00  0.00    -0.373 OA
HETATM   24  H22 UNL     1      27.358   3.672  53.927  1.00  0.00     0.212 HD
ENDBRANCH  17  23
ENDBRANCH  11  13
ENDBRANCH   1  11
BRANCH   8  25
HETATM   25  O3  UNL     1      29.118   5.824  47.746  1.00  0.00    -0.353 OA
HETATM   26  C14 UNL     1      30.333   5.841  48.510  1.00  0.00     0.210 C 
ENDBRANCH   8  25
BRANCH   7  27
HETATM   27  O2  UNL     1      28.258   8.386  47.881  1.00  0.00    -0.353 OA
HETATM   28  C12 UNL     1      28.757   9.493  48.567  1.00  0.00     0.210 C 
ENDBRANCH   7  27
TORSDOF 8
ENDMDL
MODEL 4
REMARK VINA RESULT:      -6.8      3.055      4.987
REMARK  8 active torsions:
REMARK  status: ('A' for Active; 'I' for Inactive)
REMARK    1  A    between atoms: C2_2  and  O1_3 
REMARK    2  A    between atoms: O1_3  and  C3_4 
REMARK    3  A    between atoms: C3_4  and  N1_5 
REMARK    4  A    between atoms: C6_8  and  N2_9 
REMARK    5  A    between atoms: N2_9  and  C7_10 
REMARK    6  A    between atoms: C11_16  and  O2_17 
REMARK    7  A    between atoms: C13_19  and  O3_20 
REMARK    8  A    between atoms: C18_25  and  O4_26 
ROOT
HETATM    1  C7  UNL     1      22.165   0.487  52.670  1.00  0.00     0.142 A 
HETATM    2  N3  UNL     1      21.122   0.061  53.408  1.00  0.00    -0.224 NA
HETATM    3  C8  UNL     1      21.336  -0.665  54.539  1.00  0.00     0.236 A 
HETATM    4  N4  UNL     1      22.606  -0.940  54.892  1.00  0.00    -0.241 NA
HETATM    5  C9  UNL     1      23.675  -0.516  54.155  1.00  0.00     0.075 A 
HETATM    6  C10 UNL     1      24.977  -0.796  54.515  1.00  0.00     0.072 A 
HETATM    7  C11 UNL     1      26.060  -0.370  53.771  1.00  0.00     0.103 A 
HETATM    8  C13 UNL     1      25.799   0.364  52.632  1.00  0.00     0.102 A 
HETATM    9  C15 UNL     1      24.518   0.675  52.224  1.00  0.00     0.057 A 
HETATM   10  C16 UNL     1      23.477   0.222  53.005  1.00  0.00     0.042 A 
ENDROOT
BRANCH   1  11
HETATM   11  N2  UNL     1      21.828   1.238  51.508  1.00  0.00    -0.340 N 
HETATM   12  H10 UNL     1      21.280   1.001  50.676  1.00  0.00     0.167 HD
BRANCH  11  13
HETATM   13  C6  UNL     1      22.273   2.562  51.365  1.00  0.00     0.035 A 
HETATM   14  C5  UNL     1      22.820   3.075  50.110  1.00  0.00     0.046 A 
HETATM   15  C4  UNL     1      23.259   4.303  49.894  1.00  0.00     0.093 A 
HETATM   16  N1  UNL     1      23.193   5.212  50.984  1.00  0.00    -0.340 N 
HETATM   17  C18 UNL     1      22.674   4.864  52.311  1.00  0.00     0.247 A 
HETATM   18  C17 UNL     1      22.235   3.456  52.351  1.00  0.00     0.055 A 
BRANCH  16  19
HETATM   19  C3  UNL     1      23.671   6.562  50.764  1.00  0.00     0.295 C 
BRANCH  19  20
HETATM   20  O1  UNL     1      25.047   6.626  50.896  1.00  0.00    -0.372 OA
BRANCH  20  21
HETATM   21  C2  UNL     1      25.668   7.138  49.754  1.00  0.00     0.165 C 
HETATM   22  C1  UNL     1      26.409   6.056  49.000  1.00  0.00     0.033 C 
ENDBRANCH  20  21
ENDBRANCH  19  20
ENDBRANCH  16  19
BRANCH  17  23
HETATM   23  O4  UNL     1      23.692   5.147  53.208  1.00  0.00    -0.373 OA
HETATM   24  H22 UNL     1      24.455   4.568  53.017  1.00  0.00     0.212 HD
ENDBRANCH  17  23
ENDBRANCH  11  13
ENDBRANCH   1  11
BRANCH   8  25
HETATM   25  O3  UNL     1      26.877   0.802  51.873  1.00  0.00    -0.353 OA
HETATM   26  C14 UNL     1      27.118   2.209  51.733  1.00  0.00     0.210 C 
ENDBRANCH   8  25
BRANCH   7  27
HETATM   27  O2  UNL     1      27.368  -0.638  54.112  1.00  0.00    -0.353 OA
HETATM   28  C12 UNL     1      28.169   0.176  54.913  1.00  0.00     0.210 C 
ENDBRANCH   7  27
TORSDOF 8
ENDMDL
MODEL 5
REMARK VINA RESULT:      -6.7      2.147      3.213
REMARK  8 active torsions:
REMARK  status: ('A' for Active; 'I' for Inactive)
REMARK    1  A    between atoms: C2_2  and  O1_3 
REMARK    2  A    between atoms: O1_3  and  C3_4 
REMARK    3  A    between atoms: C3_4  and  N1_5 
REMARK    4  A    between atoms: C6_8  and  N2_9 
REMARK    5  A    between atoms: N2_9  and  C7_10 
REMARK    6  A    between atoms: C11_16  and  O2_17 
REMARK    7  A    between atoms: C13_19  and  O3_20 
REMARK    8  A    between atoms: C18_25  and  O4_26 
ROOT
HETATM    1  C7  UNL     1      25.159   2.749  50.393  1.00  0.00     0.142 A 
HETATM    2  N3  UNL     1      23.974   3.341  50.152  1.00  0.00    -0.224 NA
HETATM    3  C8  UNL     1      22.889   3.037  50.915  1.00  0.00     0.236 A 
HETATM    4  N4  UNL     1      23.036   2.137  51.906  1.00  0.00    -0.241 NA
HETATM    5  C9  UNL     1      24.230   1.526  52.164  1.00  0.00     0.075 A 
HETATM    6  C10 UNL     1      24.383   0.603  53.178  1.00  0.00     0.072 A 
HETATM    7  C11 UNL     1      25.588  -0.016  53.442  1.00  0.00     0.103 A 
HETATM    8  C13 UNL     1      26.663   0.321  52.645  1.00  0.00     0.102 A 
HETATM    9  C15 UNL     1      26.570   1.237  51.617  1.00  0.00     0.057 A 
HETATM   10  C16 UNL     1      25.341   1.823  51.401  1.00  0.00     0.042 A 
ENDROOT
BRANCH   1  11
HETATM   11  N2  UNL     1      26.226   3.140  49.536  1.00  0.00    -0.340 N 
HETATM   12  H10 UNL     1      26.888   2.596  48.976  1.00  0.00     0.167 HD
BRANCH  11  13
HETATM   13  C6  UNL     1      26.521   4.500  49.347  1.00  0.00     0.035 A 
HETATM   14  C5  UNL     1      27.678   4.951  48.574  1.00  0.00     0.046 A 
HETATM   15  C4  UNL     1      28.025   6.207  48.350  1.00  0.00     0.093 A 
HETATM   16  N1  UNL     1      27.194   7.214  48.911  1.00  0.00    -0.340 N 
HETATM   17  C18 UNL     1      25.997   6.939  49.711  1.00  0.00     0.247 A 
HETATM   18  C17 UNL     1      25.780   5.485  49.847  1.00  0.00     0.055 A 
BRANCH  16  19
HETATM   19  C3  UNL     1      27.560   8.597  48.673  1.00  0.00     0.295 C 
BRANCH  19  20
HETATM   20  O1  UNL     1      28.259   9.113  49.751  1.00  0.00    -0.372 OA
BRANCH  20  21
HETATM   21  C2  UNL     1      29.569   9.463  49.416  1.00  0.00     0.165 C 
HETATM   22  C1  UNL     1      29.701   9.743  47.936  1.00  0.00     0.033 C 
ENDBRANCH  20  21
ENDBRANCH  19  20
ENDBRANCH  16  19
BRANCH  17  23
HETATM   23  O4  UNL     1      26.188   7.581  50.924  1.00  0.00    -0.373 OA
HETATM   24  H22 UNL     1      26.442   6.921  51.597  1.00  0.00     0.212 HD
ENDBRANCH  17  23
ENDBRANCH  11  13
ENDBRANCH   1  11
BRANCH   8  25
HETATM   25  O3  UNL     1      27.883  -0.292  52.897  1.00  0.00    -0.353 OA
HETATM   26  C14 UNL     1      28.882   0.404  53.658  1.00  0.00     0.210 C 
ENDBRANCH   8  25
BRANCH   7  27
HETATM   27  O2  UNL     1      25.764  -0.940  54.449  1.00  0.00    -0.353 OA
HETATM   28  C12 UNL     1      25.298  -0.796  55.756  1.00  0.00     0.210 C 
ENDBRANCH   7  27
TORSDOF 8
ENDMDL
MODEL 6
REMARK VINA RESULT:      -6.7      4.342      8.550
REMARK  8 active torsions:
REMARK  status: ('A' for Active; 'I' for Inactive)
REMARK    1  A    between atoms: C2_2  and  O1_3 
REMARK    2  A    between atoms: O1_3  and  C3_4 
REMARK    3  A    between atoms: C3_4  and  N1_5 
REMARK    4  A    between atoms: C6_8  and  N2_9 
REMARK    5  A    between atoms: N2_9  and  C7_10 
REMARK    6  A    between atoms: C11_16  and  O2_17 
REMARK    7  A    between atoms: C13_19  and  O3_20 
REMARK    8  A    between atoms: C18_25  and  O4_26 
ROOT
HETATM    1  C7  UNL     1      24.551   2.582  52.265  1.00  0.00     0.142 A 
HETATM    2  N3  UNL     1      24.736   3.271  51.123  1.00  0.00    -0.224 NA
HETATM    3  C8  UNL     1      25.886   3.119  50.412  1.00  0.00     0.236 A 
HETATM    4  N4  UNL     1      26.821   2.270  50.880  1.00  0.00    -0.241 NA
HETATM    5  C9  UNL     1      26.649   1.563  52.036  1.00  0.00     0.075 A 
HETATM    6  C10 UNL     1      27.605   0.692  52.518  1.00  0.00     0.072 A 
HETATM    7  C11 UNL     1      27.434  -0.023  53.687  1.00  0.00     0.103 A 
HETATM    8  C13 UNL     1      26.254   0.160  54.377  1.00  0.00     0.102 A 
HETATM    9  C15 UNL     1      25.262   1.017  53.943  1.00  0.00     0.057 A 
HETATM   10  C16 UNL     1      25.488   1.704  52.770  1.00  0.00     0.042 A 
ENDROOT
BRANCH   1  11
HETATM   11  N2  UNL     1      23.312   2.816  52.928  1.00  0.00    -0.340 N 
HETATM   12  H10 UNL     1      23.031   3.510  53.625  1.00  0.00     0.167 HD
BRANCH  11  13
HETATM   13  C6  UNL     1      22.198   2.006  52.655  1.00  0.00     0.035 A 
HETATM   14  C5  UNL     1      21.114   2.434  51.773  1.00  0.00     0.046 A 
HETATM   15  C4  UNL     1      20.034   1.735  51.467  1.00  0.00     0.093 A 
HETATM   16  N1  UNL     1      19.917   0.444  52.048  1.00  0.00    -0.340 N 
HETATM   17  C18 UNL     1      20.910  -0.141  52.954  1.00  0.00     0.247 A 
HETATM   18  C17 UNL     1      22.035   0.790  53.171  1.00  0.00     0.055 A 
BRANCH  16  19
HETATM   19  C3  UNL     1      18.739  -0.336  51.722  1.00  0.00     0.295 C 
BRANCH  19  20
HETATM   20  O1  UNL     1      17.880  -0.407  52.805  1.00  0.00    -0.372 OA
BRANCH  20  21
HETATM   21  C2  UNL     1      17.078  -1.550  52.773  1.00  0.00     0.165 C 
HETATM   22  C1  UNL     1      17.680  -2.666  53.597  1.00  0.00     0.033 C 
ENDBRANCH  20  21
ENDBRANCH  19  20
ENDBRANCH  16  19
BRANCH  17  23
HETATM   23  O4  UNL     1      20.229  -0.459  54.119  1.00  0.00    -0.373 OA
HETATM   24  H22 UNL     1      20.131   0.347  54.660  1.00  0.00     0.212 HD
ENDBRANCH  17  23
ENDBRANCH  11  13
ENDBRANCH   1  11
BRANCH   8  25
HETATM   25  O3  UNL     1      26.065  -0.552  55.554  1.00  0.00    -0.353 OA
HETATM   26  C14 UNL     1      24.800  -1.182  55.806  1.00  0.00     0.210 C 
ENDBRANCH   8  25
BRANCH   7  27
HETATM   27  O2  UNL     1      28.374  -0.898  54.186  1.00  0.00    -0.353 OA
HETATM   28  C12 UNL     1      29.439  -1.428  53.458  1.00  0.00     0.210 C 
ENDBRANCH   7  27
TORSDOF 8
ENDMDL
MODEL 7
REMARK VINA RESULT:      -6.6      2.971      7.389
REMARK  8 active torsions:
REMARK  status: ('A' for Active; 'I' for Inactive)
REMARK    1  A    between atoms: C2_2  and  O1_3 
REMARK    2  A    between atoms: O1_3  and  C3_4 
REMARK    3  A    between atoms: C3_4  and  N1_5 
REMARK    4  A    between atoms: C6_8  and  N2_9 
REMARK    5  A    between atoms: N2_9  and  C7_10 
REMARK    6  A    between atoms: C11_16  and  O2_17 
REMARK    7  A    between atoms: C13_19  and  O3_20 
REMARK    8  A    between atoms: C18_25  and  O4_26 
ROOT
HETATM    1  C7  UNL     1      23.724   4.145  50.562  1.00  0.00     0.142 A 
HETATM    2  N3  UNL     1      22.572   4.212  51.256  1.00  0.00    -0.224 NA
HETATM    3  C8  UNL     1      21.974   5.414  51.475  1.00  0.00     0.236 A 
HETATM    4  N4  UNL     1      22.562   6.521  50.982  1.00  0.00    -0.241 NA
HETATM    5  C9  UNL     1      23.731   6.471  50.275  1.00  0.00     0.075 A 
HETATM    6  C10 UNL     1      24.335   7.603  49.769  1.00  0.00     0.072 A 
HETATM    7  C11 UNL     1      25.517   7.556  49.055  1.00  0.00     0.103 A 
HETATM    8  C13 UNL     1      26.090   6.317  48.856  1.00  0.00     0.102 A 
HETATM    9  C15 UNL     1      25.530   5.151  49.338  1.00  0.00     0.057 A 
HETATM   10  C16 UNL     1      24.351   5.260  50.044  1.00  0.00     0.042 A 
ENDROOT
BRANCH   1  11
HETATM   11  N2  UNL     1      24.262   2.838  50.392  1.00  0.00    -0.340 N 
HETATM   12  H10 UNL     1      24.279   2.205  49.588  1.00  0.00     0.167 HD
BRANCH  11  13
HETATM   13  C6  UNL     1      24.915   2.196  51.456  1.00  0.00     0.035 A 
HETATM   14  C5  UNL     1      24.305   1.097  52.203  1.00  0.00     0.046 A 
HETATM   15  C4  UNL     1      24.850   0.442  53.214  1.00  0.00     0.093 A 
HETATM   16  N1  UNL     1      26.154   0.843  53.612  1.00  0.00    -0.340 N 
HETATM   17  C18 UNL     1      26.910   1.925  52.974  1.00  0.00     0.247 A 
HETATM   18  C17 UNL     1      26.135   2.529  51.873  1.00  0.00     0.055 A 
BRANCH  16  19
HETATM   19  C3  UNL     1      26.766   0.135  54.719  1.00  0.00     0.295 C 
BRANCH  19  20
HETATM   20  O1  UNL     1      28.127   0.385  54.772  1.00  0.00    -0.372 OA
BRANCH  20  21
HETATM   21  C2  UNL     1      28.881  -0.667  54.247  1.00  0.00     0.165 C 
HETATM   22  C1  UNL     1      30.027  -0.154  53.404  1.00  0.00     0.033 C 
ENDBRANCH  20  21
ENDBRANCH  19  20
ENDBRANCH  16  19
BRANCH  17  23
HETATM   23  O4  UNL     1      27.221   2.824  53.982  1.00  0.00    -0.373 OA
HETATM   24  H22 UNL     1      27.893   3.450  53.654  1.00  0.00     0.212 HD
ENDBRANCH  17  23
ENDBRANCH  11  13
ENDBRANCH   1  11
BRANCH   8  25
HETATM   25  O3  UNL     1      27.277   6.252  48.140  1.00  0.00    -0.353 OA
HETATM   26  C14 UNL     1      28.243   5.239  48.460  1.00  0.00     0.210 C 
ENDBRANCH   8  25
BRANCH   7  27
HETATM   27  O2  UNL     1      26.138   8.673  48.540  1.00  0.00    -0.353 OA
HETATM   28  C12 UNL     1      25.526   9.623  47.723  1.00  0.00     0.210 C 
ENDBRANCH   7  27
TORSDOF 8
ENDMDL
MODEL 8
REMARK VINA RESULT:      -6.6      2.513      3.671
REMARK  8 active torsions:
REMARK  status: ('A' for Active; 'I' for Inactive)
REMARK    1  A    between atoms: C2_2  and  O1_3 
REMARK    2  A    between atoms: O1_3  and  C3_4 
REMARK    3  A    between atoms: C3_4  and  N1_5 
REMARK    4  A    between atoms: C6_8  and  N2_9 
REMARK    5  A    between atoms: N2_9  and  C7_10 
REMARK    6  A    between atoms: C11_16  and  O2_17 
REMARK    7  A    between atoms: C13_19  and  O3_20 
REMARK    8  A    between atoms: C18_25  and  O4_26 
ROOT
HETATM    1  C7  UNL     1      22.625   4.740  51.970  1.00  0.00     0.142 A 
HETATM    2  N3  UNL     1      21.505   5.247  51.420  1.00  0.00    -0.224 NA
HETATM    3  C8  UNL     1      20.456   4.430  51.130  1.00  0.00     0.236 A 
HETATM    4  N4  UNL     1      20.570   3.117  51.407  1.00  0.00    -0.241 NA
HETATM    5  C9  UNL     1      21.699   2.587  51.965  1.00  0.00     0.075 A 
HETATM    6  C10 UNL     1      21.819   1.242  52.250  1.00  0.00     0.072 A 
HETATM    7  C11 UNL     1      22.959   0.703  52.813  1.00  0.00     0.103 A 
HETATM    8  C13 UNL     1      23.999   1.565  53.091  1.00  0.00     0.102 A 
HETATM    9  C15 UNL     1      23.935   2.919  52.829  1.00  0.00     0.057 A 
HETATM   10  C16 UNL     1      22.773   3.400  52.266  1.00  0.00     0.042 A 
ENDROOT
BRANCH   1  11
HETATM   11  N2  UNL     1      23.659   5.682  52.232  1.00  0.00    -0.340 N 
HETATM   12  H10 UNL     1      23.962   6.142  53.095  1.00  0.00     0.167 HD
BRANCH  11  13
HETATM   13  C6  UNL     1      24.483   6.139  51.191  1.00  0.00     0.035 A 
HETATM   14  C5  UNL     1      24.923   5.270  50.100  1.00  0.00     0.046 A 
HETATM   15  C4  UNL     1      25.696   5.621  49.086  1.00  0.00     0.093 A 
HETATM   16  N1  UNL     1      26.141   6.971  49.052  1.00  0.00    -0.340 N 
HETATM   17  C18 UNL     1      25.795   7.974  50.064  1.00  0.00     0.247 A 
HETATM   18  C17 UNL     1      24.930   7.390  51.108  1.00  0.00     0.055 A 
BRANCH  16  19
HETATM   19  C3  UNL     1      26.989   7.371  47.947  1.00  0.00     0.295 C 
BRANCH  19  20
HETATM   20  O1  UNL     1      28.298   7.535  48.365  1.00  0.00    -0.372 OA
BRANCH  20  21
HETATM   21  C2  UNL     1      29.199   6.803  47.588  1.00  0.00     0.165 C 
HETATM   22  C1  UNL     1      29.388   5.406  48.137  1.00  0.00     0.033 C 
ENDBRANCH  20  21
ENDBRANCH  19  20
ENDBRANCH  16  19
BRANCH  17  23
HETATM   23  O4  UNL     1      26.998   8.455  50.555  1.00  0.00    -0.373 OA
HETATM   24  H22 UNL     1      26.832   9.277  51.055  1.00  0.00     0.212 HD
ENDBRANCH  17  23
ENDBRANCH  11  13
ENDBRANCH   1  11
BRANCH   8  25
HETATM   25  O3  UNL     1      25.152   1.040  53.659  1.00  0.00    -0.353 OA
HETATM   26  C14 UNL     1      26.340   1.843  53.723  1.00  0.00     0.210 C 
ENDBRANCH   8  25
BRANCH   7  27
HETATM   27  O2  UNL     1      23.101  -0.636  53.106  1.00  0.00    -0.353 OA
HETATM   28  C12 UNL     1      22.141  -1.421  53.744  1.00  0.00     0.210 C 
ENDBRANCH   7  27
TORSDOF 8
ENDMDL
MODEL 9
REMARK VINA RESULT:      -6.5      3.930      7.182
REMARK  8 active torsions:
REMARK  status: ('A' for Active; 'I' for Inactive)
REMARK    1  A    between atoms: C2_2  and  O1_3 
REMARK    2  A    between atoms: O1_3  and  C3_4 
REMARK    3  A    between atoms: C3_4  and  N1_5 
REMARK    4  A    between atoms: C6_8  and  N2_9 
REMARK    5  A    between atoms: N2_9  and  C7_10 
REMARK    6  A    between atoms: C11_16  and  O2_17 
REMARK    7  A    between atoms: C13_19  and  O3_20 
REMARK    8  A    between atoms: C18_25  and  O4_26 
ROOT
HETATM    1  C7  UNL     1      22.522   2.279  50.909  1.00  0.00     0.142 A 
HETATM    2  N3  UNL     1      21.977   1.107  50.530  1.00  0.00    -0.224 NA
HETATM    3  C8  UNL     1      21.603   0.914  49.236  1.00  0.00     0.236 A 
HETATM    4  N4  UNL     1      21.793   1.917  48.358  1.00  0.00    -0.241 NA
HETATM    5  C9  UNL     1      22.345   3.111  48.726  1.00  0.00     0.075 A 
HETATM    6  C10 UNL     1      22.541   4.141  47.828  1.00  0.00     0.072 A 
HETATM    7  C11 UNL     1      23.098   5.350  48.196  1.00  0.00     0.103 A 
HETATM    8  C13 UNL     1      23.463   5.504  49.518  1.00  0.00     0.102 A 
HETATM    9  C15 UNL     1      23.291   4.510  50.460  1.00  0.00     0.057 A 
HETATM   10  C16 UNL     1      22.730   3.325  50.034  1.00  0.00     0.042 A 
ENDROOT
BRANCH   1  11
HETATM   11  N2  UNL     1      22.876   2.374  52.285  1.00  0.00    -0.340 N 
HETATM   12  H10 UNL     1      22.406   2.807  53.083  1.00  0.00     0.167 HD
BRANCH  11  13
HETATM   13  C6  UNL     1      24.073   1.804  52.750  1.00  0.00     0.035 A 
HETATM   14  C5  UNL     1      24.123   0.478  53.365  1.00  0.00     0.046 A 
HETATM   15  C4  UNL     1      25.203  -0.127  53.827  1.00  0.00     0.093 A 
HETATM   16  N1  UNL     1      26.433   0.576  53.715  1.00  0.00    -0.340 N 
HETATM   17  C18 UNL     1      26.563   1.913  53.126  1.00  0.00     0.247 A 
HETATM   18  C17 UNL     1      25.252   2.416  52.672  1.00  0.00     0.055 A 
BRANCH  16  19
HETATM   19  C3  UNL     1      27.628  -0.074  54.217  1.00  0.00     0.295 C 
BRANCH  19  20
HETATM   20  O1  UNL     1      27.743  -1.355  53.705  1.00  0.00    -0.372 OA
BRANCH  20  21
HETATM   21  C2  UNL     1      29.026  -1.619  53.220  1.00  0.00     0.165 C 
HETATM   22  C1  UNL     1      29.977  -0.487  53.538  1.00  0.00     0.033 C 
ENDBRANCH  20  21
ENDBRANCH  19  20
ENDBRANCH  16  19
BRANCH  17  23
HETATM   23  O4  UNL     1      27.147   2.707  54.100  1.00  0.00    -0.373 OA
HETATM   24  H22 UNL     1      26.815   3.620  54.007  1.00  0.00     0.212 HD
ENDBRANCH  17  23
ENDBRANCH  11  13
ENDBRANCH   1  11
BRANCH   8  25
HETATM   25  O3  UNL     1      24.025   6.713  49.905  1.00  0.00    -0.353 OA
HETATM   26  C14 UNL     1      23.213   7.690  50.574  1.00  0.00     0.210 C 
ENDBRANCH   8  25
BRANCH   7  27
HETATM   27  O2  UNL     1      23.303   6.391  47.317  1.00  0.00    -0.353 OA
HETATM   28  C12 UNL     1      22.576   6.604  46.146  1.00  0.00     0.210 C 
ENDBRANCH   7  27
TORSDOF 8
ENDMDL
