MODEL 1
REMARK VINA RESULT:      -8.8      0.000      0.000
REMARK  3 active torsions:
REMARK  status: ('A' for Active; 'I' for Inactive)
REMARK    1  A    between atoms: C5_9  and  C6_10 
REMARK    2  A    between atoms: C8_12  and  C9_13 
REMARK    3  A    between atoms: C9_13  and  C10_14 
ROOT
HETATM    1  C6  UNL     1      27.068   1.616  52.811  1.00  0.00     0.082 C 
HETATM    2  C7  UNL     1      26.830   2.017  51.387  1.00  0.00     0.011 C 
HETATM    3  C8  UNL     1      25.753   2.787  51.276  1.00  0.00     0.006 C 
HETATM    4  N4  UNL     1      25.215   2.946  52.602  1.00  0.00    -0.392 N 
HETATM    5  C16 UNL     1      25.717   1.827  53.414  1.00  0.00     0.134 C 
HETATM    6  H15 UNL     1      24.573   3.709  52.970  1.00  0.00     0.159 HD
ENDROOT
BRANCH   1   7
HETATM    7  C5  UNL     1      27.597   0.251  52.939  1.00  0.00     0.077 C 
HETATM    8  C1  UNL     1      28.925   0.155  53.542  1.00  0.00     0.138 C 
HETATM    9  F1  UNL     1      29.410   1.355  53.927  1.00  0.00    -0.204 F 
HETATM   10  C2  UNL     1      29.760  -0.819  53.799  1.00  0.00     0.033 C 
HETATM   11  C3  UNL     1      29.832  -2.303  53.637  1.00  0.00     0.135 C 
HETATM   12  N1  UNL     1      28.865  -2.651  52.610  1.00  0.00    -0.256 NA
HETATM   13  N2  UNL     1      27.573  -2.742  53.120  1.00  0.00    -0.241 NA
HETATM   14  H4  UNL     1      29.151  -3.439  52.008  1.00  0.00     0.141 HD
HETATM   15  C4  UNL     1      26.622  -2.011  52.299  1.00  0.00     0.253 C 
HETATM   16  H5  UNL     1      27.260  -3.703  53.331  1.00  0.00     0.142 HD
HETATM   17  N3  UNL     1      26.751  -0.580  52.480  1.00  0.00    -0.275 NA
ENDBRANCH   1   7
BRANCH   3  18
HETATM   18  C9  UNL     1      25.072   3.453  50.114  1.00  0.00     0.096 C 
BRANCH  18  19
HETATM   19  C10 UNL     1      25.765   4.707  49.719  1.00  0.00    -0.031 A 
HETATM   20  C11 UNL     1      26.904   4.603  48.914  1.00  0.00     0.011 A 
HETATM   21  C12 UNL     1      27.664   5.669  48.459  1.00  0.00     0.024 A 
HETATM   22  C13 UNL     1      27.246   6.926  48.840  1.00  0.00     0.035 A 
HETATM   23 CL1  UNL     1      28.175   8.298  48.288  1.00  0.00    -0.084 Cl
HETATM   24  C14 UNL     1      26.108   7.052  49.645  1.00  0.00     0.048 A 
HETATM   25  C15 UNL     1      25.368   5.976  50.086  1.00  0.00     0.042 A 
HETATM   26 CL2  UNL     1      23.959   6.140  51.083  1.00  0.00    -0.084 Cl
ENDBRANCH  18  19
ENDBRANCH   3  18
TORSDOF 3
ENDMDL
MODEL 2
REMARK VINA RESULT:      -8.5      2.868      4.570
REMARK  3 active torsions:
REMARK  status: ('A' for Active; 'I' for Inactive)
REMARK    1  A    between atoms: C5_9  and  C6_10 
REMARK    2  A    between atoms: C8_12  and  C9_13 
REMARK    3  A    between atoms: C9_13  and  C10_14 
ROOT
HETATM    1  C6  UNL     1      27.048   1.573  52.745  1.00  0.00     0.082 C 
HETATM    2  C7  UNL     1      26.205   1.727  51.516  1.00  0.00     0.011 C 
HETATM    3  C8  UNL     1      25.181   2.545  51.732  1.00  0.00     0.006 C 
HETATM    4  N4  UNL     1      25.277   2.980  53.102  1.00  0.00    -0.392 N 
HETATM    5  C16 UNL     1      26.096   1.991  53.818  1.00  0.00     0.134 C 
HETATM    6  H15 UNL     1      24.853   3.844  53.554  1.00  0.00     0.159 HD
ENDROOT
BRANCH   1   7
HETATM    7  C5  UNL     1      27.594   0.216  52.896  1.00  0.00     0.077 C 
HETATM    8  C1  UNL     1      28.919   0.147  53.508  1.00  0.00     0.138 C 
HETATM    9  F1  UNL     1      29.387   1.358  53.878  1.00  0.00    -0.204 F 
HETATM   10  C2  UNL     1      29.765  -0.813  53.784  1.00  0.00     0.033 C 
HETATM   11  C3  UNL     1      29.858  -2.298  53.643  1.00  0.00     0.135 C 
HETATM   12  N1  UNL     1      28.902  -2.673  52.616  1.00  0.00    -0.256 NA
HETATM   13  N2  UNL     1      27.609  -2.773  53.119  1.00  0.00    -0.241 NA
HETATM   14  H4  UNL     1      29.202  -3.465  52.027  1.00  0.00     0.141 HD
HETATM   15  C4  UNL     1      26.653  -2.068  52.282  1.00  0.00     0.253 C 
HETATM   16  H5  UNL     1      27.306  -3.735  53.343  1.00  0.00     0.142 HD
HETATM   17  N3  UNL     1      26.762  -0.632  52.443  1.00  0.00    -0.275 NA
ENDBRANCH   1   7
BRANCH   3  18
HETATM   18  C9  UNL     1      24.052   3.040  50.874  1.00  0.00     0.096 C 
BRANCH  18  19
HETATM   19  C10 UNL     1      22.757   2.426  51.263  1.00  0.00    -0.031 A 
HETATM   20  C11 UNL     1      22.531   1.091  50.913  1.00  0.00     0.011 A 
HETATM   21  C12 UNL     1      21.382   0.371  51.198  1.00  0.00     0.024 A 
HETATM   22  C13 UNL     1      20.393   1.042  51.884  1.00  0.00     0.035 A 
HETATM   23 CL1  UNL     1      18.927   0.171  52.265  1.00  0.00    -0.084 Cl
HETATM   24  C14 UNL     1      20.598   2.378  52.244  1.00  0.00     0.048 A 
HETATM   25  C15 UNL     1      21.751   3.075  51.948  1.00  0.00     0.042 A 
HETATM   26 CL2  UNL     1      21.998   4.731  52.397  1.00  0.00    -0.084 Cl
ENDBRANCH  18  19
ENDBRANCH   3  18
TORSDOF 3
ENDMDL
MODEL 3
REMARK VINA RESULT:      -8.2      3.073      3.624
REMARK  3 active torsions:
REMARK  status: ('A' for Active; 'I' for Inactive)
REMARK    1  A    between atoms: C5_9  and  C6_10 
REMARK    2  A    between atoms: C8_12  and  C9_13 
REMARK    3  A    between atoms: C9_13  and  C10_14 
ROOT
HETATM    1  C6  UNL     1      26.664   1.376  52.594  1.00  0.00     0.082 C 
HETATM    2  C7  UNL     1      25.319   1.205  51.955  1.00  0.00     0.011 C 
HETATM    3  C8  UNL     1      24.440   2.075  52.440  1.00  0.00     0.006 C 
HETATM    4  N4  UNL     1      25.136   2.870  53.419  1.00  0.00    -0.392 N 
HETATM    5  C16 UNL     1      26.309   2.098  53.854  1.00  0.00     0.134 C 
HETATM    6  H15 UNL     1      24.886   3.835  53.788  1.00  0.00     0.159 HD
ENDROOT
BRANCH   1   7
HETATM    7  C5  UNL     1      27.370   0.102  52.788  1.00  0.00     0.077 C 
HETATM    8  C1  UNL     1      28.700   0.215  53.383  1.00  0.00     0.138 C 
HETATM    9  F1  UNL     1      29.022   1.487  53.701  1.00  0.00    -0.204 F 
HETATM   10  C2  UNL     1      29.657  -0.625  53.683  1.00  0.00     0.033 C 
HETATM   11  C3  UNL     1      29.926  -2.093  53.598  1.00  0.00     0.135 C 
HETATM   12  N1  UNL     1      29.012  -2.620  52.600  1.00  0.00    -0.256 NA
HETATM   13  N2  UNL     1      27.744  -2.853  53.125  1.00  0.00    -0.241 NA
HETATM   14  H4  UNL     1      29.398  -3.393  52.037  1.00  0.00     0.141 HD
HETATM   15  C4  UNL     1      26.703  -2.300  52.275  1.00  0.00     0.253 C 
HETATM   16  H5  UNL     1      27.562  -3.835  53.389  1.00  0.00     0.142 HD
HETATM   17  N3  UNL     1      26.641  -0.857  52.380  1.00  0.00    -0.275 NA
ENDBRANCH   1   7
BRANCH   3  18
HETATM   18  C9  UNL     1      22.987   2.341  52.165  1.00  0.00     0.096 C 
BRANCH  18  19
HETATM   19  C10 UNL     1      22.719   2.462  50.708  1.00  0.00    -0.031 A 
HETATM   20  C11 UNL     1      23.258   3.559  50.030  1.00  0.00     0.011 A 
HETATM   21  C12 UNL     1      23.103   3.821  48.677  1.00  0.00     0.024 A 
HETATM   22  C13 UNL     1      22.354   2.913  47.960  1.00  0.00     0.035 A 
HETATM   23 CL1  UNL     1      22.134   3.204  46.251  1.00  0.00    -0.084 Cl
HETATM   24  C14 UNL     1      21.806   1.808  48.620  1.00  0.00     0.048 A 
HETATM   25  C15 UNL     1      21.973   1.569  49.967  1.00  0.00     0.042 A 
HETATM   26 CL2  UNL     1      21.290   0.197  50.778  1.00  0.00    -0.084 Cl
ENDBRANCH  18  19
ENDBRANCH   3  18
TORSDOF 3
ENDMDL
MODEL 4
REMARK VINA RESULT:      -8.1      1.508      1.794
REMARK  3 active torsions:
REMARK  status: ('A' for Active; 'I' for Inactive)
REMARK    1  A    between atoms: C5_9  and  C6_10 
REMARK    2  A    between atoms: C8_12  and  C9_13 
REMARK    3  A    between atoms: C9_13  and  C10_14 
ROOT
HETATM    1  C6  UNL     1      25.423   0.611  53.299  1.00  0.00     0.082 C 
HETATM    2  C7  UNL     1      25.395   1.511  52.101  1.00  0.00     0.011 C 
HETATM    3  C8  UNL     1      24.156   1.683  51.655  1.00  0.00     0.006 C 
HETATM    4  N4  UNL     1      23.292   0.918  52.517  1.00  0.00    -0.392 N 
HETATM    5  C16 UNL     1      24.121  -0.110  53.165  1.00  0.00     0.134 C 
HETATM    6  H15 UNL     1      22.249   1.037  52.685  1.00  0.00     0.159 HD
ENDROOT
BRANCH   1   7
HETATM    7  C5  UNL     1      26.610  -0.255  53.335  1.00  0.00     0.077 C 
HETATM    8  C1  UNL     1      27.762   0.302  54.040  1.00  0.00     0.138 C 
HETATM    9  F1  UNL     1      27.505   1.510  54.586  1.00  0.00    -0.204 F 
HETATM   10  C2  UNL     1      28.988  -0.091  54.271  1.00  0.00     0.033 C 
HETATM   11  C3  UNL     1      29.864  -1.264  53.966  1.00  0.00     0.135 C 
HETATM   12  N1  UNL     1      29.265  -1.938  52.828  1.00  0.00    -0.256 NA
HETATM   13  N2  UNL     1      28.223  -2.779  53.209  1.00  0.00    -0.241 NA
HETATM   14  H4  UNL     1      29.946  -2.358  52.177  1.00  0.00     0.141 HD
HETATM   15  C4  UNL     1      27.043  -2.576  52.385  1.00  0.00     0.253 C 
HETATM   16  H5  UNL     1      28.482  -3.775  53.294  1.00  0.00     0.142 HD
HETATM   17  N3  UNL     1      26.365  -1.341  52.720  1.00  0.00    -0.275 NA
ENDBRANCH   1   7
BRANCH   3  18
HETATM   18  C9  UNL     1      23.564   2.462  50.515  1.00  0.00     0.096 C 
BRANCH  18  19
HETATM   19  C10 UNL     1      24.220   3.786  50.358  1.00  0.00    -0.031 A 
HETATM   20  C11 UNL     1      25.306   3.883  49.482  1.00  0.00     0.011 A 
HETATM   21  C12 UNL     1      26.026   5.038  49.222  1.00  0.00     0.024 A 
HETATM   22  C13 UNL     1      25.625   6.174  49.892  1.00  0.00     0.035 A 
HETATM   23 CL1  UNL     1      26.507   7.652  49.593  1.00  0.00    -0.084 Cl
HETATM   24  C14 UNL     1      24.542   6.099  50.773  1.00  0.00     0.048 A 
HETATM   25  C15 UNL     1      23.840   4.938  51.016  1.00  0.00     0.042 A 
HETATM   26 CL2  UNL     1      22.498   4.853  52.111  1.00  0.00    -0.084 Cl
ENDBRANCH  18  19
ENDBRANCH   3  18
TORSDOF 3
ENDMDL
MODEL 5
REMARK VINA RESULT:      -8.1      4.124      7.381
REMARK  3 active torsions:
REMARK  status: ('A' for Active; 'I' for Inactive)
REMARK    1  A    between atoms: C5_9  and  C6_10 
REMARK    2  A    between atoms: C8_12  and  C9_13 
REMARK    3  A    between atoms: C9_13  and  C10_14 
ROOT
HETATM    1  C6  UNL     1      25.093   4.130  50.133  1.00  0.00     0.082 C 
HETATM    2  C7  UNL     1      25.674   3.312  51.247  1.00  0.00     0.011 C 
HETATM    3  C8  UNL     1      24.742   2.961  52.125  1.00  0.00     0.006 C 
HETATM    4  N4  UNL     1      23.498   3.515  51.657  1.00  0.00    -0.392 N 
HETATM    5  C16 UNL     1      23.828   4.627  50.753  1.00  0.00     0.134 C 
HETATM    6  H15 UNL     1      22.506   3.211  51.892  1.00  0.00     0.159 HD
ENDROOT
BRANCH   1   7
HETATM    7  C5  UNL     1      26.006   5.182  49.661  1.00  0.00     0.077 C 
HETATM    8  C1  UNL     1      27.170   4.703  48.920  1.00  0.00     0.138 C 
HETATM    9  F1  UNL     1      27.169   3.363  48.754  1.00  0.00    -0.204 F 
HETATM   10  C2  UNL     1      28.219   5.265  48.375  1.00  0.00     0.033 C 
HETATM   11  C3  UNL     1      28.794   6.634  48.206  1.00  0.00     0.135 C 
HETATM   12  N1  UNL     1      28.181   7.465  49.227  1.00  0.00    -0.256 NA
HETATM   13  N2  UNL     1      26.921   7.917  48.845  1.00  0.00    -0.241 NA
HETATM   14  H4  UNL     1      28.804   8.192  49.613  1.00  0.00     0.141 HD
HETATM   15  C4  UNL     1      25.939   7.715  49.897  1.00  0.00     0.253 C 
HETATM   16  H5  UNL     1      26.905   8.877  48.464  1.00  0.00     0.142 HD
HETATM   17  N3  UNL     1      25.565   6.321  50.015  1.00  0.00    -0.275 NA
ENDBRANCH   1   7
BRANCH   3  18
HETATM   18  C9  UNL     1      24.766   2.162  53.397  1.00  0.00     0.096 C 
BRANCH  18  19
HETATM   19  C10 UNL     1      25.802   1.097  53.355  1.00  0.00    -0.031 A 
HETATM   20  C11 UNL     1      27.142   1.477  53.478  1.00  0.00     0.011 A 
HETATM   21  C12 UNL     1      28.226   0.613  53.459  1.00  0.00     0.024 A 
HETATM   22  C13 UNL     1      27.938  -0.726  53.306  1.00  0.00     0.035 A 
HETATM   23 CL1  UNL     1      29.276  -1.850  53.277  1.00  0.00    -0.084 Cl
HETATM   24  C14 UNL     1      26.605  -1.128  53.181  1.00  0.00     0.048 A 
HETATM   25  C15 UNL     1      25.542  -0.250  53.203  1.00  0.00     0.042 A 
HETATM   26 CL2  UNL     1      23.891  -0.755  53.047  1.00  0.00    -0.084 Cl
ENDBRANCH  18  19
ENDBRANCH   3  18
TORSDOF 3
ENDMDL
MODEL 6
REMARK VINA RESULT:      -8.1      4.533      6.430
REMARK  3 active torsions:
REMARK  status: ('A' for Active; 'I' for Inactive)
REMARK    1  A    between atoms: C5_9  and  C6_10 
REMARK    2  A    between atoms: C8_12  and  C9_13 
REMARK    3  A    between atoms: C9_13  and  C10_14 
ROOT
HETATM    1  C6  UNL     1      25.358   0.797  51.995  1.00  0.00     0.082 C 
HETATM    2  C7  UNL     1      24.288   0.973  53.030  1.00  0.00     0.011 C 
HETATM    3  C8  UNL     1      23.326   1.779  52.597  1.00  0.00     0.006 C 
HETATM    4  N4  UNL     1      23.689   2.185  51.264  1.00  0.00    -0.392 N 
HETATM    5  C16 UNL     1      25.142   1.997  51.131  1.00  0.00     0.134 C 
HETATM    6  H15 UNL     1      23.062   2.556  50.489  1.00  0.00     0.159 HD
ENDROOT
BRANCH   1   7
HETATM    7  C5  UNL     1      26.703   0.688  52.578  1.00  0.00     0.077 C 
HETATM    8  C1  UNL     1      27.226  -0.673  52.678  1.00  0.00     0.138 C 
HETATM    9  F1  UNL     1      26.385  -1.594  52.160  1.00  0.00    -0.204 F 
HETATM   10  C2  UNL     1      28.318  -1.215  53.153  1.00  0.00     0.033 C 
HETATM   11  C3  UNL     1      29.583  -0.783  53.822  1.00  0.00     0.135 C 
HETATM   12  N1  UNL     1      29.322   0.531  54.382  1.00  0.00    -0.256 NA
HETATM   13  N2  UNL     1      29.449   1.538  53.429  1.00  0.00    -0.241 NA
HETATM   14  H4  UNL     1      29.805   0.715  55.275  1.00  0.00     0.141 HD
HETATM   15  C4  UNL     1      28.316   2.449  53.460  1.00  0.00     0.253 C 
HETATM   16  H5  UNL     1      30.356   2.032  53.442  1.00  0.00     0.142 HD
HETATM   17  N3  UNL     1      27.134   1.846  52.880  1.00  0.00    -0.275 NA
ENDBRANCH   1   7
BRANCH   3  18
HETATM   18  C9  UNL     1      22.049   2.288  53.205  1.00  0.00     0.096 C 
BRANCH  18  19
HETATM   19  C10 UNL     1      20.895   1.417  52.862  1.00  0.00    -0.031 A 
HETATM   20  C11 UNL     1      20.104   1.775  51.765  1.00  0.00     0.011 A 
HETATM   21  C12 UNL     1      18.996   1.075  51.314  1.00  0.00     0.024 A 
HETATM   22  C13 UNL     1      18.662  -0.063  52.016  1.00  0.00     0.035 A 
HETATM   23 CL1  UNL     1      17.272  -0.974  51.480  1.00  0.00    -0.084 Cl
HETATM   24  C14 UNL     1      19.440  -0.438  53.116  1.00  0.00     0.048 A 
HETATM   25  C15 UNL     1      20.539   0.274  53.548  1.00  0.00     0.042 A 
HETATM   26 CL2  UNL     1      21.498  -0.198  54.913  1.00  0.00    -0.084 Cl
ENDBRANCH  18  19
ENDBRANCH   3  18
TORSDOF 3
ENDMDL
MODEL 7
REMARK VINA RESULT:      -8.0      3.616      7.421
REMARK  3 active torsions:
REMARK  status: ('A' for Active; 'I' for Inactive)
REMARK    1  A    between atoms: C5_9  and  C6_10 
REMARK    2  A    between atoms: C8_12  and  C9_13 
REMARK    3  A    between atoms: C9_13  and  C10_14 
ROOT
HETATM    1  C6  UNL     1      24.685   3.367  50.036  1.00  0.00     0.082 C 
HETATM    2  C7  UNL     1      25.234   2.573  51.183  1.00  0.00     0.011 C 
HETATM    3  C8  UNL     1      24.380   1.634  51.573  1.00  0.00     0.006 C 
HETATM    4  N4  UNL     1      23.223   1.742  50.722  1.00  0.00    -0.392 N 
HETATM    5  C16 UNL     1      23.219   3.102  50.161  1.00  0.00     0.134 C 
HETATM    6  H15 UNL     1      22.485   1.007  50.509  1.00  0.00     0.159 HD
ENDROOT
BRANCH   1   7
HETATM    7  C5  UNL     1      25.064   4.786  50.092  1.00  0.00     0.077 C 
HETATM    8  C1  UNL     1      26.194   5.158  49.244  1.00  0.00     0.138 C 
HETATM    9  F1  UNL     1      26.659   4.124  48.511  1.00  0.00    -0.204 F 
HETATM   10  C2  UNL     1      26.867   6.259  49.023  1.00  0.00     0.033 C 
HETATM   11  C3  UNL     1      26.867   7.682  49.482  1.00  0.00     0.135 C 
HETATM   12  N1  UNL     1      26.155   7.704  50.748  1.00  0.00    -0.256 NA
HETATM   13  N2  UNL     1      24.775   7.731  50.571  1.00  0.00    -0.241 NA
HETATM   14  H4  UNL     1      26.519   8.390  51.426  1.00  0.00     0.141 HD
HETATM   15  C4  UNL     1      24.109   6.746  51.406  1.00  0.00     0.253 C 
HETATM   16  H5  UNL     1      24.349   8.669  50.647  1.00  0.00     0.142 HD
HETATM   17  N3  UNL     1      24.296   5.403  50.896  1.00  0.00    -0.275 NA
ENDBRANCH   1   7
BRANCH   3  18
HETATM   18  C9  UNL     1      24.415   0.583  52.646  1.00  0.00     0.096 C 
BRANCH  18  19
HETATM   19  C10 UNL     1      25.806   0.163  52.955  1.00  0.00    -0.031 A 
HETATM   20  C11 UNL     1      26.247  -1.066  52.455  1.00  0.00     0.011 A 
HETATM   21  C12 UNL     1      27.510  -1.605  52.650  1.00  0.00     0.024 A 
HETATM   22  C13 UNL     1      28.387  -0.852  53.401  1.00  0.00     0.035 A 
HETATM   23 CL1  UNL     1      29.989  -1.494  53.671  1.00  0.00    -0.084 Cl
HETATM   24  C14 UNL     1      27.966   0.380  53.911  1.00  0.00     0.048 A 
HETATM   25  C15 UNL     1      26.703   0.896  53.704  1.00  0.00     0.042 A 
HETATM   26 CL2  UNL     1      26.188   2.424  54.340  1.00  0.00    -0.084 Cl
ENDBRANCH  18  19
ENDBRANCH   3  18
TORSDOF 3
ENDMDL
MODEL 8
REMARK VINA RESULT:      -7.9      3.893      4.396
REMARK  3 active torsions:
REMARK  status: ('A' for Active; 'I' for Inactive)
REMARK    1  A    between atoms: C5_9  and  C6_10 
REMARK    2  A    between atoms: C8_12  and  C9_13 
REMARK    3  A    between atoms: C9_13  and  C10_14 
ROOT
HETATM    1  C6  UNL     1      23.994   1.826  52.435  1.00  0.00     0.082 C 
HETATM    2  C7  UNL     1      23.583   2.214  51.046  1.00  0.00     0.011 C 
HETATM    3  C8  UNL     1      23.948   3.459  50.765  1.00  0.00     0.006 C 
HETATM    4  N4  UNL     1      24.616   3.973  51.933  1.00  0.00    -0.392 N 
HETATM    5  C16 UNL     1      24.176   3.163  53.078  1.00  0.00     0.134 C 
HETATM    6  H15 UNL     1      25.304   4.781  52.002  1.00  0.00     0.159 HD
ENDROOT
BRANCH   1   7
HETATM    7  C5  UNL     1      23.016   0.949  53.095  1.00  0.00     0.077 C 
HETATM    8  C1  UNL     1      23.587  -0.211  53.776  1.00  0.00     0.138 C 
HETATM    9  F1  UNL     1      24.936  -0.238  53.720  1.00  0.00    -0.204 F 
HETATM   10  C2  UNL     1      23.101  -1.234  54.431  1.00  0.00     0.033 C 
HETATM   11  C3  UNL     1      21.767  -1.773  54.836  1.00  0.00     0.135 C 
HETATM   12  N1  UNL     1      20.792  -1.162  53.950  1.00  0.00    -0.256 NA
HETATM   13  N2  UNL     1      20.435   0.116  54.370  1.00  0.00    -0.241 NA
HETATM   14  H4  UNL     1      20.000  -1.775  53.704  1.00  0.00     0.141 HD
HETATM   15  C4  UNL     1      20.480   1.071  53.276  1.00  0.00     0.253 C 
HETATM   16  H5  UNL     1      19.550   0.164  54.902  1.00  0.00     0.142 HD
HETATM   17  N3  UNL     1      21.844   1.409  52.921  1.00  0.00    -0.275 NA
ENDBRANCH   1   7
BRANCH   3  18
HETATM   18  C9  UNL     1      23.796   4.334  49.553  1.00  0.00     0.096 C 
BRANCH  18  19
HETATM   19  C10 UNL     1      25.092   4.934  49.143  1.00  0.00    -0.031 A 
HETATM   20  C11 UNL     1      26.232   4.124  49.181  1.00  0.00     0.011 A 
HETATM   21  C12 UNL     1      27.512   4.525  48.833  1.00  0.00     0.024 A 
HETATM   22  C13 UNL     1      27.654   5.832  48.420  1.00  0.00     0.035 A 
HETATM   23 CL1  UNL     1      29.251   6.379  47.972  1.00  0.00    -0.084 Cl
HETATM   24  C14 UNL     1      26.527   6.659  48.375  1.00  0.00     0.048 A 
HETATM   25  C15 UNL     1      25.261   6.238  48.726  1.00  0.00     0.042 A 
HETATM   26 CL2  UNL     1      23.869   7.269  48.669  1.00  0.00    -0.084 Cl
ENDBRANCH  18  19
ENDBRANCH   3  18
TORSDOF 3
ENDMDL
MODEL 9
REMARK VINA RESULT:      -7.8      4.344      6.184
REMARK  3 active torsions:
REMARK  status: ('A' for Active; 'I' for Inactive)
REMARK    1  A    between atoms: C5_9  and  C6_10 
REMARK    2  A    between atoms: C8_12  and  C9_13 
REMARK    3  A    between atoms: C9_13  and  C10_14 
ROOT
HETATM    1  C6  UNL     1      25.075   2.357  52.200  1.00  0.00     0.082 C 
HETATM    2  C7  UNL     1      24.304   1.597  51.163  1.00  0.00     0.011 C 
HETATM    3  C8  UNL     1      23.085   2.101  51.003  1.00  0.00     0.006 C 
HETATM    4  N4  UNL     1      22.970   3.213  51.910  1.00  0.00    -0.392 N 
HETATM    5  C16 UNL     1      23.977   3.021  52.965  1.00  0.00     0.134 C 
HETATM    6  H15 UNL     1      22.301   4.038  51.867  1.00  0.00     0.159 HD
ENDROOT
BRANCH   1   7
HETATM    7  C5  UNL     1      25.955   1.494  53.002  1.00  0.00     0.077 C 
HETATM    8  C1  UNL     1      27.381   1.786  52.885  1.00  0.00     0.138 C 
HETATM    9  F1  UNL     1      27.633   2.847  52.088  1.00  0.00    -0.204 F 
HETATM   10  C2  UNL     1      28.479   1.263  53.369  1.00  0.00     0.033 C 
HETATM   11  C3  UNL     1      28.881   0.137  54.267  1.00  0.00     0.135 C 
HETATM   12  N1  UNL     1      27.762  -0.789  54.289  1.00  0.00    -0.256 NA
HETATM   13  N2  UNL     1      26.774  -0.391  55.184  1.00  0.00    -0.241 NA
HETATM   14  H4  UNL     1      28.035  -1.781  54.356  1.00  0.00     0.141 HD
HETATM   15  C4  UNL     1      25.453  -0.439  54.579  1.00  0.00     0.253 C 
HETATM   16  H5  UNL     1      26.808  -0.864  56.102  1.00  0.00     0.142 HD
HETATM   17  N3  UNL     1      25.254   0.651  53.647  1.00  0.00    -0.275 NA
ENDBRANCH   1   7
BRANCH   3  18
HETATM   18  C9  UNL     1      21.924   1.740  50.121  1.00  0.00     0.096 C 
BRANCH  18  19
HETATM   19  C10 UNL     1      20.857   1.037  50.880  1.00  0.00    -0.031 A 
HETATM   20  C11 UNL     1      21.236   0.262  51.980  1.00  0.00     0.011 A 
HETATM   21  C12 UNL     1      20.371  -0.455  52.792  1.00  0.00     0.024 A 
HETATM   22  C13 UNL     1      19.032  -0.385  52.472  1.00  0.00     0.035 A 
HETATM   23 CL1  UNL     1      17.906  -1.274  53.469  1.00  0.00    -0.084 Cl
HETATM   24  C14 UNL     1      18.632   0.385  51.375  1.00  0.00     0.048 A 
HETATM   25  C15 UNL     1      19.512   1.090  50.581  1.00  0.00     0.042 A 
HETATM   26 CL2  UNL     1      19.008   2.042  49.222  1.00  0.00    -0.084 Cl
ENDBRANCH  18  19
ENDBRANCH   3  18
TORSDOF 3
ENDMDL
