MODEL 1
REMARK VINA RESULT:      -8.4      0.000      0.000
REMARK  6 active torsions:
REMARK  status: ('A' for Active; 'I' for Inactive)
REMARK    1  A    between atoms: C5_7  and  N3_8 
REMARK    2  A    between atoms: N3_8  and  C6_9 
REMARK    3  A    between atoms: C12_16  and  N4_17 
REMARK       I    between atoms: N4_17  and  C13_18 
REMARK    4  A    between atoms: C13_18  and  C14_20 
REMARK    5  A    between atoms: C15_22  and  C16_23 
REMARK    6  A    between atoms: C16_23  and  N5_24 
ROOT
HETATM    1  C1  UNL     1      18.583  -1.072  53.409  1.00  0.00     0.038 C 
HETATM    2  C2  UNL     1      19.688  -0.424  52.636  1.00  0.00    -0.001 C 
HETATM    3  C3  UNL     1      20.906  -0.479  53.151  1.00  0.00     0.062 A 
HETATM    4  N1  UNL     1      21.129  -1.129  54.382  1.00  0.00    -0.244 NA
HETATM    5  C4  UNL     1      22.319  -1.199  54.917  1.00  0.00     0.235 A 
HETATM    6  N2  UNL     1      23.453  -0.619  54.274  1.00  0.00    -0.226 NA
HETATM    7  C5  UNL     1      23.302  -0.006  53.132  1.00  0.00     0.134 A 
HETATM    8  C12 UNL     1      22.023   0.159  52.400  1.00  0.00     0.206 A 
ENDROOT
BRANCH   8   9
HETATM    9  N4  UNL     1      21.648   1.556  52.274  1.00  0.00    -0.342 N 
HETATM   10  C13 UNL     1      21.522   2.256  51.017  1.00  0.00     0.250 C 
HETATM   11  O1  UNL     1      21.798   1.413  50.094  1.00  0.00    -0.271 OA
HETATM   12  H12 UNL     1      21.470   2.041  53.205  1.00  0.00     0.163 HD
BRANCH  10  13
HETATM   13  C14 UNL     1      21.132   3.695  51.002  1.00  0.00     0.244 A 
HETATM   14  O2  UNL     1      21.954   4.446  51.866  1.00  0.00    -0.364 OA
HETATM   15  C15 UNL     1      21.991   4.737  50.506  1.00  0.00     0.189 A 
BRANCH  15  16
HETATM   16  C16 UNL     1      23.209   4.483  49.680  1.00  0.00     0.307 C 
BRANCH  16  17
HETATM   17  N5  UNL     1      24.418   4.404  50.510  1.00  0.00     0.091 N 
HETATM   18  C17 UNL     1      25.235   5.568  50.299  1.00  0.00     0.272 C 
HETATM   19  C18 UNL     1      25.995   5.445  49.016  1.00  0.00     0.030 C 
HETATM   20  C19 UNL     1      26.932   4.279  49.048  1.00  0.00     0.003 C 
HETATM   21  C20 UNL     1      26.624   3.446  50.276  1.00  0.00     0.030 C 
HETATM   22  C21 UNL     1      25.131   3.180  50.365  1.00  0.00     0.272 C 
ENDBRANCH  16  17
ENDBRANCH  15  16
ENDBRANCH  10  13
ENDBRANCH   8   9
BRANCH   7  23
HETATM   23  N3  UNL     1      24.462   0.565  52.515  1.00  0.00    -0.342 N 
HETATM   24  H6  UNL     1      24.385   1.367  51.826  1.00  0.00     0.167 HD
BRANCH  23  25
HETATM   25  C6  UNL     1      25.789   0.119  52.765  1.00  0.00     0.034 A 
HETATM   26  C7  UNL     1      26.259  -1.164  52.642  1.00  0.00     0.029 A 
HETATM   27  C8  UNL     1      27.582  -1.427  52.927  1.00  0.00     0.004 A 
HETATM   28  C9  UNL     1      28.456  -0.428  53.335  1.00  0.00     0.019 A 
HETATM   29  C10 UNL     1      27.986   0.859  53.459  1.00  0.00     0.013 A 
HETATM   30 BR1  UNL     1      29.223   2.204  54.025  1.00  0.00    -0.051 Br
HETATM   31  C11 UNL     1      26.650   1.119  53.171  1.00  0.00     0.048 A 
ENDBRANCH  23  25
ENDBRANCH   7  23
TORSDOF 6
ENDMDL
MODEL 2
REMARK VINA RESULT:      -8.2      1.062      1.615
REMARK  6 active torsions:
REMARK  status: ('A' for Active; 'I' for Inactive)
REMARK    1  A    between atoms: C5_7  and  N3_8 
REMARK    2  A    between atoms: N3_8  and  C6_9 
REMARK    3  A    between atoms: C12_16  and  N4_17 
REMARK       I    between atoms: N4_17  and  C13_18 
REMARK    4  A    between atoms: C13_18  and  C14_20 
REMARK    5  A    between atoms: C15_22  and  C16_23 
REMARK    6  A    between atoms: C16_23  and  N5_24 
ROOT
HETATM    1  C1  UNL     1      18.676  -1.107  53.575  1.00  0.00     0.038 C 
HETATM    2  C2  UNL     1      19.729  -0.449  52.741  1.00  0.00    -0.001 C 
HETATM    3  C3  UNL     1      20.974  -0.490  53.188  1.00  0.00     0.062 A 
HETATM    4  N1  UNL     1      21.272  -1.133  54.406  1.00  0.00    -0.244 NA
HETATM    5  C4  UNL     1      22.491  -1.189  54.874  1.00  0.00     0.235 A 
HETATM    6  N2  UNL     1      23.581  -0.599  54.168  1.00  0.00    -0.226 NA
HETATM    7  C5  UNL     1      23.360   0.010  53.035  1.00  0.00     0.134 A 
HETATM    8  C12 UNL     1      22.040   0.158  52.374  1.00  0.00     0.206 A 
ENDROOT
BRANCH   8   9
HETATM    9  N4  UNL     1      21.644   1.552  52.267  1.00  0.00    -0.342 N 
HETATM   10  C13 UNL     1      21.721   2.329  51.052  1.00  0.00     0.250 C 
HETATM   11  O1  UNL     1      22.190   1.555  50.146  1.00  0.00    -0.271 OA
HETATM   12  H12 UNL     1      21.283   1.969  53.177  1.00  0.00     0.163 HD
BRANCH  10  13
HETATM   13  C14 UNL     1      21.288   3.756  51.052  1.00  0.00     0.244 A 
HETATM   14  O2  UNL     1      21.442   4.326  52.333  1.00  0.00    -0.364 OA
HETATM   15  C15 UNL     1      22.190   4.851  51.285  1.00  0.00     0.189 A 
BRANCH  15  16
HETATM   16  C16 UNL     1      23.678   4.722  51.239  1.00  0.00     0.307 C 
BRANCH  16  17
HETATM   17  N5  UNL     1      24.217   5.141  49.939  1.00  0.00     0.091 N 
HETATM   18  C17 UNL     1      24.454   3.989  49.112  1.00  0.00     0.272 C 
HETATM   19  C18 UNL     1      25.721   3.306  49.522  1.00  0.00     0.030 C 
HETATM   20  C19 UNL     1      26.906   4.201  49.339  1.00  0.00     0.003 C 
HETATM   21  C20 UNL     1      26.411   5.601  49.038  1.00  0.00     0.030 C 
HETATM   22  C21 UNL     1      25.344   6.006  50.040  1.00  0.00     0.272 C 
ENDBRANCH  16  17
ENDBRANCH  15  16
ENDBRANCH  10  13
ENDBRANCH   8   9
BRANCH   7  23
HETATM   23  N3  UNL     1      24.478   0.592  52.354  1.00  0.00    -0.342 N 
HETATM   24  H6  UNL     1      24.380   1.009  51.384  1.00  0.00     0.167 HD
BRANCH  23  25
HETATM   25  C6  UNL     1      25.788   0.661  52.902  1.00  0.00     0.034 A 
HETATM   26  C7  UNL     1      26.354   1.736  53.539  1.00  0.00     0.029 A 
HETATM   27  C8  UNL     1      27.644   1.635  54.013  1.00  0.00     0.004 A 
HETATM   28  C9  UNL     1      28.391   0.473  53.866  1.00  0.00     0.019 A 
HETATM   29  C10 UNL     1      27.824  -0.605  53.227  1.00  0.00     0.013 A 
HETATM   30 BR1  UNL     1      28.887  -2.186  53.045  1.00  0.00    -0.051 Br
HETATM   31  C11 UNL     1      26.522  -0.498  52.750  1.00  0.00     0.048 A 
ENDBRANCH  23  25
ENDBRANCH   7  23
TORSDOF 6
ENDMDL
MODEL 3
REMARK VINA RESULT:      -7.9      2.685      6.349
REMARK  6 active torsions:
REMARK  status: ('A' for Active; 'I' for Inactive)
REMARK    1  A    between atoms: C5_7  and  N3_8 
REMARK    2  A    between atoms: N3_8  and  C6_9 
REMARK    3  A    between atoms: C12_16  and  N4_17 
REMARK       I    between atoms: N4_17  and  C13_18 
REMARK    4  A    between atoms: C13_18  and  C14_20 
REMARK    5  A    between atoms: C15_22  and  C16_23 
REMARK    6  A    between atoms: C16_23  and  N5_24 
ROOT
HETATM    1  C1  UNL     1      19.921   0.490  52.041  1.00  0.00     0.038 C 
HETATM    2  C2  UNL     1      21.115   1.332  52.365  1.00  0.00    -0.001 C 
HETATM    3  C3  UNL     1      21.084   2.602  51.995  1.00  0.00     0.062 A 
HETATM    4  N1  UNL     1      19.959   3.119  51.320  1.00  0.00    -0.244 NA
HETATM    5  C4  UNL     1      19.900   4.368  50.940  1.00  0.00     0.235 A 
HETATM    6  N2  UNL     1      20.976   5.269  51.193  1.00  0.00    -0.226 NA
HETATM    7  C5  UNL     1      22.042   4.842  51.814  1.00  0.00     0.134 A 
HETATM    8  C12 UNL     1      22.261   3.460  52.306  1.00  0.00     0.206 A 
ENDROOT
BRANCH   8   9
HETATM    9  N4  UNL     1      23.384   2.822  51.642  1.00  0.00    -0.342 N 
HETATM   10  C13 UNL     1      24.711   2.720  52.205  1.00  0.00     0.250 C 
HETATM   11  O1  UNL     1      24.672   3.285  53.352  1.00  0.00    -0.271 OA
HETATM   12  H12 UNL     1      23.150   2.426  50.683  1.00  0.00     0.163 HD
BRANCH  10  13
HETATM   13  C14 UNL     1      25.795   2.043  51.435  1.00  0.00     0.244 A 
HETATM   14  O2  UNL     1      26.928   2.876  51.329  1.00  0.00    -0.364 OA
HETATM   15  C15 UNL     1      27.057   1.674  52.016  1.00  0.00     0.189 A 
BRANCH  15  16
HETATM   16  C16 UNL     1      27.311   1.633  53.488  1.00  0.00     0.307 C 
BRANCH  16  17
HETATM   17  N5  UNL     1      27.399   0.253  53.983  1.00  0.00     0.091 N 
HETATM   18  C17 UNL     1      28.534   0.115  54.855  1.00  0.00     0.272 C 
HETATM   19  C18 UNL     1      29.794   0.008  54.055  1.00  0.00     0.030 C 
HETATM   20  C19 UNL     1      29.786  -1.211  53.187  1.00  0.00     0.003 C 
HETATM   21  C20 UNL     1      28.393  -1.808  53.207  1.00  0.00     0.030 C 
HETATM   22  C21 UNL     1      27.357  -0.728  52.951  1.00  0.00     0.272 C 
ENDBRANCH  16  17
ENDBRANCH  15  16
ENDBRANCH  10  13
ENDBRANCH   8   9
BRANCH   7  23
HETATM   23  N3  UNL     1      23.103   5.774  52.051  1.00  0.00    -0.342 N 
HETATM   24  H6  UNL     1      23.477   5.951  53.027  1.00  0.00     0.167 HD
BRANCH  23  25
HETATM   25  C6  UNL     1      23.734   6.529  51.024  1.00  0.00     0.034 A 
HETATM   26  C7  UNL     1      23.354   7.763  50.564  1.00  0.00     0.029 A 
HETATM   27  C8  UNL     1      24.081   8.359  49.555  1.00  0.00     0.004 A 
HETATM   28  C9  UNL     1      25.190   7.743  48.989  1.00  0.00     0.019 A 
HETATM   29  C10 UNL     1      25.572   6.505  49.449  1.00  0.00     0.013 A 
HETATM   30 BR1  UNL     1      27.104   5.692  48.643  1.00  0.00    -0.051 Br
HETATM   31  C11 UNL     1      24.835   5.909  50.468  1.00  0.00     0.048 A 
ENDBRANCH  23  25
ENDBRANCH   7  23
TORSDOF 6
ENDMDL
MODEL 4
REMARK VINA RESULT:      -7.8      3.167      6.187
REMARK  6 active torsions:
REMARK  status: ('A' for Active; 'I' for Inactive)
REMARK    1  A    between atoms: C5_7  and  N3_8 
REMARK    2  A    between atoms: N3_8  and  C6_9 
REMARK    3  A    between atoms: C12_16  and  N4_17 
REMARK       I    between atoms: N4_17  and  C13_18 
REMARK    4  A    between atoms: C13_18  and  C14_20 
REMARK    5  A    between atoms: C15_22  and  C16_23 
REMARK    6  A    between atoms: C16_23  and  N5_24 
ROOT
HETATM    1  C1  UNL     1      21.599  -1.403  54.840  1.00  0.00     0.038 C 
HETATM    2  C2  UNL     1      22.091  -0.156  54.175  1.00  0.00    -0.001 C 
HETATM    3  C3  UNL     1      21.343   0.357  53.212  1.00  0.00     0.062 A 
HETATM    4  N1  UNL     1      20.133  -0.266  52.842  1.00  0.00    -0.244 NA
HETATM    5  C4  UNL     1      19.374   0.216  51.893  1.00  0.00     0.235 A 
HETATM    6  N2  UNL     1      19.737   1.401  51.187  1.00  0.00    -0.226 NA
HETATM    7  C5  UNL     1      20.847   2.017  51.489  1.00  0.00     0.134 A 
HETATM    8  C12 UNL     1      21.812   1.598  52.535  1.00  0.00     0.206 A 
ENDROOT
BRANCH   8   9
HETATM    9  N4  UNL     1      23.106   1.259  51.970  1.00  0.00    -0.342 N 
HETATM   10  C13 UNL     1      24.246   2.146  51.956  1.00  0.00     0.250 C 
HETATM   11  O1  UNL     1      23.877   3.233  52.521  1.00  0.00    -0.271 OA
HETATM   12  H12 UNL     1      23.153   0.280  51.555  1.00  0.00     0.163 HD
BRANCH  10  13
HETATM   13  C14 UNL     1      25.532   1.696  51.348  1.00  0.00     0.244 A 
HETATM   14  O2  UNL     1      26.524   2.688  51.484  1.00  0.00    -0.364 OA
HETATM   15  C15 UNL     1      26.726   1.466  52.116  1.00  0.00     0.189 A 
BRANCH  15  16
HETATM   16  C16 UNL     1      26.742   1.343  53.605  1.00  0.00     0.307 C 
BRANCH  16  17
HETATM   17  N5  UNL     1      27.228   0.025  54.034  1.00  0.00     0.091 N 
HETATM   18  C17 UNL     1      28.300   0.181  54.978  1.00  0.00     0.272 C 
HETATM   19  C18 UNL     1      29.573   0.523  54.269  1.00  0.00     0.030 C 
HETATM   20  C19 UNL     1      29.990  -0.574  53.341  1.00  0.00     0.003 C 
HETATM   21  C20 UNL     1      28.854  -1.570  53.228  1.00  0.00     0.030 C 
HETATM   22  C21 UNL     1      27.549  -0.844  52.952  1.00  0.00     0.272 C 
ENDBRANCH  16  17
ENDBRANCH  15  16
ENDBRANCH  10  13
ENDBRANCH   8   9
BRANCH   7  23
HETATM   23  N3  UNL     1      21.180   3.203  50.759  1.00  0.00    -0.342 N 
HETATM   24  H6  UNL     1      21.222   4.151  51.232  1.00  0.00     0.167 HD
BRANCH  23  25
HETATM   25  C6  UNL     1      21.475   3.217  49.368  1.00  0.00     0.034 A 
HETATM   26  C7  UNL     1      22.249   2.313  48.686  1.00  0.00     0.029 A 
HETATM   27  C8  UNL     1      22.436   2.474  47.330  1.00  0.00     0.004 A 
HETATM   28  C9  UNL     1      21.863   3.530  46.631  1.00  0.00     0.019 A 
HETATM   29  C10 UNL     1      21.087   4.437  47.315  1.00  0.00     0.013 A 
HETATM   30 BR1  UNL     1      20.317   5.875  46.315  1.00  0.00    -0.051 Br
HETATM   31  C11 UNL     1      20.901   4.269  48.683  1.00  0.00     0.048 A 
ENDBRANCH  23  25
ENDBRANCH   7  23
TORSDOF 6
ENDMDL
MODEL 5
REMARK VINA RESULT:      -7.8      2.803      5.774
REMARK  6 active torsions:
REMARK  status: ('A' for Active; 'I' for Inactive)
REMARK    1  A    between atoms: C5_7  and  N3_8 
REMARK    2  A    between atoms: N3_8  and  C6_9 
REMARK    3  A    between atoms: C12_16  and  N4_17 
REMARK       I    between atoms: N4_17  and  C13_18 
REMARK    4  A    between atoms: C13_18  and  C14_20 
REMARK    5  A    between atoms: C15_22  and  C16_23 
REMARK    6  A    between atoms: C16_23  and  N5_24 
ROOT
HETATM    1  C1  UNL     1      29.471   2.111  54.184  1.00  0.00     0.038 C 
HETATM    2  C2  UNL     1      28.069   2.453  53.787  1.00  0.00    -0.001 C 
HETATM    3  C3  UNL     1      27.263   1.451  53.476  1.00  0.00     0.062 A 
HETATM    4  N1  UNL     1      27.728   0.121  53.524  1.00  0.00    -0.244 NA
HETATM    5  C4  UNL     1      26.956  -0.889  53.221  1.00  0.00     0.235 A 
HETATM    6  N2  UNL     1      25.599  -0.690  52.828  1.00  0.00    -0.226 NA
HETATM    7  C5  UNL     1      25.117   0.522  52.768  1.00  0.00     0.134 A 
HETATM    8  C12 UNL     1      25.862   1.767  53.078  1.00  0.00     0.206 A 
ENDROOT
BRANCH   8   9
HETATM    9  N4  UNL     1      25.982   2.628  51.915  1.00  0.00    -0.342 N 
HETATM   10  C13 UNL     1      25.077   3.711  51.608  1.00  0.00     0.250 C 
HETATM   11  O1  UNL     1      24.199   3.736  52.539  1.00  0.00    -0.271 OA
HETATM   12  H12 UNL     1      26.809   2.395  51.287  1.00  0.00     0.163 HD
BRANCH  10  13
HETATM   13  C14 UNL     1      25.291   4.536  50.384  1.00  0.00     0.244 A 
HETATM   14  O2  UNL     1      25.325   3.723  49.232  1.00  0.00    -0.364 OA
HETATM   15  C15 UNL     1      24.308   4.666  49.342  1.00  0.00     0.189 A 
BRANCH  15  16
HETATM   16  C16 UNL     1      22.877   4.265  49.499  1.00  0.00     0.307 C 
BRANCH  16  17
HETATM   17  N5  UNL     1      22.528   3.150  48.609  1.00  0.00     0.091 N 
HETATM   18  C17 UNL     1      21.356   3.482  47.844  1.00  0.00     0.272 C 
HETATM   19  C18 UNL     1      20.126   3.322  48.680  1.00  0.00     0.030 C 
HETATM   20  C19 UNL     1      19.948   1.903  49.122  1.00  0.00     0.003 C 
HETATM   21  C20 UNL     1      21.210   1.133  48.791  1.00  0.00     0.030 C 
HETATM   22  C21 UNL     1      22.430   1.896  49.277  1.00  0.00     0.272 C 
ENDBRANCH  16  17
ENDBRANCH  15  16
ENDBRANCH  10  13
ENDBRANCH   8   9
BRANCH   7  23
HETATM   23  N3  UNL     1      23.751   0.684  52.369  1.00  0.00    -0.342 N 
HETATM   24  H6  UNL     1      23.482   1.313  51.558  1.00  0.00     0.167 HD
BRANCH  23  25
HETATM   25  C6  UNL     1      22.660   0.034  53.008  1.00  0.00     0.034 A 
HETATM   26  C7  UNL     1      22.718  -0.752  54.130  1.00  0.00     0.029 A 
HETATM   27  C8  UNL     1      21.558  -1.311  54.621  1.00  0.00     0.004 A 
HETATM   28  C9  UNL     1      20.327  -1.101  54.011  1.00  0.00     0.019 A 
HETATM   29  C10 UNL     1      20.268  -0.314  52.885  1.00  0.00     0.013 A 
HETATM   30 BR1  UNL     1      18.555  -0.051  52.076  1.00  0.00    -0.051 Br
HETATM   31  C11 UNL     1      21.442   0.249  52.394  1.00  0.00     0.048 A 
ENDBRANCH  23  25
ENDBRANCH   7  23
TORSDOF 6
ENDMDL
MODEL 6
REMARK VINA RESULT:      -7.8      1.649      5.937
REMARK  6 active torsions:
REMARK  status: ('A' for Active; 'I' for Inactive)
REMARK    1  A    between atoms: C5_7  and  N3_8 
REMARK    2  A    between atoms: N3_8  and  C6_9 
REMARK    3  A    between atoms: C12_16  and  N4_17 
REMARK       I    between atoms: N4_17  and  C13_18 
REMARK    4  A    between atoms: C13_18  and  C14_20 
REMARK    5  A    between atoms: C15_22  and  C16_23 
REMARK    6  A    between atoms: C16_23  and  N5_24 
ROOT
HETATM    1  C1  UNL     1      25.420   7.810  49.579  1.00  0.00     0.038 C 
HETATM    2  C2  UNL     1      24.890   6.649  50.359  1.00  0.00    -0.001 C 
HETATM    3  C3  UNL     1      25.455   5.470  50.156  1.00  0.00     0.062 A 
HETATM    4  N1  UNL     1      26.514   5.337  49.235  1.00  0.00    -0.244 NA
HETATM    5  C4  UNL     1      27.091   4.186  49.012  1.00  0.00     0.235 A 
HETATM    6  N2  UNL     1      26.674   3.005  49.696  1.00  0.00    -0.226 NA
HETATM    7  C5  UNL     1      25.698   3.073  50.560  1.00  0.00     0.134 A 
HETATM    8  C12 UNL     1      24.945   4.298  50.922  1.00  0.00     0.206 A 
ENDROOT
BRANCH   8   9
HETATM    9  N4  UNL     1      23.541   4.193  50.567  1.00  0.00    -0.342 N 
HETATM   10  C13 UNL     1      22.450   4.406  51.490  1.00  0.00     0.250 C 
HETATM   11  O1  UNL     1      22.972   4.690  52.623  1.00  0.00    -0.271 OA
HETATM   12  H12 UNL     1      23.371   3.940  49.547  1.00  0.00     0.163 HD
BRANCH  10  13
HETATM   13  C14 UNL     1      21.041   4.272  51.020  1.00  0.00     0.244 A 
HETATM   14  O2  UNL     1      20.875   3.094  50.262  1.00  0.00    -0.364 OA
HETATM   15  C15 UNL     1      20.166   3.216  51.452  1.00  0.00     0.189 A 
BRANCH  15  16
HETATM   16  C16 UNL     1      20.445   2.338  52.628  1.00  0.00     0.307 C 
BRANCH  16  17
HETATM   17  N5  UNL     1      21.109   1.091  52.225  1.00  0.00     0.091 N 
HETATM   18  C17 UNL     1      20.148   0.023  52.159  1.00  0.00     0.272 C 
HETATM   19  C18 UNL     1      19.832  -0.479  53.533  1.00  0.00     0.030 C 
HETATM   20  C19 UNL     1      21.046  -1.051  54.196  1.00  0.00     0.003 C 
HETATM   21  C20 UNL     1      22.261  -0.705  53.359  1.00  0.00     0.030 C 
HETATM   22  C21 UNL     1      22.253   0.773  53.012  1.00  0.00     0.272 C 
ENDBRANCH  16  17
ENDBRANCH  15  16
ENDBRANCH  10  13
ENDBRANCH   8   9
BRANCH   7  23
HETATM   23  N3  UNL     1      25.306   1.868  51.228  1.00  0.00    -0.342 N 
HETATM   24  H6  UNL     1      24.511   1.267  50.864  1.00  0.00     0.167 HD
BRANCH  23  25
HETATM   25  C6  UNL     1      25.929   1.381  52.409  1.00  0.00     0.034 A 
HETATM   26  C7  UNL     1      25.737   1.841  53.686  1.00  0.00     0.029 A 
HETATM   27  C8  UNL     1      26.427   1.253  54.725  1.00  0.00     0.004 A 
HETATM   28  C9  UNL     1      27.315   0.205  54.516  1.00  0.00     0.019 A 
HETATM   29  C10 UNL     1      27.509  -0.256  53.234  1.00  0.00     0.013 A 
HETATM   30 BR1  UNL     1      28.740  -1.700  52.990  1.00  0.00    -0.051 Br
HETATM   31  C11 UNL     1      26.810   0.340  52.190  1.00  0.00     0.048 A 
ENDBRANCH  23  25
ENDBRANCH   7  23
TORSDOF 6
ENDMDL
MODEL 7
REMARK VINA RESULT:      -7.7      2.956      6.960
REMARK  6 active torsions:
REMARK  status: ('A' for Active; 'I' for Inactive)
REMARK    1  A    between atoms: C5_7  and  N3_8 
REMARK    2  A    between atoms: N3_8  and  C6_9 
REMARK    3  A    between atoms: C12_16  and  N4_17 
REMARK       I    between atoms: N4_17  and  C13_18 
REMARK    4  A    between atoms: C13_18  and  C14_20 
REMARK    5  A    between atoms: C15_22  and  C16_23 
REMARK    6  A    between atoms: C16_23  and  N5_24 
ROOT
HETATM    1  C1  UNL     1      26.268   3.444  50.150  1.00  0.00     0.038 C 
HETATM    2  C2  UNL     1      24.926   2.894  50.516  1.00  0.00    -0.001 C 
HETATM    3  C3  UNL     1      23.976   3.761  50.826  1.00  0.00     0.062 A 
HETATM    4  N1  UNL     1      24.242   5.146  50.806  1.00  0.00    -0.244 NA
HETATM    5  C4  UNL     1      23.326   6.027  51.109  1.00  0.00     0.235 A 
HETATM    6  N2  UNL     1      22.006   5.625  51.473  1.00  0.00    -0.226 NA
HETATM    7  C5  UNL     1      21.706   4.355  51.508  1.00  0.00     0.134 A 
HETATM    8  C12 UNL     1      22.631   3.238  51.194  1.00  0.00     0.206 A 
ENDROOT
BRANCH   8   9
HETATM    9  N4  UNL     1      22.856   2.384  52.346  1.00  0.00    -0.342 N 
HETATM   10  C13 UNL     1      22.626   0.958  52.360  1.00  0.00     0.250 C 
HETATM   11  O1  UNL     1      22.205   0.639  51.194  1.00  0.00    -0.271 OA
HETATM   12  H12 UNL     1      23.213   2.902  53.205  1.00  0.00     0.163 HD
BRANCH  10  13
HETATM   13  C14 UNL     1      22.890   0.173  53.600  1.00  0.00     0.244 A 
HETATM   14  O2  UNL     1      22.919  -1.209  53.322  1.00  0.00    -0.364 OA
HETATM   15  C15 UNL     1      24.081  -0.610  53.796  1.00  0.00     0.189 A 
BRANCH  15  16
HETATM   16  C16 UNL     1      25.304  -0.484  52.947  1.00  0.00     0.307 C 
BRANCH  16  17
HETATM   17  N5  UNL     1      26.513  -0.315  53.763  1.00  0.00     0.091 N 
HETATM   18  C17 UNL     1      26.399   0.869  54.570  1.00  0.00     0.272 C 
HETATM   19  C18 UNL     1      26.672   2.088  53.746  1.00  0.00     0.030 C 
HETATM   20  C19 UNL     1      28.069   2.081  53.210  1.00  0.00     0.003 C 
HETATM   21  C20 UNL     1      28.677   0.717  53.465  1.00  0.00     0.030 C 
HETATM   22  C21 UNL     1      27.721  -0.373  53.012  1.00  0.00     0.272 C 
ENDBRANCH  16  17
ENDBRANCH  15  16
ENDBRANCH  10  13
ENDBRANCH   8   9
BRANCH   7  23
HETATM   23  N3  UNL     1      20.373   3.988  51.879  1.00  0.00    -0.342 N 
HETATM   24  H6  UNL     1      19.911   4.383  52.748  1.00  0.00     0.167 HD
BRANCH  23  25
HETATM   25  C6  UNL     1      19.567   3.083  51.135  1.00  0.00     0.034 A 
HETATM   26  C7  UNL     1      19.203   3.202  49.818  1.00  0.00     0.029 A 
HETATM   27  C8  UNL     1      18.412   2.229  49.247  1.00  0.00     0.004 A 
HETATM   28  C9  UNL     1      17.970   1.127  49.968  1.00  0.00     0.019 A 
HETATM   29  C10 UNL     1      18.334   1.006  51.289  1.00  0.00     0.013 A 
HETATM   30 BR1  UNL     1      17.704  -0.526  52.245  1.00  0.00    -0.051 Br
HETATM   31  C11 UNL     1      19.133   1.991  51.860  1.00  0.00     0.048 A 
ENDBRANCH  23  25
ENDBRANCH   7  23
TORSDOF 6
ENDMDL
MODEL 8
REMARK VINA RESULT:      -7.7      2.391      6.209
REMARK  6 active torsions:
REMARK  status: ('A' for Active; 'I' for Inactive)
REMARK    1  A    between atoms: C5_7  and  N3_8 
REMARK    2  A    between atoms: N3_8  and  C6_9 
REMARK    3  A    between atoms: C12_16  and  N4_17 
REMARK       I    between atoms: N4_17  and  C13_18 
REMARK    4  A    between atoms: C13_18  and  C14_20 
REMARK    5  A    between atoms: C15_22  and  C16_23 
REMARK    6  A    between atoms: C16_23  and  N5_24 
ROOT
HETATM    1  C1  UNL     1      25.139  -0.462  54.821  1.00  0.00     0.038 C 
HETATM    2  C2  UNL     1      24.729   0.106  53.499  1.00  0.00    -0.001 C 
HETATM    3  C3  UNL     1      25.589   0.903  52.886  1.00  0.00     0.062 A 
HETATM    4  N1  UNL     1      26.837   1.193  53.475  1.00  0.00    -0.244 NA
HETATM    5  C4  UNL     1      27.706   1.977  52.895  1.00  0.00     0.235 A 
HETATM    6  N2  UNL     1      27.430   2.578  51.631  1.00  0.00    -0.226 NA
HETATM    7  C5  UNL     1      26.290   2.344  51.041  1.00  0.00     0.134 A 
HETATM    8  C12 UNL     1      25.204   1.481  51.568  1.00  0.00     0.206 A 
ENDROOT
BRANCH   8   9
HETATM    9  N4  UNL     1      23.990   2.236  51.823  1.00  0.00    -0.342 N 
HETATM   10  C13 UNL     1      22.922   2.408  50.866  1.00  0.00     0.250 C 
HETATM   11  O1  UNL     1      23.269   1.780  49.806  1.00  0.00    -0.271 OA
HETATM   12  H12 UNL     1      23.946   2.667  52.795  1.00  0.00     0.163 HD
BRANCH  10  13
HETATM   13  C14 UNL     1      21.716   3.206  51.231  1.00  0.00     0.244 A 
HETATM   14  O2  UNL     1      20.831   3.305  50.138  1.00  0.00    -0.364 OA
HETATM   15  C15 UNL     1      20.392   2.649  51.283  1.00  0.00     0.189 A 
BRANCH  15  16
HETATM   16  C16 UNL     1      20.110   1.182  51.290  1.00  0.00     0.307 C 
BRANCH  16  17
HETATM   17  N5  UNL     1      19.396   0.774  52.507  1.00  0.00     0.091 N 
HETATM   18  C17 UNL     1      20.266   0.882  53.646  1.00  0.00     0.272 C 
HETATM   19  C18 UNL     1      21.205  -0.282  53.696  1.00  0.00     0.030 C 
HETATM   20  C19 UNL     1      20.465  -1.572  53.857  1.00  0.00     0.003 C 
HETATM   21  C20 UNL     1      18.986  -1.307  53.662  1.00  0.00     0.030 C 
HETATM   22  C21 UNL     1      18.762  -0.497  52.398  1.00  0.00     0.272 C 
ENDBRANCH  16  17
ENDBRANCH  15  16
ENDBRANCH  10  13
ENDBRANCH   8   9
BRANCH   7  23
HETATM   23  N3  UNL     1      26.047   2.964  49.773  1.00  0.00    -0.342 N 
HETATM   24  H6  UNL     1      25.680   2.410  48.947  1.00  0.00     0.167 HD
BRANCH  23  25
HETATM   25  C6  UNL     1      26.270   4.344  49.514  1.00  0.00     0.034 A 
HETATM   26  C7  UNL     1      27.307   4.886  48.798  1.00  0.00     0.029 A 
HETATM   27  C8  UNL     1      27.376   6.253  48.642  1.00  0.00     0.004 A 
HETATM   28  C9  UNL     1      26.422   7.103  49.190  1.00  0.00     0.019 A 
HETATM   29  C10 UNL     1      25.382   6.561  49.908  1.00  0.00     0.013 A 
HETATM   30 BR1  UNL     1      24.092   7.765  50.646  1.00  0.00    -0.051 Br
HETATM   31  C11 UNL     1      25.318   5.180  50.063  1.00  0.00     0.048 A 
ENDBRANCH  23  25
ENDBRANCH   7  23
TORSDOF 6
ENDMDL
MODEL 9
REMARK VINA RESULT:      -7.7      2.938      5.290
REMARK  6 active torsions:
REMARK  status: ('A' for Active; 'I' for Inactive)
REMARK    1  A    between atoms: C5_7  and  N3_8 
REMARK    2  A    between atoms: N3_8  and  C6_9 
REMARK    3  A    between atoms: C12_16  and  N4_17 
REMARK       I    between atoms: N4_17  and  C13_18 
REMARK    4  A    between atoms: C13_18  and  C14_20 
REMARK    5  A    between atoms: C15_22  and  C16_23 
REMARK    6  A    between atoms: C16_23  and  N5_24 
ROOT
HETATM    1  C1  UNL     1      24.875  -0.495  54.419  1.00  0.00     0.038 C 
HETATM    2  C2  UNL     1      24.408   0.229  53.195  1.00  0.00    -0.001 C 
HETATM    3  C3  UNL     1      25.269   1.037  52.599  1.00  0.00     0.062 A 
HETATM    4  N1  UNL     1      26.572   1.194  53.115  1.00  0.00    -0.244 NA
HETATM    5  C4  UNL     1      27.445   1.985  52.549  1.00  0.00     0.235 A 
HETATM    6  N2  UNL     1      27.117   2.728  51.376  1.00  0.00    -0.226 NA
HETATM    7  C5  UNL     1      25.924   2.619  50.857  1.00  0.00     0.134 A 
HETATM    8  C12 UNL     1      24.828   1.768  51.379  1.00  0.00     0.206 A 
ENDROOT
BRANCH   8   9
HETATM    9  N4  UNL     1      23.685   2.559  51.801  1.00  0.00    -0.342 N 
HETATM   10  C13 UNL     1      22.494   2.757  51.009  1.00  0.00     0.250 C 
HETATM   11  O1  UNL     1      22.665   2.115  49.915  1.00  0.00    -0.271 OA
HETATM   12  H12 UNL     1      23.795   2.995  52.766  1.00  0.00     0.163 HD
BRANCH  10  13
HETATM   13  C14 UNL     1      21.377   3.591  51.539  1.00  0.00     0.244 A 
HETATM   14  O2  UNL     1      21.837   4.458  52.552  1.00  0.00    -0.364 OA
HETATM   15  C15 UNL     1      21.323   5.020  51.387  1.00  0.00     0.189 A 
BRANCH  15  16
HETATM   16  C16 UNL     1      22.185   5.785  50.437  1.00  0.00     0.307 C 
BRANCH  16  17
HETATM   17  N5  UNL     1      21.427   6.235  49.262  1.00  0.00     0.091 N 
HETATM   18  C17 UNL     1      21.546   5.269  48.203  1.00  0.00     0.272 C 
HETATM   19  C18 UNL     1      22.869   5.408  47.518  1.00  0.00     0.030 C 
HETATM   20  C19 UNL     1      23.011   6.752  46.875  1.00  0.00     0.003 C 
HETATM   21  C20 UNL     1      21.870   7.633  47.343  1.00  0.00     0.030 C 
HETATM   22  C21 UNL     1      21.740   7.563  48.854  1.00  0.00     0.272 C 
ENDBRANCH  16  17
ENDBRANCH  15  16
ENDBRANCH  10  13
ENDBRANCH   8   9
BRANCH   7  23
HETATM   23  N3  UNL     1      25.630   3.381  49.680  1.00  0.00    -0.342 N 
HETATM   24  H6  UNL     1      24.865   3.086  49.007  1.00  0.00     0.167 HD
BRANCH  23  25
HETATM   25  C6  UNL     1      26.320   4.569  49.315  1.00  0.00     0.034 A 
HETATM   26  C7  UNL     1      27.527   4.650  48.669  1.00  0.00     0.029 A 
HETATM   27  C8  UNL     1      28.060   5.891  48.391  1.00  0.00     0.004 A 
HETATM   28  C9  UNL     1      27.408   7.065  48.746  1.00  0.00     0.019 A 
HETATM   29  C10 UNL     1      26.198   6.985  49.395  1.00  0.00     0.013 A 
HETATM   30 BR1  UNL     1      25.335   8.625  49.866  1.00  0.00    -0.051 Br
HETATM   31  C11 UNL     1      25.665   5.730  49.673  1.00  0.00     0.048 A 
ENDBRANCH  23  25
ENDBRANCH   7  23
TORSDOF 6
ENDMDL
