MODEL 1
REMARK VINA RESULT:      -8.4      0.000      0.000
REMARK  4 active torsions:
REMARK  status: ('A' for Active; 'I' for Inactive)
REMARK    1  A    between atoms: O1_2  and  C2_3 
REMARK    2  A    between atoms: C4_5  and  O2_6 
REMARK    3  A    between atoms: O2_6  and  C5_7 
REMARK    4  A    between atoms: C11_14  and  C12_15 
ROOT
HETATM    1  C2  UNL     1      25.728  -0.364  54.561  1.00  0.00     0.073 A 
HETATM    2  C3  UNL     1      25.529   0.382  53.389  1.00  0.00     0.074 A 
HETATM    3  C4  UNL     1      24.315   0.506  52.748  1.00  0.00     0.086 A 
HETATM    4  C10 UNL     1      23.232  -0.140  53.287  1.00  0.00     0.056 A 
HETATM    5  C11 UNL     1      21.984  -0.070  52.733  1.00  0.00     0.080 A 
HETATM    6  N2  UNL     1      21.097  -0.764  53.436  1.00  0.00    -0.241 NA
HETATM    7  C17 UNL     1      21.203  -1.463  54.506  1.00  0.00     0.234 A 
HETATM    8  N3  UNL     1      22.425  -1.506  55.011  1.00  0.00    -0.241 NA
HETATM    9  C18 UNL     1      23.453  -0.866  54.439  1.00  0.00     0.076 A 
HETATM   10  C19 UNL     1      24.629  -1.021  55.114  1.00  0.00     0.069 A 
ENDROOT
BRANCH   3  11
HETATM   11  O2  UNL     1      24.333   1.251  51.666  1.00  0.00    -0.345 OA
BRANCH  11  12
HETATM   12  C5  UNL     1      24.809   2.444  51.209  1.00  0.00     0.132 C 
HETATM   13  C6  UNL     1      26.244   2.659  50.980  1.00  0.00     0.051 C 
HETATM   14  C7  UNL     1      26.351   3.724  49.866  1.00  0.00     0.116 C 
HETATM   15  N1  UNL     1      25.727   4.949  50.292  1.00  0.00    -0.421 N 
HETATM   16  C8  UNL     1      24.428   4.817  50.821  1.00  0.00     0.116 C 
HETATM   17  H10 UNL     1      26.362   5.623  50.722  1.00  0.00     0.153 HD
HETATM   18  C9  UNL     1      24.302   3.710  51.908  1.00  0.00     0.051 C 
ENDBRANCH  11  12
ENDBRANCH   3  11
BRANCH   1  19
HETATM   19  O1  UNL     1      26.930  -0.508  55.231  1.00  0.00    -0.356 OA
HETATM   20  C1  UNL     1      28.104   0.105  54.778  1.00  0.00     0.210 C 
ENDBRANCH   1  19
BRANCH   5  21
HETATM   21  C12 UNL     1      21.750   0.704  51.472  1.00  0.00    -0.023 A 
HETATM   22  C13 UNL     1      21.121   1.790  51.849  1.00  0.00     0.011 A 
HETATM   23  C14 UNL     1      20.708   2.796  50.941  1.00  0.00     0.020 A 
HETATM   24  C15 UNL     1      21.118   2.311  49.819  1.00  0.00     0.016 A 
HETATM   25 CL1  UNL     1      21.078   2.817  48.109  1.00  0.00    -0.089 Cl
HETATM   26  C16 UNL     1      21.790   1.011  50.053  1.00  0.00     0.092 A 
ENDBRANCH   5  21
TORSDOF 4
ENDMDL
MODEL 2
REMARK VINA RESULT:      -8.3      2.777      5.584
REMARK  4 active torsions:
REMARK  status: ('A' for Active; 'I' for Inactive)
REMARK    1  A    between atoms: O1_2  and  C2_3 
REMARK    2  A    between atoms: C4_5  and  O2_6 
REMARK    3  A    between atoms: O2_6  and  C5_7 
REMARK    4  A    between atoms: C11_14  and  C12_15 
ROOT
HETATM    1  C2  UNL     1      26.534   3.850  49.526  1.00  0.00     0.073 A 
HETATM    2  C3  UNL     1      26.393   2.806  50.453  1.00  0.00     0.074 A 
HETATM    3  C4  UNL     1      25.191   2.419  51.006  1.00  0.00     0.086 A 
HETATM    4  C10 UNL     1      24.060   3.097  50.627  1.00  0.00     0.056 A 
HETATM    5  C11 UNL     1      22.820   2.783  51.109  1.00  0.00     0.080 A 
HETATM    6  N2  UNL     1      21.881   3.565  50.590  1.00  0.00    -0.241 NA
HETATM    7  C17 UNL     1      21.933   4.529  49.747  1.00  0.00     0.234 A 
HETATM    8  N3  UNL     1      23.149   4.803  49.305  1.00  0.00    -0.241 NA
HETATM    9  C18 UNL     1      24.224   4.118  49.715  1.00  0.00     0.076 A 
HETATM   10  C19 UNL     1      25.386   4.541  49.137  1.00  0.00     0.069 A 
ENDROOT
BRANCH   3  11
HETATM   11  O2  UNL     1      25.266   1.417  51.851  1.00  0.00    -0.345 OA
BRANCH  11  12
HETATM   12  C5  UNL     1      26.174   0.722  52.592  1.00  0.00     0.132 C 
HETATM   13  C6  UNL     1      26.159  -0.746  52.644  1.00  0.00     0.051 C 
HETATM   14  C7  UNL     1      27.614  -1.187  52.916  1.00  0.00     0.116 C 
HETATM   15  N1  UNL     1      28.066  -0.651  54.173  1.00  0.00    -0.421 N 
HETATM   16  C8  UNL     1      27.852   0.728  54.357  1.00  0.00     0.116 C 
HETATM   17  H10 UNL     1      27.938  -1.275  54.971  1.00  0.00     0.153 HD
HETATM   18  C9  UNL     1      26.400   1.188  54.035  1.00  0.00     0.051 C 
ENDBRANCH  11  12
ENDBRANCH   3  11
BRANCH   1  19
HETATM   19  O1  UNL     1      27.723   4.263  48.951  1.00  0.00    -0.356 OA
HETATM   20  C1  UNL     1      27.881   5.553  48.430  1.00  0.00     0.210 C 
ENDBRANCH   1  19
BRANCH   5  21
HETATM   21  C12 UNL     1      22.645   1.685  52.113  1.00  0.00    -0.023 A 
HETATM   22  C13 UNL     1      21.931   0.771  51.501  1.00  0.00     0.011 A 
HETATM   23  C14 UNL     1      21.539  -0.442  52.119  1.00  0.00     0.020 A 
HETATM   24  C15 UNL     1      22.061  -0.312  53.291  1.00  0.00     0.016 A 
HETATM   25 CL1  UNL     1      22.130  -1.288  54.782  1.00  0.00    -0.089 Cl
HETATM   26  C16 UNL     1      22.781   0.981  53.376  1.00  0.00     0.092 A 
ENDBRANCH   5  21
TORSDOF 4
ENDMDL
MODEL 3
REMARK VINA RESULT:      -8.3      2.420      4.870
REMARK  4 active torsions:
REMARK  status: ('A' for Active; 'I' for Inactive)
REMARK    1  A    between atoms: O1_2  and  C2_3 
REMARK    2  A    between atoms: C4_5  and  O2_6 
REMARK    3  A    between atoms: O2_6  and  C5_7 
REMARK    4  A    between atoms: C11_14  and  C12_15 
ROOT
HETATM    1  C2  UNL     1      20.752   0.990  51.004  1.00  0.00     0.073 A 
HETATM    2  C3  UNL     1      22.089   1.407  50.913  1.00  0.00     0.074 A 
HETATM    3  C4  UNL     1      23.082   1.014  51.784  1.00  0.00     0.086 A 
HETATM    4  C10 UNL     1      22.745   0.164  52.806  1.00  0.00     0.056 A 
HETATM    5  C11 UNL     1      23.658  -0.290  53.716  1.00  0.00     0.080 A 
HETATM    6  N2  UNL     1      23.102  -1.108  54.601  1.00  0.00    -0.241 NA
HETATM    7  C17 UNL     1      21.900  -1.530  54.746  1.00  0.00     0.234 A 
HETATM    8  N3  UNL     1      21.047  -1.068  53.848  1.00  0.00    -0.241 NA
HETATM    9  C18 UNL     1      21.425  -0.230  52.875  1.00  0.00     0.076 A 
HETATM   10  C19 UNL     1      20.404   0.125  52.041  1.00  0.00     0.069 A 
ENDROOT
BRANCH   3  11
HETATM   11  O2  UNL     1      24.272   1.509  51.528  1.00  0.00    -0.345 OA
BRANCH  11  12
HETATM   12  C5  UNL     1      24.869   2.629  51.031  1.00  0.00     0.132 C 
HETATM   13  C6  UNL     1      26.316   2.678  50.780  1.00  0.00     0.051 C 
HETATM   14  C7  UNL     1      26.525   3.692  49.634  1.00  0.00     0.116 C 
HETATM   15  N1  UNL     1      26.045   4.991  50.030  1.00  0.00    -0.421 N 
HETATM   16  C8  UNL     1      24.747   5.017  50.577  1.00  0.00     0.116 C 
HETATM   17  H10 UNL     1      26.756   5.602  50.434  1.00  0.00     0.153 HD
HETATM   18  C9  UNL     1      24.514   3.962  51.698  1.00  0.00     0.051 C 
ENDBRANCH  11  12
ENDBRANCH   3  11
BRANCH   1  19
HETATM   19  O1  UNL     1      19.731   1.362  50.146  1.00  0.00    -0.356 OA
HETATM   20  C1  UNL     1      18.492   0.712  50.150  1.00  0.00     0.210 C 
ENDBRANCH   1  19
BRANCH   5  21
HETATM   21  C12 UNL     1      25.087   0.154  53.651  1.00  0.00    -0.023 A 
HETATM   22  C13 UNL     1      25.724  -0.827  53.057  1.00  0.00     0.011 A 
HETATM   23  C14 UNL     1      27.117  -0.801  52.804  1.00  0.00     0.020 A 
HETATM   24  C15 UNL     1      27.444   0.347  53.296  1.00  0.00     0.016 A 
HETATM   25 CL1  UNL     1      28.948   1.290  53.466  1.00  0.00    -0.089 Cl
HETATM   26  C16 UNL     1      26.239   1.019  53.837  1.00  0.00     0.092 A 
ENDBRANCH   5  21
TORSDOF 4
ENDMDL
MODEL 4
REMARK VINA RESULT:      -8.1      1.635      2.110
REMARK  4 active torsions:
REMARK  status: ('A' for Active; 'I' for Inactive)
REMARK    1  A    between atoms: O1_2  and  C2_3 
REMARK    2  A    between atoms: C4_5  and  O2_6 
REMARK    3  A    between atoms: O2_6  and  C5_7 
REMARK    4  A    between atoms: C11_14  and  C12_15 
ROOT
HETATM    1  C2  UNL     1      27.061   0.711  53.493  1.00  0.00     0.073 A 
HETATM    2  C3  UNL     1      26.128   1.166  52.548  1.00  0.00     0.074 A 
HETATM    3  C4  UNL     1      24.790   0.839  52.563  1.00  0.00     0.086 A 
HETATM    4  C10 UNL     1      24.338   0.016  53.562  1.00  0.00     0.056 A 
HETATM    5  C11 UNL     1      23.028  -0.358  53.670  1.00  0.00     0.080 A 
HETATM    6  N2  UNL     1      22.828  -1.145  54.721  1.00  0.00    -0.241 NA
HETATM    7  C17 UNL     1      23.622  -1.599  55.619  1.00  0.00     0.234 A 
HETATM    8  N3  UNL     1      24.880  -1.216  55.480  1.00  0.00    -0.241 NA
HETATM    9  C18 UNL     1      25.273  -0.419  54.478  1.00  0.00     0.076 A 
HETATM   10  C19 UNL     1      26.606  -0.126  54.512  1.00  0.00     0.069 A 
ENDROOT
BRANCH   3  11
HETATM   11  O2  UNL     1      24.079   1.370  51.594  1.00  0.00    -0.345 OA
BRANCH  11  12
HETATM   12  C5  UNL     1      23.871   2.559  50.962  1.00  0.00     0.132 C 
HETATM   13  C6  UNL     1      23.299   3.713  51.669  1.00  0.00     0.051 C 
HETATM   14  C7  UNL     1      23.848   4.972  50.962  1.00  0.00     0.116 C 
HETATM   15  N1  UNL     1      23.439   4.983  49.582  1.00  0.00    -0.421 N 
HETATM   16  C8  UNL     1      23.672   3.790  48.870  1.00  0.00     0.116 C 
HETATM   17  H10 UNL     1      22.577   5.499  49.398  1.00  0.00     0.153 HD
HETATM   18  C9  UNL     1      23.167   2.512  49.602  1.00  0.00     0.051 C 
ENDBRANCH  11  12
ENDBRANCH   3  11
BRANCH   1  19
HETATM   19  O1  UNL     1      28.410   1.020  53.509  1.00  0.00    -0.356 OA
HETATM   20  C1  UNL     1      29.379   0.072  53.856  1.00  0.00     0.210 C 
ENDBRANCH   1  19
BRANCH   5  21
HETATM   21  C12 UNL     1      22.017   0.100  52.664  1.00  0.00    -0.023 A 
HETATM   22  C13 UNL     1      21.318   1.025  53.277  1.00  0.00     0.011 A 
HETATM   23  C14 UNL     1      20.245   1.714  52.662  1.00  0.00     0.020 A 
HETATM   24  C15 UNL     1      20.233   1.174  51.490  1.00  0.00     0.016 A 
HETATM   25 CL1  UNL     1      19.265   1.355  50.002  1.00  0.00    -0.089 Cl
HETATM   26  C16 UNL     1      21.311   0.162  51.396  1.00  0.00     0.092 A 
ENDBRANCH   5  21
TORSDOF 4
ENDMDL
MODEL 5
REMARK VINA RESULT:      -8.1      1.500      4.827
REMARK  4 active torsions:
REMARK  status: ('A' for Active; 'I' for Inactive)
REMARK    1  A    between atoms: O1_2  and  C2_3 
REMARK    2  A    between atoms: C4_5  and  O2_6 
REMARK    3  A    between atoms: O2_6  and  C5_7 
REMARK    4  A    between atoms: C11_14  and  C12_15 
ROOT
HETATM    1  C2  UNL     1      26.742   1.404  53.671  1.00  0.00     0.073 A 
HETATM    2  C3  UNL     1      25.383   1.093  53.508  1.00  0.00     0.074 A 
HETATM    3  C4  UNL     1      24.625   1.480  52.424  1.00  0.00     0.086 A 
HETATM    4  C10 UNL     1      25.235   2.218  51.442  1.00  0.00     0.056 A 
HETATM    5  C11 UNL     1      24.573   2.641  50.323  1.00  0.00     0.080 A 
HETATM    6  N2  UNL     1      25.370   3.325  49.511  1.00  0.00    -0.241 NA
HETATM    7  C17 UNL     1      26.609   3.646  49.592  1.00  0.00     0.234 A 
HETATM    8  N3  UNL     1      27.214   3.220  50.688  1.00  0.00    -0.241 NA
HETATM    9  C18 UNL     1      26.570   2.512  51.624  1.00  0.00     0.076 A 
HETATM   10  C19 UNL     1      27.367   2.154  52.673  1.00  0.00     0.069 A 
ENDROOT
BRANCH   3  11
HETATM   11  O2  UNL     1      23.373   1.085  52.454  1.00  0.00    -0.345 OA
BRANCH  11  12
HETATM   12  C5  UNL     1      22.515   0.338  53.205  1.00  0.00     0.132 C 
HETATM   13  C6  UNL     1      22.408  -1.116  53.027  1.00  0.00     0.051 C 
HETATM   14  C7  UNL     1      21.970  -1.691  54.392  1.00  0.00     0.116 C 
HETATM   15  N1  UNL     1      20.695  -1.142  54.773  1.00  0.00    -0.421 N 
HETATM   16  C8  UNL     1      20.589   0.260  54.692  1.00  0.00     0.116 C 
HETATM   17  H10 UNL     1      19.890  -1.708  54.501  1.00  0.00     0.153 HD
HETATM   18  C9  UNL     1      21.077   0.851  53.337  1.00  0.00     0.051 C 
ENDBRANCH  11  12
ENDBRANCH   3  11
BRANCH   1  19
HETATM   19  O1  UNL     1      27.533   1.031  54.743  1.00  0.00    -0.356 OA
HETATM   20  C1  UNL     1      28.721   0.313  54.568  1.00  0.00     0.210 C 
ENDBRANCH   1  19
BRANCH   5  21
HETATM   21  C12 UNL     1      23.118   2.337  50.135  1.00  0.00    -0.023 A 
HETATM   22  C13 UNL     1      22.496   3.457  50.411  1.00  0.00     0.011 A 
HETATM   23  C14 UNL     1      21.086   3.590  50.357  1.00  0.00     0.020 A 
HETATM   24  C15 UNL     1      20.732   2.402  49.999  1.00  0.00     0.016 A 
HETATM   25 CL1  UNL     1      19.191   1.567  49.664  1.00  0.00    -0.089 Cl
HETATM   26  C16 UNL     1      21.935   1.553  49.826  1.00  0.00     0.092 A 
ENDBRANCH   5  21
TORSDOF 4
ENDMDL
MODEL 6
REMARK VINA RESULT:      -7.5      2.616      7.003
REMARK  4 active torsions:
REMARK  status: ('A' for Active; 'I' for Inactive)
REMARK    1  A    between atoms: O1_2  and  C2_3 
REMARK    2  A    between atoms: C4_5  and  O2_6 
REMARK    3  A    between atoms: O2_6  and  C5_7 
REMARK    4  A    between atoms: C11_14  and  C12_15 
ROOT
HETATM    1  C2  UNL     1      21.447   2.396  48.774  1.00  0.00     0.073 A 
HETATM    2  C3  UNL     1      21.801   1.641  49.903  1.00  0.00     0.074 A 
HETATM    3  C4  UNL     1      22.951   1.840  50.637  1.00  0.00     0.086 A 
HETATM    4  C10 UNL     1      23.805   2.837  50.240  1.00  0.00     0.056 A 
HETATM    5  C11 UNL     1      24.964   3.120  50.906  1.00  0.00     0.080 A 
HETATM    6  N2  UNL     1      25.617   4.132  50.346  1.00  0.00    -0.241 NA
HETATM    7  C17 UNL     1      25.358   4.862  49.325  1.00  0.00     0.234 A 
HETATM    8  N3  UNL     1      24.229   4.557  48.707  1.00  0.00    -0.241 NA
HETATM    9  C18 UNL     1      23.435   3.565  49.128  1.00  0.00     0.076 A 
HETATM   10  C19 UNL     1      22.311   3.413  48.367  1.00  0.00     0.069 A 
ENDROOT
BRANCH   3  11
HETATM   11  O2  UNL     1      23.101   1.032  51.662  1.00  0.00    -0.345 OA
BRANCH  11  12
HETATM   12  C5  UNL     1      22.372   0.359  52.596  1.00  0.00     0.132 C 
HETATM   13  C6  UNL     1      21.547   1.070  53.582  1.00  0.00     0.051 C 
HETATM   14  C7  UNL     1      20.389   0.116  53.949  1.00  0.00     0.116 C 
HETATM   15  N1  UNL     1      20.911  -1.098  54.521  1.00  0.00    -0.421 N 
HETATM   16  C8  UNL     1      21.943  -1.719  53.790  1.00  0.00     0.116 C 
HETATM   17  H10 UNL     1      20.970  -1.097  55.540  1.00  0.00     0.153 HD
HETATM   18  C9  UNL     1      23.088  -0.751  53.372  1.00  0.00     0.051 C 
ENDBRANCH  11  12
ENDBRANCH   3  11
BRANCH   1  19
HETATM   19  O1  UNL     1      20.301   2.225  48.017  1.00  0.00    -0.356 OA
HETATM   20  C1  UNL     1      19.421   3.283  47.763  1.00  0.00     0.210 C 
ENDBRANCH   1  19
BRANCH   5  21
HETATM   21  C12 UNL     1      25.373   2.317  52.103  1.00  0.00    -0.023 A 
HETATM   22  C13 UNL     1      26.252   1.455  51.651  1.00  0.00     0.011 A 
HETATM   23  C14 UNL     1      26.886   0.495  52.479  1.00  0.00     0.020 A 
HETATM   24  C15 UNL     1      26.357   0.758  53.625  1.00  0.00     0.016 A 
HETATM   25 CL1  UNL     1      26.496   0.113  55.283  1.00  0.00    -0.089 Cl
HETATM   26  C16 UNL     1      25.407   1.888  53.490  1.00  0.00     0.092 A 
ENDBRANCH   5  21
TORSDOF 4
ENDMDL
MODEL 7
REMARK VINA RESULT:      -7.5      2.460      4.615
REMARK  4 active torsions:
REMARK  status: ('A' for Active; 'I' for Inactive)
REMARK    1  A    between atoms: O1_2  and  C2_3 
REMARK    2  A    between atoms: C4_5  and  O2_6 
REMARK    3  A    between atoms: O2_6  and  C5_7 
REMARK    4  A    between atoms: C11_14  and  C12_15 
ROOT
HETATM    1  C2  UNL     1      22.463  -0.732  53.508  1.00  0.00     0.073 A 
HETATM    2  C3  UNL     1      22.338   0.249  52.511  1.00  0.00     0.074 A 
HETATM    3  C4  UNL     1      23.335   1.138  52.171  1.00  0.00     0.086 A 
HETATM    4  C10 UNL     1      24.526   1.062  52.849  1.00  0.00     0.056 A 
HETATM    5  C11 UNL     1      25.579   1.890  52.579  1.00  0.00     0.080 A 
HETATM    6  N2  UNL     1      26.624   1.620  53.351  1.00  0.00    -0.241 NA
HETATM    7  C17 UNL     1      26.811   0.750  54.273  1.00  0.00     0.234 A 
HETATM    8  N3  UNL     1      25.770  -0.032  54.505  1.00  0.00    -0.241 NA
HETATM    9  C18 UNL     1      24.624   0.091  53.823  1.00  0.00     0.076 A 
HETATM   10  C19 UNL     1      23.673  -0.814  54.199  1.00  0.00     0.069 A 
ENDROOT
BRANCH   3  11
HETATM   11  O2  UNL     1      23.026   1.976  51.209  1.00  0.00    -0.345 OA
BRANCH  11  12
HETATM   12  C5  UNL     1      22.195   2.097  50.135  1.00  0.00     0.132 C 
HETATM   13  C6  UNL     1      22.720   2.333  48.784  1.00  0.00     0.051 C 
HETATM   14  C7  UNL     1      21.693   1.722  47.806  1.00  0.00     0.116 C 
HETATM   15  N1  UNL     1      20.416   2.369  47.962  1.00  0.00    -0.421 N 
HETATM   16  C8  UNL     1      19.944   2.468  49.285  1.00  0.00     0.116 C 
HETATM   17  H10 UNL     1      20.256   3.152  47.327  1.00  0.00     0.153 HD
HETATM   18  C9  UNL     1      20.993   3.036  50.286  1.00  0.00     0.051 C 
ENDBRANCH  11  12
ENDBRANCH   3  11
BRANCH   1  19
HETATM   19  O1  UNL     1      21.485  -1.640  53.873  1.00  0.00    -0.356 OA
HETATM   20  C1  UNL     1      20.125  -1.314  53.830  1.00  0.00     0.210 C 
ENDBRANCH   1  19
BRANCH   5  21
HETATM   21  C12 UNL     1      25.464   2.956  51.533  1.00  0.00    -0.023 A 
HETATM   22  C13 UNL     1      26.352   2.639  50.622  1.00  0.00     0.011 A 
HETATM   23  C14 UNL     1      26.565   3.410  49.453  1.00  0.00     0.020 A 
HETATM   24  C15 UNL     1      25.707   4.360  49.613  1.00  0.00     0.016 A 
HETATM   25 CL1  UNL     1      25.209   5.809  48.699  1.00  0.00    -0.089 Cl
HETATM   26  C16 UNL     1      24.965   4.154  50.879  1.00  0.00     0.092 A 
ENDBRANCH   5  21
TORSDOF 4
ENDMDL
MODEL 8
REMARK VINA RESULT:      -7.0      2.841      5.115
REMARK  4 active torsions:
REMARK  status: ('A' for Active; 'I' for Inactive)
REMARK    1  A    between atoms: O1_2  and  C2_3 
REMARK    2  A    between atoms: C4_5  and  O2_6 
REMARK    3  A    between atoms: O2_6  and  C5_7 
REMARK    4  A    between atoms: C11_14  and  C12_15 
ROOT
HETATM    1  C2  UNL     1      18.571  -0.638  52.703  1.00  0.00     0.073 A 
HETATM    2  C3  UNL     1      19.244   0.282  51.883  1.00  0.00     0.074 A 
HETATM    3  C4  UNL     1      20.582   0.590  52.004  1.00  0.00     0.086 A 
HETATM    4  C10 UNL     1      21.303  -0.040  52.986  1.00  0.00     0.056 A 
HETATM    5  C11 UNL     1      22.636   0.189  53.180  1.00  0.00     0.080 A 
HETATM    6  N2  UNL     1      23.119  -0.542  54.177  1.00  0.00    -0.241 NA
HETATM    7  C17 UNL     1      22.571  -1.394  54.963  1.00  0.00     0.234 A 
HETATM    8  N3  UNL     1      21.281  -1.588  54.744  1.00  0.00    -0.241 NA
HETATM    9  C18 UNL     1      20.619  -0.938  53.778  1.00  0.00     0.076 A 
HETATM   10  C19 UNL     1      19.300  -1.282  53.702  1.00  0.00     0.069 A 
ENDROOT
BRANCH   3  11
HETATM   11  O2  UNL     1      21.027   1.472  51.139  1.00  0.00    -0.345 OA
BRANCH  11  12
HETATM   12  C5  UNL     1      20.799   2.746  50.712  1.00  0.00     0.132 C 
HETATM   13  C6  UNL     1      20.520   3.833  51.661  1.00  0.00     0.051 C 
HETATM   14  C7  UNL     1      21.015   5.134  50.990  1.00  0.00     0.116 C 
HETATM   15  N1  UNL     1      20.306   5.356  49.757  1.00  0.00    -0.421 N 
HETATM   16  C8  UNL     1      20.253   4.254  48.881  1.00  0.00     0.116 C 
HETATM   17  H10 UNL     1      19.480   5.950  49.843  1.00  0.00     0.153 HD
HETATM   18  C9  UNL     1      19.803   2.929  49.562  1.00  0.00     0.051 C 
ENDBRANCH  11  12
ENDBRANCH   3  11
BRANCH   1  19
HETATM   19  O1  UNL     1      17.231  -0.973  52.609  1.00  0.00    -0.356 OA
HETATM   20  C1  UNL     1      16.445  -0.567  51.524  1.00  0.00     0.210 C 
ENDBRANCH   1  19
BRANCH   5  21
HETATM   21  C12 UNL     1      23.373   1.179  52.331  1.00  0.00    -0.023 A 
HETATM   22  C13 UNL     1      23.558   2.222  53.104  1.00  0.00     0.011 A 
HETATM   23  C14 UNL     1      24.223   3.395  52.669  1.00  0.00     0.020 A 
HETATM   24  C15 UNL     1      24.513   3.088  51.451  1.00  0.00     0.016 A 
HETATM   25 CL1  UNL     1      25.337   3.887  50.085  1.00  0.00    -0.089 Cl
HETATM   26  C16 UNL     1      24.031   1.718  51.153  1.00  0.00     0.092 A 
ENDBRANCH   5  21
TORSDOF 4
ENDMDL
MODEL 9
REMARK VINA RESULT:      -6.8      6.807     10.618
REMARK  4 active torsions:
REMARK  status: ('A' for Active; 'I' for Inactive)
REMARK    1  A    between atoms: O1_2  and  C2_3 
REMARK    2  A    between atoms: C4_5  and  O2_6 
REMARK    3  A    between atoms: O2_6  and  C5_7 
REMARK    4  A    between atoms: C11_14  and  C12_15 
ROOT
HETATM    1  C2  UNL     1      27.491   5.022  48.769  1.00  0.00     0.073 A 
HETATM    2  C3  UNL     1      28.719   5.584  48.386  1.00  0.00     0.074 A 
HETATM    3  C4  UNL     1      28.930   6.935  48.211  1.00  0.00     0.086 A 
HETATM    4  C10 UNL     1      27.876   7.785  48.423  1.00  0.00     0.056 A 
HETATM    5  C11 UNL     1      27.986   9.141  48.286  1.00  0.00     0.080 A 
HETATM    6  N2  UNL     1      26.840   9.755  48.554  1.00  0.00    -0.241 NA
HETATM    7  C17 UNL     1      25.689   9.313  48.906  1.00  0.00     0.234 A 
HETATM    8  N3  UNL     1      25.622   7.998  49.028  1.00  0.00    -0.241 NA
HETATM    9  C18 UNL     1      26.680   7.209  48.798  1.00  0.00     0.076 A 
HETATM   10  C19 UNL     1      26.415   5.883  48.987  1.00  0.00     0.069 A 
ENDROOT
BRANCH   3  11
HETATM   11  O2  UNL     1      30.151   7.263  47.855  1.00  0.00    -0.345 OA
BRANCH  11  12
HETATM   12  C5  UNL     1      31.412   6.749  47.797  1.00  0.00     0.132 C 
HETATM   13  C6  UNL     1      32.484   7.249  48.670  1.00  0.00     0.051 C 
HETATM   14  C7  UNL     1      33.465   6.073  48.870  1.00  0.00     0.116 C 
HETATM   15  N1  UNL     1      34.009   5.661  47.603  1.00  0.00    -0.421 N 
HETATM   16  C8  UNL     1      33.065   5.439  46.581  1.00  0.00     0.116 C 
HETATM   17  H10 UNL     1      34.897   6.100  47.358  1.00  0.00     0.153 HD
HETATM   18  C9  UNL     1      32.041   6.599  46.408  1.00  0.00     0.051 C 
ENDBRANCH  11  12
ENDBRANCH   3  11
BRANCH   1  19
HETATM   19  O1  UNL     1      27.244   3.673  48.956  1.00  0.00    -0.356 OA
HETATM   20  C1  UNL     1      26.342   3.216  49.923  1.00  0.00     0.210 C 
ENDBRANCH   1  19
BRANCH   5  21
HETATM   21  C12 UNL     1      29.280   9.763  47.860  1.00  0.00    -0.023 A 
HETATM   22  C13 UNL     1      29.710  10.414  48.914  1.00  0.00     0.011 A 
HETATM   23  C14 UNL     1      30.919  11.153  48.924  1.00  0.00     0.020 A 
HETATM   24  C15 UNL     1      31.342  10.966  47.720  1.00  0.00     0.016 A 
HETATM   25 CL1  UNL     1      32.758  11.475  46.762  1.00  0.00    -0.089 Cl
HETATM   26  C16 UNL     1      30.389  10.101  46.985  1.00  0.00     0.092 A 
ENDBRANCH   5  21
TORSDOF 4
ENDMDL
