MODEL 1
REMARK VINA RESULT:      -8.8      0.000      0.000
REMARK  4 active torsions:
REMARK  status: ('A' for Active; 'I' for Inactive)
REMARK    1  A    between atoms: C7_7  and  N1_8 
REMARK    2  A    between atoms: N1_8  and  C8_9 
REMARK    3  A    between atoms: C12_15  and  O1_16 
REMARK    4  A    between atoms: O1_16  and  C13_17 
ROOT
HETATM    1  C1  UNL     1      29.360  -2.367  53.159  1.00  0.00     0.018 C 
HETATM    2  C2  UNL     1      28.630  -1.397  53.092  1.00  0.00    -0.078 C 
HETATM    3  C3  UNL     1      27.749  -0.260  53.006  1.00  0.00     0.019 A 
HETATM    4  C4  UNL     1      28.175   1.030  53.208  1.00  0.00     0.021 A 
HETATM    5  C5  UNL     1      27.278   2.072  53.111  1.00  0.00     0.004 A 
HETATM    6  C6  UNL     1      25.969   1.788  52.814  1.00  0.00     0.029 A 
HETATM    7  C7  UNL     1      25.443   0.543  52.595  1.00  0.00     0.035 A 
HETATM    8  C21 UNL     1      26.425  -0.448  52.714  1.00  0.00     0.050 A 
ENDROOT
BRANCH   7   9
HETATM    9  N1  UNL     1      24.084   0.304  52.312  1.00  0.00    -0.340 N 
HETATM   10  H5  UNL     1      23.922   0.618  51.340  1.00  0.00     0.167 HD
BRANCH   9  11
HETATM   11  C8  UNL     1      23.142  -0.253  53.192  1.00  0.00     0.144 A 
HETATM   12  N2  UNL     1      23.468  -0.819  54.357  1.00  0.00    -0.223 NA
HETATM   13  C9  UNL     1      22.600  -1.361  55.220  1.00  0.00     0.236 A 
HETATM   14  N3  UNL     1      21.293  -1.341  54.905  1.00  0.00    -0.241 NA
HETATM   15  C10 UNL     1      20.871  -0.786  53.743  1.00  0.00     0.077 A 
HETATM   16  C11 UNL     1      19.520  -0.816  53.517  1.00  0.00     0.072 A 
HETATM   17  C19 UNL     1      21.804  -0.239  52.885  1.00  0.00     0.075 A 
HETATM   18  C12 UNL     1      19.002  -0.273  52.361  1.00  0.00     0.107 A 
HETATM   19  C17 UNL     1      19.920   0.288  51.472  1.00  0.00     0.139 A 
HETATM   20  C18 UNL     1      21.284   0.301  51.735  1.00  0.00     0.124 A 
HETATM   21  O4  UNL     1      19.663   0.903  50.233  1.00  0.00    -0.320 OA
HETATM   22  O3  UNL     1      21.872   0.922  50.662  1.00  0.00    -0.322 OA
HETATM   23  C20 UNL     1      20.948   1.024  49.599  1.00  0.00     0.352 C 
BRANCH  18  24
HETATM   24  O1  UNL     1      17.677  -0.247  52.033  1.00  0.00    -0.341 OA
BRANCH  24  25
HETATM   25  C13 UNL     1      16.578  -0.673  52.751  1.00  0.00     0.154 C 
HETATM   26  C14 UNL     1      16.062  -2.031  52.310  1.00  0.00     0.061 C 
HETATM   27  C15 UNL     1      14.650  -1.706  51.874  1.00  0.00     0.170 C 
HETATM   28  O2  UNL     1      14.632  -0.353  51.569  1.00  0.00    -0.389 OA
HETATM   29  C16 UNL     1      15.369   0.221  52.611  1.00  0.00     0.200 C 
ENDBRANCH  24  25
ENDBRANCH  18  24
ENDBRANCH   9  11
ENDBRANCH   7   9
TORSDOF 4
ENDMDL
MODEL 2
REMARK VINA RESULT:      -8.8      4.102      5.966
REMARK  4 active torsions:
REMARK  status: ('A' for Active; 'I' for Inactive)
REMARK    1  A    between atoms: C7_7  and  N1_8 
REMARK    2  A    between atoms: N1_8  and  C8_9 
REMARK    3  A    between atoms: C12_15  and  O1_16 
REMARK    4  A    between atoms: O1_16  and  C13_17 
ROOT
HETATM    1  C1  UNL     1      31.525   5.991  47.453  1.00  0.00     0.018 C 
HETATM    2  C2  UNL     1      30.353   5.973  47.774  1.00  0.00    -0.078 C 
HETATM    3  C3  UNL     1      28.964   5.931  48.158  1.00  0.00     0.019 A 
HETATM    4  C4  UNL     1      28.157   7.042  48.160  1.00  0.00     0.021 A 
HETATM    5  C5  UNL     1      26.837   6.931  48.539  1.00  0.00     0.004 A 
HETATM    6  C6  UNL     1      26.361   5.699  48.911  1.00  0.00     0.029 A 
HETATM    7  C7  UNL     1      27.078   4.533  48.945  1.00  0.00     0.035 A 
HETATM    8  C21 UNL     1      28.402   4.743  48.544  1.00  0.00     0.050 A 
ENDROOT
BRANCH   7   9
HETATM    9  N1  UNL     1      26.544   3.296  49.353  1.00  0.00    -0.340 N 
HETATM   10  H5  UNL     1      26.309   2.773  48.493  1.00  0.00     0.167 HD
BRANCH   9  11
HETATM   11  C8  UNL     1      26.369   2.869  50.681  1.00  0.00     0.144 A 
HETATM   12  N2  UNL     1      27.384   2.637  51.519  1.00  0.00    -0.223 NA
HETATM   13  C9  UNL     1      27.257   2.229  52.787  1.00  0.00     0.236 A 
HETATM   14  N3  UNL     1      26.018   2.033  53.272  1.00  0.00    -0.241 NA
HETATM   15  C10 UNL     1      24.930   2.244  52.492  1.00  0.00     0.077 A 
HETATM   16  C11 UNL     1      23.714   2.017  53.082  1.00  0.00     0.072 A 
HETATM   17  C19 UNL     1      25.111   2.665  51.191  1.00  0.00     0.075 A 
HETATM   18  C12 UNL     1      22.554   2.208  52.364  1.00  0.00     0.107 A 
HETATM   19  C17 UNL     1      22.703   2.634  51.043  1.00  0.00     0.139 A 
HETATM   20  C18 UNL     1      23.953   2.855  50.479  1.00  0.00     0.124 A 
HETATM   21  O4  UNL     1      21.695   2.902  50.098  1.00  0.00    -0.320 OA
HETATM   22  O3  UNL     1      23.721   3.259  49.188  1.00  0.00    -0.322 OA
HETATM   23  C20 UNL     1      22.377   3.004  48.837  1.00  0.00     0.352 C 
BRANCH  18  24
HETATM   24  O1  UNL     1      21.292   2.012  52.847  1.00  0.00    -0.341 OA
BRANCH  24  25
HETATM   25  C13 UNL     1      20.613   0.837  53.098  1.00  0.00     0.154 C 
HETATM   26  C14 UNL     1      20.810   0.320  54.511  1.00  0.00     0.061 C 
HETATM   27  C15 UNL     1      21.441  -1.034  54.267  1.00  0.00     0.170 C 
HETATM   28  O2  UNL     1      22.021  -0.979  53.008  1.00  0.00    -0.389 OA
HETATM   29  C16 UNL     1      21.053  -0.323  52.238  1.00  0.00     0.200 C 
ENDBRANCH  24  25
ENDBRANCH  18  24
ENDBRANCH   9  11
ENDBRANCH   7   9
TORSDOF 4
ENDMDL
MODEL 3
REMARK VINA RESULT:      -8.8      4.058      6.287
REMARK  4 active torsions:
REMARK  status: ('A' for Active; 'I' for Inactive)
REMARK    1  A    between atoms: C7_7  and  N1_8 
REMARK    2  A    between atoms: N1_8  and  C8_9 
REMARK    3  A    between atoms: C12_15  and  O1_16 
REMARK    4  A    between atoms: O1_16  and  C13_17 
ROOT
HETATM    1  C1  UNL     1      24.403   8.764  49.102  1.00  0.00     0.018 C 
HETATM    2  C2  UNL     1      25.272   7.928  48.949  1.00  0.00    -0.078 C 
HETATM    3  C3  UNL     1      26.290   6.922  48.777  1.00  0.00     0.019 A 
HETATM    4  C4  UNL     1      27.516   7.191  48.221  1.00  0.00     0.021 A 
HETATM    5  C5  UNL     1      28.445   6.181  48.085  1.00  0.00     0.004 A 
HETATM    6  C6  UNL     1      28.112   4.920  48.514  1.00  0.00     0.029 A 
HETATM    7  C7  UNL     1      26.922   4.548  49.080  1.00  0.00     0.035 A 
HETATM    8  C21 UNL     1      26.047   5.635  49.176  1.00  0.00     0.050 A 
ENDROOT
BRANCH   7   9
HETATM    9  N1  UNL     1      26.625   3.232  49.486  1.00  0.00    -0.340 N 
HETATM   10  H5  UNL     1      26.549   2.665  48.625  1.00  0.00     0.167 HD
BRANCH   9  11
HETATM   11  C8  UNL     1      26.464   2.793  50.811  1.00  0.00     0.144 A 
HETATM   12  N2  UNL     1      27.484   2.603  51.652  1.00  0.00    -0.223 NA
HETATM   13  C9  UNL     1      27.371   2.184  52.917  1.00  0.00     0.236 A 
HETATM   14  N3  UNL     1      26.140   1.931  53.397  1.00  0.00    -0.241 NA
HETATM   15  C10 UNL     1      25.047   2.096  52.613  1.00  0.00     0.077 A 
HETATM   16  C11 UNL     1      23.840   1.811  53.196  1.00  0.00     0.072 A 
HETATM   17  C19 UNL     1      25.214   2.530  51.314  1.00  0.00     0.075 A 
HETATM   18  C12 UNL     1      22.675   1.953  52.474  1.00  0.00     0.107 A 
HETATM   19  C17 UNL     1      22.810   2.391  51.156  1.00  0.00     0.139 A 
HETATM   20  C18 UNL     1      24.052   2.671  50.598  1.00  0.00     0.124 A 
HETATM   21  O4  UNL     1      21.795   2.617  50.207  1.00  0.00    -0.320 OA
HETATM   22  O3  UNL     1      23.808   3.070  49.307  1.00  0.00    -0.322 OA
HETATM   23  C20 UNL     1      22.478   2.755  48.949  1.00  0.00     0.352 C 
BRANCH  18  24
HETATM   24  O1  UNL     1      21.422   1.699  52.950  1.00  0.00    -0.341 OA
BRANCH  24  25
HETATM   25  C13 UNL     1      20.812   0.495  53.240  1.00  0.00     0.154 C 
HETATM   26  C14 UNL     1      20.974   0.072  54.689  1.00  0.00     0.061 C 
HETATM   27  C15 UNL     1      21.707  -1.245  54.554  1.00  0.00     0.170 C 
HETATM   28  O2  UNL     1      22.343  -1.219  53.322  1.00  0.00    -0.389 OA
HETATM   29  C16 UNL     1      21.373  -0.678  52.471  1.00  0.00     0.200 C 
ENDBRANCH  24  25
ENDBRANCH  18  24
ENDBRANCH   9  11
ENDBRANCH   7   9
TORSDOF 4
ENDMDL
MODEL 4
REMARK VINA RESULT:      -8.5      2.459      3.217
REMARK  4 active torsions:
REMARK  status: ('A' for Active; 'I' for Inactive)
REMARK    1  A    between atoms: C7_7  and  N1_8 
REMARK    2  A    between atoms: N1_8  and  C8_9 
REMARK    3  A    between atoms: C12_15  and  O1_16 
REMARK    4  A    between atoms: O1_16  and  C13_17 
ROOT
HETATM    1  C1  UNL     1      29.007  -2.757  53.159  1.00  0.00     0.018 C 
HETATM    2  C2  UNL     1      28.736  -1.575  53.245  1.00  0.00    -0.078 C 
HETATM    3  C3  UNL     1      28.395  -0.177  53.337  1.00  0.00     0.019 A 
HETATM    4  C4  UNL     1      29.269   0.773  53.805  1.00  0.00     0.021 A 
HETATM    5  C5  UNL     1      28.878   2.093  53.868  1.00  0.00     0.004 A 
HETATM    6  C6  UNL     1      27.611   2.424  53.458  1.00  0.00     0.029 A 
HETATM    7  C7  UNL     1      26.667   1.557  52.977  1.00  0.00     0.035 A 
HETATM    8  C21 UNL     1      27.152   0.246  52.950  1.00  0.00     0.050 A 
ENDROOT
BRANCH   7   9
HETATM    9  N1  UNL     1      25.371   1.948  52.587  1.00  0.00    -0.340 N 
HETATM   10  H5  UNL     1      25.466   2.855  52.100  1.00  0.00     0.167 HD
BRANCH   9  11
HETATM   11  C8  UNL     1      24.185   1.232  52.823  1.00  0.00     0.144 A 
HETATM   12  N2  UNL     1      24.163  -0.047  53.208  1.00  0.00    -0.223 NA
HETATM   13  C9  UNL     1      23.056  -0.762  53.441  1.00  0.00     0.236 A 
HETATM   14  N3  UNL     1      21.863  -0.161  53.279  1.00  0.00    -0.241 NA
HETATM   15  C10 UNL     1      21.791   1.136  52.890  1.00  0.00     0.077 A 
HETATM   16  C11 UNL     1      20.530   1.654  52.755  1.00  0.00     0.072 A 
HETATM   17  C19 UNL     1      22.961   1.832  52.663  1.00  0.00     0.075 A 
HETATM   18  C12 UNL     1      20.362   2.965  52.364  1.00  0.00     0.107 A 
HETATM   19  C17 UNL     1      21.526   3.697  52.126  1.00  0.00     0.139 A 
HETATM   20  C18 UNL     1      22.789   3.137  52.274  1.00  0.00     0.124 A 
HETATM   21  O4  UNL     1      21.640   5.040  51.721  1.00  0.00    -0.320 OA
HETATM   22  O3  UNL     1      23.684   4.130  51.962  1.00  0.00    -0.322 OA
HETATM   23  C20 UNL     1      23.014   5.201  51.330  1.00  0.00     0.352 C 
BRANCH  18  24
HETATM   24  O1  UNL     1      19.158   3.584  52.198  1.00  0.00    -0.341 OA
BRANCH  24  25
HETATM   25  C13 UNL     1      18.262   3.511  51.150  1.00  0.00     0.154 C 
HETATM   26  C14 UNL     1      17.251   2.389  51.301  1.00  0.00     0.061 C 
HETATM   27  C15 UNL     1      17.526   1.548  50.074  1.00  0.00     0.170 C 
HETATM   28  O2  UNL     1      18.826   1.833  49.683  1.00  0.00    -0.389 OA
HETATM   29  C16 UNL     1      18.902   3.224  49.813  1.00  0.00     0.200 C 
ENDBRANCH  24  25
ENDBRANCH  18  24
ENDBRANCH   9  11
ENDBRANCH   7   9
TORSDOF 4
ENDMDL
MODEL 5
REMARK VINA RESULT:      -8.1      2.620      8.554
REMARK  4 active torsions:
REMARK  status: ('A' for Active; 'I' for Inactive)
REMARK    1  A    between atoms: C7_7  and  N1_8 
REMARK    2  A    between atoms: N1_8  and  C8_9 
REMARK    3  A    between atoms: C12_15  and  O1_16 
REMARK    4  A    between atoms: O1_16  and  C13_17 
ROOT
HETATM    1  C1  UNL     1      15.165  -1.613  50.180  1.00  0.00     0.018 C 
HETATM    2  C2  UNL     1      15.953  -0.748  50.510  1.00  0.00    -0.078 C 
HETATM    3  C3  UNL     1      16.903   0.263  50.901  1.00  0.00     0.019 A 
HETATM    4  C4  UNL     1      16.540   1.559  51.176  1.00  0.00     0.021 A 
HETATM    5  C5  UNL     1      17.500   2.476  51.545  1.00  0.00     0.004 A 
HETATM    6  C6  UNL     1      18.807   2.065  51.625  1.00  0.00     0.029 A 
HETATM    7  C7  UNL     1      19.272   0.802  51.373  1.00  0.00     0.035 A 
HETATM    8  C21 UNL     1      18.230  -0.057  51.008  1.00  0.00     0.050 A 
ENDROOT
BRANCH   7   9
HETATM    9  N1  UNL     1      20.630   0.437  51.453  1.00  0.00    -0.340 N 
HETATM   10  H5  UNL     1      21.059   0.683  50.545  1.00  0.00     0.167 HD
BRANCH   9  11
HETATM   11  C8  UNL     1      21.264  -0.152  52.560  1.00  0.00     0.144 A 
HETATM   12  N2  UNL     1      20.647  -0.981  53.406  1.00  0.00    -0.223 NA
HETATM   13  C9  UNL     1      21.216  -1.558  54.471  1.00  0.00     0.236 A 
HETATM   14  N3  UNL     1      22.511  -1.293  54.723  1.00  0.00    -0.241 NA
HETATM   15  C10 UNL     1      23.215  -0.463  53.917  1.00  0.00     0.077 A 
HETATM   16  C11 UNL     1      24.526  -0.259  54.260  1.00  0.00     0.072 A 
HETATM   17  C19 UNL     1      22.585   0.109  52.830  1.00  0.00     0.075 A 
HETATM   18  C12 UNL     1      25.318   0.569  53.496  1.00  0.00     0.107 A 
HETATM   19  C17 UNL     1      24.710   1.163  52.389  1.00  0.00     0.139 A 
HETATM   20  C18 UNL     1      23.377   0.933  52.071  1.00  0.00     0.124 A 
HETATM   21  O4  UNL     1      25.283   2.042  51.451  1.00  0.00    -0.320 OA
HETATM   22  O3  UNL     1      23.124   1.667  50.939  1.00  0.00    -0.322 OA
HETATM   23  C20 UNL     1      24.173   2.586  50.717  1.00  0.00     0.352 C 
BRANCH  18  24
HETATM   24  O1  UNL     1      26.632   0.844  53.743  1.00  0.00    -0.341 OA
BRANCH  24  25
HETATM   25  C13 UNL     1      27.765   0.420  53.078  1.00  0.00     0.154 C 
HETATM   26  C14 UNL     1      27.728  -1.051  52.707  1.00  0.00     0.061 C 
HETATM   27  C15 UNL     1      28.930  -1.595  53.448  1.00  0.00     0.170 C 
HETATM   28  O2  UNL     1      29.185  -0.714  54.488  1.00  0.00    -0.389 OA
HETATM   29  C16 UNL     1      29.034   0.541  53.889  1.00  0.00     0.200 C 
ENDBRANCH  24  25
ENDBRANCH  18  24
ENDBRANCH   9  11
ENDBRANCH   7   9
TORSDOF 4
ENDMDL
MODEL 6
REMARK VINA RESULT:      -8.0      3.773      5.120
REMARK  4 active torsions:
REMARK  status: ('A' for Active; 'I' for Inactive)
REMARK    1  A    between atoms: C7_7  and  N1_8 
REMARK    2  A    between atoms: N1_8  and  C8_9 
REMARK    3  A    between atoms: C12_15  and  O1_16 
REMARK    4  A    between atoms: O1_16  and  C13_17 
ROOT
HETATM    1  C1  UNL     1      28.974   7.448  46.978  1.00  0.00     0.018 C 
HETATM    2  C2  UNL     1      28.092   7.089  47.733  1.00  0.00    -0.078 C 
HETATM    3  C3  UNL     1      27.050   6.642  48.624  1.00  0.00     0.019 A 
HETATM    4  C4  UNL     1      26.258   7.507  49.336  1.00  0.00     0.021 A 
HETATM    5  C5  UNL     1      25.279   7.013  50.172  1.00  0.00     0.004 A 
HETATM    6  C6  UNL     1      25.124   5.652  50.270  1.00  0.00     0.029 A 
HETATM    7  C7  UNL     1      25.859   4.707  49.605  1.00  0.00     0.035 A 
HETATM    8  C21 UNL     1      26.823   5.301  48.785  1.00  0.00     0.050 A 
ENDROOT
BRANCH   7   9
HETATM    9  N1  UNL     1      25.670   3.319  49.757  1.00  0.00    -0.340 N 
HETATM   10  H5  UNL     1      25.928   2.883  48.856  1.00  0.00     0.167 HD
BRANCH   9  11
HETATM   11  C8  UNL     1      25.216   2.669  50.917  1.00  0.00     0.144 A 
HETATM   12  N2  UNL     1      25.933   2.584  52.041  1.00  0.00    -0.223 NA
HETATM   13  C9  UNL     1      25.536   1.972  53.163  1.00  0.00     0.236 A 
HETATM   14  N3  UNL     1      24.322   1.393  53.177  1.00  0.00    -0.241 NA
HETATM   15  C10 UNL     1      23.526   1.430  52.080  1.00  0.00     0.077 A 
HETATM   16  C11 UNL     1      22.310   0.811  52.198  1.00  0.00     0.072 A 
HETATM   17  C19 UNL     1      23.980   2.073  50.947  1.00  0.00     0.075 A 
HETATM   18  C12 UNL     1      21.435   0.801  51.133  1.00  0.00     0.107 A 
HETATM   19  C17 UNL     1      21.864   1.444  49.971  1.00  0.00     0.139 A 
HETATM   20  C18 UNL     1      23.106   2.062  49.888  1.00  0.00     0.124 A 
HETATM   21  O4  UNL     1      21.177   1.580  48.751  1.00  0.00    -0.320 OA
HETATM   22  O3  UNL     1      23.189   2.581  48.620  1.00  0.00    -0.322 OA
HETATM   23  C20 UNL     1      22.163   2.042  47.812  1.00  0.00     0.352 C 
BRANCH  18  24
HETATM   24  O1  UNL     1      20.202   0.217  51.137  1.00  0.00    -0.341 OA
BRANCH  24  25
HETATM   25  C13 UNL     1      19.074   0.535  51.866  1.00  0.00     0.154 C 
HETATM   26  C14 UNL     1      18.531  -0.630  52.674  1.00  0.00     0.061 C 
HETATM   27  C15 UNL     1      17.140  -0.791  52.101  1.00  0.00     0.170 C 
HETATM   28  O2  UNL     1      17.168  -0.230  50.832  1.00  0.00    -0.389 OA
HETATM   29  C16 UNL     1      17.893   0.951  51.020  1.00  0.00     0.200 C 
ENDBRANCH  24  25
ENDBRANCH  18  24
ENDBRANCH   9  11
ENDBRANCH   7   9
TORSDOF 4
ENDMDL
MODEL 7
REMARK VINA RESULT:      -7.9      5.872      9.235
REMARK  4 active torsions:
REMARK  status: ('A' for Active; 'I' for Inactive)
REMARK    1  A    between atoms: C7_7  and  N1_8 
REMARK    2  A    between atoms: N1_8  and  C8_9 
REMARK    3  A    between atoms: C12_15  and  O1_16 
REMARK    4  A    between atoms: O1_16  and  C13_17 
ROOT
HETATM    1  C1  UNL     1      21.679  -1.241  54.313  1.00  0.00     0.018 C 
HETATM    2  C2  UNL     1      22.633  -0.676  53.814  1.00  0.00    -0.078 C 
HETATM    3  C3  UNL     1      23.751   0.004  53.210  1.00  0.00     0.019 A 
HETATM    4  C4  UNL     1      25.054  -0.249  53.559  1.00  0.00     0.021 A 
HETATM    5  C5  UNL     1      26.077   0.438  52.941  1.00  0.00     0.004 A 
HETATM    6  C6  UNL     1      25.759   1.369  51.984  1.00  0.00     0.029 A 
HETATM    7  C7  UNL     1      24.497   1.696  51.564  1.00  0.00     0.035 A 
HETATM    8  C21 UNL     1      23.529   0.949  52.245  1.00  0.00     0.050 A 
ENDROOT
BRANCH   7   9
HETATM    9  N1  UNL     1      24.225   2.675  50.589  1.00  0.00    -0.340 N 
HETATM   10  H5  UNL     1      24.588   2.313  49.692  1.00  0.00     0.167 HD
BRANCH   9  11
HETATM   11  C8  UNL     1      23.583   3.906  50.810  1.00  0.00     0.144 A 
HETATM   12  N2  UNL     1      22.370   4.014  51.358  1.00  0.00    -0.223 NA
HETATM   13  C9  UNL     1      21.727   5.166  51.583  1.00  0.00     0.236 A 
HETATM   14  N3  UNL     1      22.336   6.314  51.236  1.00  0.00    -0.241 NA
HETATM   15  C10 UNL     1      23.569   6.298  50.673  1.00  0.00     0.077 A 
HETATM   16  C11 UNL     1      24.102   7.520  50.357  1.00  0.00     0.072 A 
HETATM   17  C19 UNL     1      24.193   5.085  50.462  1.00  0.00     0.075 A 
HETATM   18  C12 UNL     1      25.352   7.599  49.782  1.00  0.00     0.107 A 
HETATM   19  C17 UNL     1      26.009   6.389  49.555  1.00  0.00     0.139 A 
HETATM   20  C18 UNL     1      25.438   5.168  49.890  1.00  0.00     0.124 A 
HETATM   21  O4  UNL     1      27.281   6.185  48.988  1.00  0.00    -0.320 OA
HETATM   22  O3  UNL     1      26.352   4.209  49.531  1.00  0.00    -0.322 OA
HETATM   23  C20 UNL     1      27.346   4.777  48.704  1.00  0.00     0.352 C 
BRANCH  18  24
HETATM   24  O1  UNL     1      25.979   8.758  49.427  1.00  0.00    -0.341 OA
BRANCH  24  25
HETATM   25  C13 UNL     1      25.894   9.488  48.258  1.00  0.00     0.154 C 
HETATM   26  C14 UNL     1      25.514   8.649  47.052  1.00  0.00     0.061 C 
HETATM   27  C15 UNL     1      26.709   8.841  46.143  1.00  0.00     0.170 C 
HETATM   28  O2  UNL     1      27.770   9.206  46.959  1.00  0.00    -0.389 OA
HETATM   29  C16 UNL     1      27.196  10.130  47.839  1.00  0.00     0.200 C 
ENDBRANCH  24  25
ENDBRANCH  18  24
ENDBRANCH   9  11
ENDBRANCH   7   9
TORSDOF 4
ENDMDL
MODEL 8
REMARK VINA RESULT:      -7.8      2.974      8.940
REMARK  4 active torsions:
REMARK  status: ('A' for Active; 'I' for Inactive)
REMARK    1  A    between atoms: C7_7  and  N1_8 
REMARK    2  A    between atoms: N1_8  and  C8_9 
REMARK    3  A    between atoms: C12_15  and  O1_16 
REMARK    4  A    between atoms: O1_16  and  C13_17 
ROOT
HETATM    1  C1  UNL     1      15.603  -1.754  47.836  1.00  0.00     0.018 C 
HETATM    2  C2  UNL     1      15.875  -0.900  48.657  1.00  0.00    -0.078 C 
HETATM    3  C3  UNL     1      16.217   0.102  49.635  1.00  0.00     0.019 A 
HETATM    4  C4  UNL     1      15.369   1.125  49.982  1.00  0.00     0.021 A 
HETATM    5  C5  UNL     1      15.759   2.051  50.925  1.00  0.00     0.004 A 
HETATM    6  C6  UNL     1      17.000   1.924  51.496  1.00  0.00     0.029 A 
HETATM    7  C7  UNL     1      17.918   0.946  51.223  1.00  0.00     0.035 A 
HETATM    8  C21 UNL     1      17.435   0.056  50.258  1.00  0.00     0.050 A 
ENDROOT
BRANCH   7   9
HETATM    9  N1  UNL     1      19.189   0.873  51.826  1.00  0.00    -0.340 N 
HETATM   10  H5  UNL     1      19.064   0.385  52.728  1.00  0.00     0.167 HD
BRANCH   9  11
HETATM   11  C8  UNL     1      20.388   1.376  51.292  1.00  0.00     0.144 A 
HETATM   12  N2  UNL     1      20.435   2.228  50.265  1.00  0.00    -0.223 NA
HETATM   13  C9  UNL     1      21.555   2.726  49.728  1.00  0.00     0.236 A 
HETATM   14  N3  UNL     1      22.735   2.350  50.253  1.00  0.00    -0.241 NA
HETATM   15  C10 UNL     1      22.781   1.488  51.298  1.00  0.00     0.077 A 
HETATM   16  C11 UNL     1      24.032   1.169  51.759  1.00  0.00     0.072 A 
HETATM   17  C19 UNL     1      21.599   1.002  51.818  1.00  0.00     0.075 A 
HETATM   18  C12 UNL     1      24.175   0.301  52.819  1.00  0.00     0.107 A 
HETATM   19  C17 UNL     1      22.997  -0.209  53.368  1.00  0.00     0.139 A 
HETATM   20  C18 UNL     1      21.746   0.137  52.874  1.00  0.00     0.124 A 
HETATM   21  O4  UNL     1      22.857  -1.105  54.444  1.00  0.00    -0.320 OA
HETATM   22  O3  UNL     1      20.832  -0.541  53.642  1.00  0.00    -0.322 OA
HETATM   23  C20 UNL     1      21.486  -1.536  54.402  1.00  0.00     0.352 C 
BRANCH  18  24
HETATM   24  O1  UNL     1      25.366  -0.087  53.360  1.00  0.00    -0.341 OA
BRANCH  24  25
HETATM   25  C13 UNL     1      26.647   0.343  53.079  1.00  0.00     0.154 C 
HETATM   26  C14 UNL     1      27.698  -0.736  53.266  1.00  0.00     0.061 C 
HETATM   27  C15 UNL     1      28.587  -0.132  54.330  1.00  0.00     0.170 C 
HETATM   28  O2  UNL     1      27.816   0.803  55.005  1.00  0.00    -0.389 OA
HETATM   29  C16 UNL     1      27.132   1.458  53.975  1.00  0.00     0.200 C 
ENDBRANCH  24  25
ENDBRANCH  18  24
ENDBRANCH   9  11
ENDBRANCH   7   9
TORSDOF 4
ENDMDL
MODEL 9
REMARK VINA RESULT:      -7.7      4.657      6.340
REMARK  4 active torsions:
REMARK  status: ('A' for Active; 'I' for Inactive)
REMARK    1  A    between atoms: C7_7  and  N1_8 
REMARK    2  A    between atoms: N1_8  and  C8_9 
REMARK    3  A    between atoms: C12_15  and  O1_16 
REMARK    4  A    between atoms: O1_16  and  C13_17 
ROOT
HETATM    1  C1  UNL     1      27.969  -2.880  52.740  1.00  0.00     0.018 C 
HETATM    2  C2  UNL     1      28.097  -1.691  52.962  1.00  0.00    -0.078 C 
HETATM    3  C3  UNL     1      28.233  -0.278  53.212  1.00  0.00     0.019 A 
HETATM    4  C4  UNL     1      29.221   0.246  54.008  1.00  0.00     0.021 A 
HETATM    5  C5  UNL     1      29.294   1.609  54.205  1.00  0.00     0.004 A 
HETATM    6  C6  UNL     1      28.362   2.412  53.595  1.00  0.00     0.029 A 
HETATM    7  C7  UNL     1      27.341   1.991  52.786  1.00  0.00     0.035 A 
HETATM    8  C21 UNL     1      27.349   0.600  52.644  1.00  0.00     0.050 A 
ENDROOT
BRANCH   7   9
HETATM    9  N1  UNL     1      26.399   2.859  52.199  1.00  0.00    -0.340 N 
HETATM   10  H5  UNL     1      26.928   3.662  51.821  1.00  0.00     0.167 HD
BRANCH   9  11
HETATM   11  C8  UNL     1      25.010   2.657  52.147  1.00  0.00     0.144 A 
HETATM   12  N2  UNL     1      24.363   1.787  52.928  1.00  0.00    -0.223 NA
HETATM   13  C9  UNL     1      23.043   1.566  52.906  1.00  0.00     0.236 A 
HETATM   14  N3  UNL     1      22.294   2.266  52.036  1.00  0.00    -0.241 NA
HETATM   15  C10 UNL     1      22.867   3.171  51.204  1.00  0.00     0.077 A 
HETATM   16  C11 UNL     1      22.017   3.832  50.357  1.00  0.00     0.072 A 
HETATM   17  C19 UNL     1      24.232   3.364  51.264  1.00  0.00     0.075 A 
HETATM   18  C12 UNL     1      22.512   4.770  49.478  1.00  0.00     0.107 A 
HETATM   19  C17 UNL     1      23.890   4.989  49.513  1.00  0.00     0.139 A 
HETATM   20  C18 UNL     1      24.721   4.300  50.387  1.00  0.00     0.124 A 
HETATM   21  O4  UNL     1      24.647   5.882  48.732  1.00  0.00    -0.320 OA
HETATM   22  O3  UNL     1      25.991   4.764  50.149  1.00  0.00    -0.322 OA
HETATM   23  C20 UNL     1      26.017   5.499  48.944  1.00  0.00     0.352 C 
BRANCH  18  24
HETATM   24  O1  UNL     1      21.761   5.486  48.591  1.00  0.00    -0.341 OA
BRANCH  24  25
HETATM   25  C13 UNL     1      21.133   6.706  48.746  1.00  0.00     0.154 C 
HETATM   26  C14 UNL     1      21.779   7.821  47.944  1.00  0.00     0.061 C 
HETATM   27  C15 UNL     1      22.185   8.795  49.027  1.00  0.00     0.170 C 
HETATM   28  O2  UNL     1      22.286   8.062  50.201  1.00  0.00    -0.389 OA
HETATM   29  C16 UNL     1      21.158   7.235  50.160  1.00  0.00     0.200 C 
ENDBRANCH  24  25
ENDBRANCH  18  24
ENDBRANCH   9  11
ENDBRANCH   7   9
TORSDOF 4
ENDMDL
