MODEL 1
REMARK VINA RESULT:      -7.5      0.000      0.000
REMARK  6 active torsions:
REMARK  status: ('A' for Active; 'I' for Inactive)
REMARK    1  A    between atoms: C2_2  and  C3_3 
REMARK    2  A    between atoms: C2_2  and  N1_6 
REMARK    3  A    between atoms: C3_3  and  C4_4 
REMARK    4  A    between atoms: N1_6  and  C5_7 
REMARK    5  A    between atoms: C10_14  and  N3_15 
REMARK    6  A    between atoms: N3_15  and  C11_16 
ROOT
HETATM    1  C5  UNL     1      24.871   3.535  50.847  1.00  0.00     0.007 C 
HETATM    2  C6  UNL     1      24.323   3.445  49.622  1.00  0.00     0.005 C 
HETATM    3  C7  UNL     1      23.322   2.837  48.773  1.00  0.00     0.101 C 
HETATM    4  C8  UNL     1      22.321   1.967  49.426  1.00  0.00     0.106 C 
HETATM    5 CL1  UNL     1      20.902   1.757  48.371  1.00  0.00    -0.067 Cl
HETATM    6  N2  UNL     1      22.124   1.276  50.529  1.00  0.00    -0.251 NA
HETATM    7  C9  UNL     1      23.000   1.124  51.664  1.00  0.00     0.143 C 
HETATM    8  C10 UNL     1      23.980   1.726  52.312  1.00  0.00     0.033 C 
HETATM    9  C17 UNL     1      24.704   2.974  52.169  1.00  0.00     0.114 C 
ENDROOT
BRANCH   8  10
HETATM   10  N3  UNL     1      24.397   0.915  53.436  1.00  0.00    -0.358 N 
HETATM   11  H13 UNL     1      23.662   0.685  54.171  1.00  0.00     0.166 HD
BRANCH  10  12
HETATM   12  C11 UNL     1      25.736   0.440  53.541  1.00  0.00     0.032 A 
HETATM   13  C12 UNL     1      26.604   0.769  54.588  1.00  0.00     0.032 A 
HETATM   14  C13 UNL     1      27.897   0.291  54.709  1.00  0.00     0.044 A 
HETATM   15  C14 UNL     1      28.324  -0.563  53.720  1.00  0.00     0.116 A 
HETATM   16  F1  UNL     1      29.608  -1.015  53.892  1.00  0.00    -0.206 F 
HETATM   17  C15 UNL     1      27.496  -0.917  52.663  1.00  0.00     0.044 A 
HETATM   18  C16 UNL     1      26.222  -0.432  52.564  1.00  0.00     0.032 A 
ENDBRANCH  10  12
ENDBRANCH   8  10
BRANCH   1  19
HETATM   19  N1  UNL     1      25.866   4.518  50.506  1.00  0.00    -0.388 N 
HETATM   20  H8  UNL     1      26.885   4.533  50.679  1.00  0.00     0.159 HD
BRANCH  19  21
HETATM   21  C2  UNL     1      25.326   5.649  49.803  1.00  0.00     0.083 C 
HETATM   22  C1  UNL     1      24.969   6.745  50.767  1.00  0.00     0.032 C 
BRANCH  21  23
HETATM   23  C3  UNL     1      26.142   6.188  48.682  1.00  0.00     0.094 C 
BRANCH  23  24
HETATM   24  C4  UNL     1      27.504   5.589  48.613  1.00  0.00     0.233 C 
HETATM   25  O1  UNL     1      27.917   4.441  48.598  1.00  0.00    -0.307 OA
ENDBRANCH  23  24
ENDBRANCH  21  23
ENDBRANCH  19  21
ENDBRANCH   1  19
TORSDOF 6
ENDMDL
MODEL 2
REMARK VINA RESULT:      -7.4      4.360      7.336
REMARK  6 active torsions:
REMARK  status: ('A' for Active; 'I' for Inactive)
REMARK    1  A    between atoms: C2_2  and  C3_3 
REMARK    2  A    between atoms: C2_2  and  N1_6 
REMARK    3  A    between atoms: C3_3  and  C4_4 
REMARK    4  A    between atoms: N1_6  and  C5_7 
REMARK    5  A    between atoms: C10_14  and  N3_15 
REMARK    6  A    between atoms: N3_15  and  C11_16 
ROOT
HETATM    1  C5  UNL     1      24.701   0.358  52.992  1.00  0.00     0.007 C 
HETATM    2  C6  UNL     1      25.602  -0.636  53.081  1.00  0.00     0.005 C 
HETATM    3  C7  UNL     1      26.994  -1.028  53.070  1.00  0.00     0.101 C 
HETATM    4  C8  UNL     1      28.000   0.055  53.042  1.00  0.00     0.106 C 
HETATM    5 CL1  UNL     1      29.586  -0.562  53.566  1.00  0.00    -0.067 Cl
HETATM    6  N2  UNL     1      28.127   1.332  52.746  1.00  0.00    -0.251 NA
HETATM    7  C9  UNL     1      27.126   2.247  52.260  1.00  0.00     0.143 C 
HETATM    8  C10 UNL     1      25.822   2.458  52.254  1.00  0.00     0.033 C 
HETATM    9  C17 UNL     1      24.662   1.792  52.812  1.00  0.00     0.114 C 
ENDROOT
BRANCH   8  10
HETATM   10  N3  UNL     1      25.524   3.661  51.506  1.00  0.00    -0.358 N 
HETATM   11  H13 UNL     1      26.220   4.463  51.573  1.00  0.00     0.166 HD
BRANCH  10  12
HETATM   12  C11 UNL     1      24.347   3.756  50.709  1.00  0.00     0.032 A 
HETATM   13  C12 UNL     1      24.180   3.109  49.479  1.00  0.00     0.032 A 
HETATM   14  C13 UNL     1      23.030   3.176  48.712  1.00  0.00     0.044 A 
HETATM   15  C14 UNL     1      22.003   3.934  49.222  1.00  0.00     0.116 A 
HETATM   16  F1  UNL     1      20.884   3.959  48.428  1.00  0.00    -0.206 F 
HETATM   17  C15 UNL     1      22.125   4.591  50.438  1.00  0.00     0.044 A 
HETATM   18  C16 UNL     1      23.271   4.512  51.179  1.00  0.00     0.032 A 
ENDBRANCH  10  12
ENDBRANCH   8  10
BRANCH   1  19
HETATM   19  N1  UNL     1      23.532  -0.468  53.154  1.00  0.00    -0.388 N 
HETATM   20  H8  UNL     1      23.443  -1.490  53.280  1.00  0.00     0.159 HD
BRANCH  19  21
HETATM   21  C2  UNL     1      22.306   0.279  53.142  1.00  0.00     0.083 C 
HETATM   22  C1  UNL     1      21.678   0.238  51.777  1.00  0.00     0.032 C 
BRANCH  21  23
HETATM   23  C3  UNL     1      21.304  -0.069  54.186  1.00  0.00     0.094 C 
BRANCH  23  24
HETATM   24  C4  UNL     1      21.519  -1.423  54.769  1.00  0.00     0.233 C 
HETATM   25  O1  UNL     1      22.382  -1.902  55.485  1.00  0.00    -0.307 OA
ENDBRANCH  23  24
ENDBRANCH  21  23
ENDBRANCH  19  21
ENDBRANCH   1  19
TORSDOF 6
ENDMDL
MODEL 3
REMARK VINA RESULT:      -7.4      2.235      3.026
REMARK  6 active torsions:
REMARK  status: ('A' for Active; 'I' for Inactive)
REMARK    1  A    between atoms: C2_2  and  C3_3 
REMARK    2  A    between atoms: C2_2  and  N1_6 
REMARK    3  A    between atoms: C3_3  and  C4_4 
REMARK    4  A    between atoms: N1_6  and  C5_7 
REMARK    5  A    between atoms: C10_14  and  N3_15 
REMARK    6  A    between atoms: N3_15  and  C11_16 
ROOT
HETATM    1  C5  UNL     1      23.434   1.618  51.355  1.00  0.00     0.007 C 
HETATM    2  C6  UNL     1      22.338   1.411  50.603  1.00  0.00     0.005 C 
HETATM    3  C7  UNL     1      21.029   0.806  50.492  1.00  0.00     0.101 C 
HETATM    4  C8  UNL     1      20.476   0.167  51.705  1.00  0.00     0.106 C 
HETATM    5 CL1  UNL     1      18.713  -0.030  51.550  1.00  0.00    -0.067 Cl
HETATM    6  N2  UNL     1      20.849  -0.325  52.868  1.00  0.00    -0.251 NA
HETATM    7  C9  UNL     1      22.174  -0.407  53.427  1.00  0.00     0.143 C 
HETATM    8  C10 UNL     1      23.364   0.165  53.378  1.00  0.00     0.033 C 
HETATM    9  C17 UNL     1      23.946   1.284  52.665  1.00  0.00     0.114 C 
ENDROOT
BRANCH   8  10
HETATM   10  N3  UNL     1      24.272  -0.513  54.279  1.00  0.00    -0.358 N 
HETATM   11  H13 UNL     1      23.846  -1.016  55.115  1.00  0.00     0.166 HD
BRANCH  10  12
HETATM   12  C11 UNL     1      25.677  -0.509  54.043  1.00  0.00     0.032 A 
HETATM   13  C12 UNL     1      26.291  -1.154  52.963  1.00  0.00     0.032 A 
HETATM   14  C13 UNL     1      27.652  -1.133  52.714  1.00  0.00     0.044 A 
HETATM   15  C14 UNL     1      28.421  -0.422  53.603  1.00  0.00     0.116 A 
HETATM   16  F1  UNL     1      29.761  -0.425  53.306  1.00  0.00    -0.206 F 
HETATM   17  C15 UNL     1      27.854   0.234  54.687  1.00  0.00     0.044 A 
HETATM   18  C16 UNL     1      26.506   0.199  54.915  1.00  0.00     0.032 A 
ENDBRANCH  10  12
ENDBRANCH   8  10
BRANCH   1  19
HETATM   19  N1  UNL     1      24.144   2.416  50.388  1.00  0.00    -0.388 N 
HETATM   20  H8  UNL     1      24.110   2.409  49.355  1.00  0.00     0.159 HD
BRANCH  19  21
HETATM   21  C2  UNL     1      25.030   3.373  50.987  1.00  0.00     0.083 C 
HETATM   22  C1  UNL     1      26.460   3.043  50.662  1.00  0.00     0.032 C 
BRANCH  21  23
HETATM   23  C3  UNL     1      24.751   4.807  50.705  1.00  0.00     0.094 C 
BRANCH  23  24
HETATM   24  C4  UNL     1      23.659   5.364  51.550  1.00  0.00     0.233 C 
HETATM   25  O1  UNL     1      22.665   4.880  52.065  1.00  0.00    -0.307 OA
ENDBRANCH  23  24
ENDBRANCH  21  23
ENDBRANCH  19  21
ENDBRANCH   1  19
TORSDOF 6
ENDMDL
MODEL 4
REMARK VINA RESULT:      -7.4      3.195      5.427
REMARK  6 active torsions:
REMARK  status: ('A' for Active; 'I' for Inactive)
REMARK    1  A    between atoms: C2_2  and  C3_3 
REMARK    2  A    between atoms: C2_2  and  N1_6 
REMARK    3  A    between atoms: C3_3  and  C4_4 
REMARK    4  A    between atoms: N1_6  and  C5_7 
REMARK    5  A    between atoms: C10_14  and  N3_15 
REMARK    6  A    between atoms: N3_15  and  C11_16 
ROOT
HETATM    1  C5  UNL     1      25.960   2.272  51.987  1.00  0.00     0.007 C 
HETATM    2  C6  UNL     1      26.644   2.757  50.935  1.00  0.00     0.005 C 
HETATM    3  C7  UNL     1      26.666   3.655  49.802  1.00  0.00     0.101 C 
HETATM    4  C8  UNL     1      25.529   4.588  49.658  1.00  0.00     0.106 C 
HETATM    5 CL1  UNL     1      25.967   5.933  48.577  1.00  0.00    -0.067 Cl
HETATM    6  N2  UNL     1      24.284   4.759  50.051  1.00  0.00    -0.251 NA
HETATM    7  C9  UNL     1      23.489   3.921  50.913  1.00  0.00     0.143 C 
HETATM    8  C10 UNL     1      23.590   3.034  51.886  1.00  0.00     0.033 C 
HETATM    9  C17 UNL     1      24.678   2.436  52.634  1.00  0.00     0.114 C 
ENDROOT
BRANCH   8  10
HETATM   10  N3  UNL     1      22.271   2.585  52.279  1.00  0.00    -0.358 N 
HETATM   11  H13 UNL     1      21.455   3.242  52.092  1.00  0.00     0.166 HD
BRANCH  10  12
HETATM   12  C11 UNL     1      22.082   1.308  52.882  1.00  0.00     0.032 A 
HETATM   13  C12 UNL     1      22.849   0.178  52.581  1.00  0.00     0.032 A 
HETATM   14  C13 UNL     1      22.688  -1.058  53.182  1.00  0.00     0.044 A 
HETATM   15  C14 UNL     1      21.700  -1.146  54.134  1.00  0.00     0.116 A 
HETATM   16  F1  UNL     1      21.588  -2.389  54.705  1.00  0.00    -0.206 F 
HETATM   17  C15 UNL     1      20.916  -0.050  54.465  1.00  0.00     0.044 A 
HETATM   18  C16 UNL     1      21.093   1.162  53.858  1.00  0.00     0.032 A 
ENDBRANCH  10  12
ENDBRANCH   8  10
BRANCH   1  19
HETATM   19  N1  UNL     1      26.986   1.368  52.443  1.00  0.00    -0.388 N 
HETATM   20  H8  UNL     1      28.005   1.369  52.276  1.00  0.00     0.159 HD
BRANCH  19  21
HETATM   21  C2  UNL     1      26.478   0.307  53.267  1.00  0.00     0.083 C 
HETATM   22  C1  UNL     1      26.499  -0.996  52.519  1.00  0.00     0.032 C 
BRANCH  21  23
HETATM   23  C3  UNL     1      27.105   0.147  54.607  1.00  0.00     0.094 C 
BRANCH  23  24
HETATM   24  C4  UNL     1      28.505   0.653  54.658  1.00  0.00     0.233 C 
HETATM   25  O1  UNL     1      28.993   1.769  54.713  1.00  0.00    -0.307 OA
ENDBRANCH  23  24
ENDBRANCH  21  23
ENDBRANCH  19  21
ENDBRANCH   1  19
TORSDOF 6
ENDMDL
MODEL 5
REMARK VINA RESULT:      -7.3      1.760      2.233
REMARK  6 active torsions:
REMARK  status: ('A' for Active; 'I' for Inactive)
REMARK    1  A    between atoms: C2_2  and  C3_3 
REMARK    2  A    between atoms: C2_2  and  N1_6 
REMARK    3  A    between atoms: C3_3  and  C4_4 
REMARK    4  A    between atoms: N1_6  and  C5_7 
REMARK    5  A    between atoms: C10_14  and  N3_15 
REMARK    6  A    between atoms: N3_15  and  C11_16 
ROOT
HETATM    1  C5  UNL     1      23.654   2.453  51.866  1.00  0.00     0.007 C 
HETATM    2  C6  UNL     1      22.755   2.447  50.866  1.00  0.00     0.005 C 
HETATM    3  C7  UNL     1      21.588   1.829  50.277  1.00  0.00     0.101 C 
HETATM    4  C8  UNL     1      20.918   0.768  51.059  1.00  0.00     0.106 C 
HETATM    5 CL1  UNL     1      19.259   0.515  50.465  1.00  0.00    -0.067 Cl
HETATM    6  N2  UNL     1      21.137  -0.072  52.050  1.00  0.00    -0.251 NA
HETATM    7  C9  UNL     1      22.337  -0.252  52.828  1.00  0.00     0.143 C 
HETATM    8  C10 UNL     1      23.422   0.384  53.233  1.00  0.00     0.033 C 
HETATM    9  C17 UNL     1      23.961   1.719  53.073  1.00  0.00     0.114 C 
ENDROOT
BRANCH   8  10
HETATM   10  N3  UNL     1      24.236  -0.502  54.039  1.00  0.00    -0.358 N 
HETATM   11  H13 UNL     1      23.729  -1.176  54.688  1.00  0.00     0.166 HD
BRANCH  10  12
HETATM   12  C11 UNL     1      25.658  -0.470  53.952  1.00  0.00     0.032 A 
HETATM   13  C12 UNL     1      26.486   0.145  54.898  1.00  0.00     0.032 A 
HETATM   14  C13 UNL     1      27.868   0.157  54.833  1.00  0.00     0.044 A 
HETATM   15  C14 UNL     1      28.432  -0.488  53.758  1.00  0.00     0.116 A 
HETATM   16  F1  UNL     1      29.804  -0.454  53.747  1.00  0.00    -0.206 F 
HETATM   17  C15 UNL     1      27.648  -1.112  52.797  1.00  0.00     0.044 A 
HETATM   18  C16 UNL     1      26.284  -1.111  52.881  1.00  0.00     0.032 A 
ENDBRANCH  10  12
ENDBRANCH   8  10
BRANCH   1  19
HETATM   19  N1  UNL     1      24.409   3.587  51.395  1.00  0.00    -0.388 N 
HETATM   20  H8  UNL     1      24.553   4.520  51.815  1.00  0.00     0.159 HD
BRANCH  19  21
HETATM   21  C2  UNL     1      25.063   3.349  50.139  1.00  0.00     0.083 C 
HETATM   22  C1  UNL     1      25.002   4.575  49.273  1.00  0.00     0.032 C 
BRANCH  21  23
HETATM   23  C3  UNL     1      26.454   2.825  50.202  1.00  0.00     0.094 C 
BRANCH  23  24
HETATM   24  C4  UNL     1      26.877   2.462  51.583  1.00  0.00     0.233 C 
HETATM   25  O1  UNL     1      27.936   2.538  52.183  1.00  0.00    -0.307 OA
ENDBRANCH  23  24
ENDBRANCH  21  23
ENDBRANCH  19  21
ENDBRANCH   1  19
TORSDOF 6
ENDMDL
MODEL 6
REMARK VINA RESULT:      -7.2      3.711      6.620
REMARK  6 active torsions:
REMARK  status: ('A' for Active; 'I' for Inactive)
REMARK    1  A    between atoms: C2_2  and  C3_3 
REMARK    2  A    between atoms: C2_2  and  N1_6 
REMARK    3  A    between atoms: C3_3  and  C4_4 
REMARK    4  A    between atoms: N1_6  and  C5_7 
REMARK    5  A    between atoms: C10_14  and  N3_15 
REMARK    6  A    between atoms: N3_15  and  C11_16 
ROOT
HETATM    1  C5  UNL     1      26.213   0.877  54.200  1.00  0.00     0.007 C 
HETATM    2  C6  UNL     1      25.559  -0.196  54.679  1.00  0.00     0.005 C 
HETATM    3  C7  UNL     1      24.328  -0.952  54.734  1.00  0.00     0.101 C 
HETATM    4  C8  UNL     1      23.231  -0.521  53.842  1.00  0.00     0.106 C 
HETATM    5 CL1  UNL     1      22.044  -1.832  53.643  1.00  0.00    -0.067 Cl
HETATM    6  N2  UNL     1      22.821   0.520  53.148  1.00  0.00    -0.251 NA
HETATM    7  C9  UNL     1      23.438   1.816  53.019  1.00  0.00     0.143 C 
HETATM    8  C10 UNL     1      24.608   2.425  53.088  1.00  0.00     0.033 C 
HETATM    9  C17 UNL     1      25.975   2.016  53.342  1.00  0.00     0.114 C 
ENDROOT
BRANCH   8  10
HETATM   10  N3  UNL     1      24.441   3.839  52.831  1.00  0.00    -0.358 N 
HETATM   11  H13 UNL     1      24.512   4.499  53.664  1.00  0.00     0.166 HD
BRANCH  10  12
HETATM   12  C11 UNL     1      24.201   4.321  51.512  1.00  0.00     0.032 A 
HETATM   13  C12 UNL     1      25.030   4.053  50.417  1.00  0.00     0.032 A 
HETATM   14  C13 UNL     1      24.789   4.495  49.129  1.00  0.00     0.044 A 
HETATM   15  C14 UNL     1      23.651   5.244  48.947  1.00  0.00     0.116 A 
HETATM   16  F1  UNL     1      23.454   5.650  47.651  1.00  0.00    -0.206 F 
HETATM   17  C15 UNL     1      22.799   5.534  50.004  1.00  0.00     0.044 A 
HETATM   18  C16 UNL     1      23.058   5.086  51.270  1.00  0.00     0.032 A 
ENDBRANCH  10  12
ENDBRANCH   8  10
BRANCH   1  19
HETATM   19  N1  UNL     1      27.471   0.600  54.846  1.00  0.00    -0.388 N 
HETATM   20  H8  UNL     1      27.686   0.374  55.831  1.00  0.00     0.159 HD
BRANCH  19  21
HETATM   21  C2  UNL     1      28.590   0.647  53.947  1.00  0.00     0.083 C 
HETATM   22  C1  UNL     1      29.343   1.937  54.110  1.00  0.00     0.032 C 
BRANCH  21  23
HETATM   23  C3  UNL     1      29.526  -0.509  53.989  1.00  0.00     0.094 C 
BRANCH  23  24
HETATM   24  C4  UNL     1      29.061  -1.663  53.170  1.00  0.00     0.233 C 
HETATM   25  O1  UNL     1      28.825  -2.833  53.424  1.00  0.00    -0.307 OA
ENDBRANCH  23  24
ENDBRANCH  21  23
ENDBRANCH  19  21
ENDBRANCH   1  19
TORSDOF 6
ENDMDL
MODEL 7
REMARK VINA RESULT:      -7.2      3.785      5.626
REMARK  6 active torsions:
REMARK  status: ('A' for Active; 'I' for Inactive)
REMARK    1  A    between atoms: C2_2  and  C3_3 
REMARK    2  A    between atoms: C2_2  and  N1_6 
REMARK    3  A    between atoms: C3_3  and  C4_4 
REMARK    4  A    between atoms: N1_6  and  C5_7 
REMARK    5  A    between atoms: C10_14  and  N3_15 
REMARK    6  A    between atoms: N3_15  and  C11_16 
ROOT
HETATM    1  C5  UNL     1      25.860   1.923  52.393  1.00  0.00     0.007 C 
HETATM    2  C6  UNL     1      27.154   2.065  52.731  1.00  0.00     0.005 C 
HETATM    3  C7  UNL     1      28.351   1.454  53.264  1.00  0.00     0.101 C 
HETATM    4  C8  UNL     1      28.312  -0.002  53.513  1.00  0.00     0.106 C 
HETATM    5 CL1  UNL     1      29.965  -0.653  53.639  1.00  0.00    -0.067 Cl
HETATM    6  N2  UNL     1      27.461  -0.992  53.689  1.00  0.00    -0.251 NA
HETATM    7  C9  UNL     1      26.021  -0.951  53.695  1.00  0.00     0.143 C 
HETATM    8  C10 UNL     1      24.996  -0.259  53.230  1.00  0.00     0.033 C 
HETATM    9  C17 UNL     1      24.831   0.907  52.386  1.00  0.00     0.114 C 
ENDROOT
BRANCH   8  10
HETATM   10  N3  UNL     1      23.757  -0.850  53.689  1.00  0.00    -0.358 N 
HETATM   11  H13 UNL     1      23.828  -1.704  54.322  1.00  0.00     0.166 HD
BRANCH  10  12
HETATM   12  C11 UNL     1      22.498  -0.300  53.311  1.00  0.00     0.032 A 
HETATM   13  C12 UNL     1      22.081  -0.138  51.986  1.00  0.00     0.032 A 
HETATM   14  C13 UNL     1      20.850   0.372  51.612  1.00  0.00     0.044 A 
HETATM   15  C14 UNL     1      20.006   0.732  52.635  1.00  0.00     0.116 A 
HETATM   16  F1  UNL     1      18.797   1.223  52.212  1.00  0.00    -0.206 F 
HETATM   17  C15 UNL     1      20.379   0.589  53.965  1.00  0.00     0.044 A 
HETATM   18  C16 UNL     1      21.601   0.083  54.310  1.00  0.00     0.032 A 
ENDBRANCH  10  12
ENDBRANCH   8  10
BRANCH   1  19
HETATM   19  N1  UNL     1      25.664   3.275  51.934  1.00  0.00    -0.388 N 
HETATM   20  H8  UNL     1      26.208   4.133  52.119  1.00  0.00     0.159 HD
BRANCH  19  21
HETATM   21  C2  UNL     1      24.524   3.420  51.073  1.00  0.00     0.083 C 
HETATM   22  C1  UNL     1      23.455   4.232  51.748  1.00  0.00     0.032 C 
BRANCH  21  23
HETATM   23  C3  UNL     1      24.785   3.940  49.704  1.00  0.00     0.094 C 
BRANCH  23  24
HETATM   24  C4  UNL     1      26.177   4.438  49.527  1.00  0.00     0.233 C 
HETATM   25  O1  UNL     1      27.255   3.885  49.386  1.00  0.00    -0.307 OA
ENDBRANCH  23  24
ENDBRANCH  21  23
ENDBRANCH  19  21
ENDBRANCH   1  19
TORSDOF 6
ENDMDL
MODEL 8
REMARK VINA RESULT:      -7.2      2.962      5.048
REMARK  6 active torsions:
REMARK  status: ('A' for Active; 'I' for Inactive)
REMARK    1  A    between atoms: C2_2  and  C3_3 
REMARK    2  A    between atoms: C2_2  and  N1_6 
REMARK    3  A    between atoms: C3_3  and  C4_4 
REMARK    4  A    between atoms: N1_6  and  C5_7 
REMARK    5  A    between atoms: C10_14  and  N3_15 
REMARK    6  A    between atoms: N3_15  and  C11_16 
ROOT
HETATM    1  C5  UNL     1      22.508   1.182  51.616  1.00  0.00     0.007 C 
HETATM    2  C6  UNL     1      21.813   1.858  50.684  1.00  0.00     0.005 C 
HETATM    3  C7  UNL     1      21.761   2.985  49.779  1.00  0.00     0.101 C 
HETATM    4  C8  UNL     1      22.985   3.802  49.646  1.00  0.00     0.106 C 
HETATM    5 CL1  UNL     1      22.925   4.767  48.151  1.00  0.00    -0.067 Cl
HETATM    6  N2  UNL     1      24.113   4.072  50.270  1.00  0.00    -0.251 NA
HETATM    7  C9  UNL     1      24.594   3.552  51.525  1.00  0.00     0.143 C 
HETATM    8  C10 UNL     1      24.493   2.508  52.328  1.00  0.00     0.033 C 
HETATM    9  C17 UNL     1      23.777   1.248  52.304  1.00  0.00     0.114 C 
ENDROOT
BRANCH   8  10
HETATM   10  N3  UNL     1      25.324   2.707  53.497  1.00  0.00    -0.358 N 
HETATM   11  H13 UNL     1      25.049   3.489  54.164  1.00  0.00     0.166 HD
BRANCH  10  12
HETATM   12  C11 UNL     1      26.456   1.877  53.740  1.00  0.00     0.032 A 
HETATM   13  C12 UNL     1      27.727   2.108  53.201  1.00  0.00     0.032 A 
HETATM   14  C13 UNL     1      28.836   1.321  53.454  1.00  0.00     0.044 A 
HETATM   15  C14 UNL     1      28.644   0.252  54.296  1.00  0.00     0.116 A 
HETATM   16  F1  UNL     1      29.776  -0.490  54.520  1.00  0.00    -0.206 F 
HETATM   17  C15 UNL     1      27.401  -0.014  54.854  1.00  0.00     0.044 A 
HETATM   18  C16 UNL     1      26.318   0.777  54.589  1.00  0.00     0.032 A 
ENDBRANCH  10  12
ENDBRANCH   8  10
BRANCH   1  19
HETATM   19  N1  UNL     1      21.523   0.152  51.834  1.00  0.00    -0.388 N 
HETATM   20  H8  UNL     1      21.451  -0.802  51.445  1.00  0.00     0.159 HD
BRANCH  19  21
HETATM   21  C2  UNL     1      20.491   0.543  52.753  1.00  0.00     0.083 C 
HETATM   22  C1  UNL     1      19.197  -0.142  52.413  1.00  0.00     0.032 C 
BRANCH  21  23
HETATM   23  C3  UNL     1      20.795   0.389  54.201  1.00  0.00     0.094 C 
BRANCH  23  24
HETATM   24  C4  UNL     1      21.307  -0.966  54.547  1.00  0.00     0.233 C 
HETATM   25  O1  UNL     1      22.211  -1.660  54.110  1.00  0.00    -0.307 OA
ENDBRANCH  23  24
ENDBRANCH  21  23
ENDBRANCH  19  21
ENDBRANCH   1  19
TORSDOF 6
ENDMDL
MODEL 9
REMARK VINA RESULT:      -7.1      2.943      4.221
REMARK  6 active torsions:
REMARK  status: ('A' for Active; 'I' for Inactive)
REMARK    1  A    between atoms: C2_2  and  C3_3 
REMARK    2  A    between atoms: C2_2  and  N1_6 
REMARK    3  A    between atoms: C3_3  and  C4_4 
REMARK    4  A    between atoms: N1_6  and  C5_7 
REMARK    5  A    between atoms: C10_14  and  N3_15 
REMARK    6  A    between atoms: N3_15  and  C11_16 
ROOT
HETATM    1  C5  UNL     1      23.505   2.661  50.462  1.00  0.00     0.007 C 
HETATM    2  C6  UNL     1      23.869   3.737  49.741  1.00  0.00     0.005 C 
HETATM    3  C7  UNL     1      24.941   4.586  49.272  1.00  0.00     0.101 C 
HETATM    4  C8  UNL     1      26.324   4.152  49.563  1.00  0.00     0.106 C 
HETATM    5 CL1  UNL     1      27.473   4.983  48.486  1.00  0.00    -0.067 Cl
HETATM    6  N2  UNL     1      27.004   3.360  50.366  1.00  0.00    -0.251 NA
HETATM    7  C9  UNL     1      26.512   2.505  51.416  1.00  0.00     0.143 C 
HETATM    8  C10 UNL     1      25.439   1.839  51.801  1.00  0.00     0.033 C 
HETATM    9  C17 UNL     1      24.107   1.626  51.271  1.00  0.00     0.114 C 
ENDROOT
BRANCH   8  10
HETATM   10  N3  UNL     1      25.703   1.165  53.055  1.00  0.00    -0.358 N 
HETATM   11  H13 UNL     1      25.113   1.446  53.895  1.00  0.00     0.166 HD
BRANCH  10  12
HETATM   12  C11 UNL     1      26.709   0.160  53.148  1.00  0.00     0.032 A 
HETATM   13  C12 UNL     1      27.932   0.335  53.806  1.00  0.00     0.032 A 
HETATM   14  C13 UNL     1      28.902  -0.645  53.922  1.00  0.00     0.044 A 
HETATM   15  C14 UNL     1      28.613  -1.857  53.344  1.00  0.00     0.116 A 
HETATM   16  F1  UNL     1      29.603  -2.796  53.496  1.00  0.00    -0.206 F 
HETATM   17  C15 UNL     1      27.412  -2.075  52.682  1.00  0.00     0.044 A 
HETATM   18  C16 UNL     1      26.468  -1.092  52.579  1.00  0.00     0.032 A 
ENDBRANCH  10  12
ENDBRANCH   8  10
BRANCH   1  19
HETATM   19  N1  UNL     1      22.091   2.767  50.205  1.00  0.00    -0.388 N 
HETATM   20  H8  UNL     1      21.463   2.170  49.642  1.00  0.00     0.159 HD
BRANCH  19  21
HETATM   21  C2  UNL     1      21.481   3.892  50.858  1.00  0.00     0.083 C 
HETATM   22  C1  UNL     1      20.270   4.350  50.095  1.00  0.00     0.032 C 
BRANCH  21  23
HETATM   23  C3  UNL     1      21.155   3.727  52.300  1.00  0.00     0.094 C 
BRANCH  23  24
HETATM   24  C4  UNL     1      20.372   2.492  52.582  1.00  0.00     0.233 C 
HETATM   25  O1  UNL     1      20.446   1.341  52.185  1.00  0.00    -0.307 OA
ENDBRANCH  23  24
ENDBRANCH  21  23
ENDBRANCH  19  21
ENDBRANCH   1  19
TORSDOF 6
ENDMDL
