MODEL 1
REMARK VINA RESULT:      -6.5      0.000      0.000
REMARK  9 active torsions:
REMARK  status: ('A' for Active; 'I' for Inactive)
REMARK    1  A    between atoms: C1_2  and  O2_3 
REMARK    2  A    between atoms: C1_2  and  C2_4 
REMARK    3  A    between atoms: C2_4  and  C3_5 
REMARK    4  A    between atoms: C3_5  and  C4_6 
REMARK    5  A    between atoms: C4_6  and  C5_7 
REMARK    6  A    between atoms: C5_7  and  O3_8 
REMARK    7  A    between atoms: O3_8  and  C6_9 
REMARK    8  A    between atoms: C6_9  and  O4_10 
REMARK    9  A    between atoms: C6_9  and  P1_11 
ROOT
HETATM    1  C4  UNL     1      25.694   0.889  52.632  1.00  0.00     0.065 A 
HETATM    2  C7  UNL     1      25.589   2.134  53.435  1.00  0.00     0.093 A 
HETATM    3  S1  UNL     1      24.438   3.288  53.487  1.00  0.00    -0.064 SA
HETATM    4  N1  UNL     1      26.738   2.260  54.282  1.00  0.00    -0.349 N 
HETATM    5  C8  UNL     1      27.592   1.129  54.048  1.00  0.00     0.040 A 
HETATM    6  C9  UNL     1      28.812   0.781  54.606  1.00  0.00     0.030 A 
HETATM    7  C10 UNL     1      29.413  -0.386  54.180  1.00  0.00     0.002 A 
HETATM    8  C11 UNL     1      28.871  -1.226  53.233  1.00  0.00     0.001 A 
HETATM    9  C12 UNL     1      27.652  -0.830  52.709  1.00  0.00     0.011 A 
HETATM   10  C13 UNL     1      27.005   0.307  53.083  1.00  0.00    -0.014 A 
HETATM   11  H10 UNL     1      26.993   3.014  54.980  1.00  0.00     0.166 HD
ENDROOT
BRANCH   1  12
HETATM   12  C3  UNL     1      24.642  -0.116  52.959  1.00  0.00     0.034 C 
BRANCH  12  13
HETATM   13  C2  UNL     1      24.670  -0.557  54.406  1.00  0.00     0.111 C 
BRANCH  13  14
HETATM   14  C1  UNL     1      23.257  -0.957  54.732  1.00  0.00     0.139 C 
HETATM   15  O1  UNL     1      22.198  -0.601  54.141  1.00  0.00    -0.650 OA
BRANCH  14  16
HETATM   16  O2  UNL     1      22.953  -1.819  55.790  1.00  0.00    -0.776 OA
HETATM   17  H1  UNL     1      23.542  -2.574  56.081  1.00  0.00     0.167 HD
ENDBRANCH  14  16
ENDBRANCH  13  14
ENDBRANCH  12  13
ENDBRANCH   1  12
BRANCH   1  18
HETATM   18  C5  UNL     1      25.736   1.282  51.181  1.00  0.00     0.199 C 
BRANCH  18  19
HETATM   19  O3  UNL     1      26.820   2.123  50.871  1.00  0.00    -0.329 OA
BRANCH  19  20
HETATM   20  C6  UNL     1      26.556   3.270  50.136  1.00  0.00     0.181 C 
BRANCH  20  21
HETATM   21  O4  UNL     1      27.396   4.288  49.694  1.00  0.00    -0.341 OA
HETATM   22  H8  UNL     1      27.671   4.390  48.724  1.00  0.00     0.220 HD
ENDBRANCH  20  21
BRANCH  20  23
HETATM   23  P1  UNL     1      24.961   3.517  49.677  1.00  0.00    -0.008 P 
HETATM   24  H9  UNL     1      23.870   3.030  50.513  1.00  0.00     0.071 HD
ENDBRANCH  20  23
ENDBRANCH  19  20
ENDBRANCH  18  19
ENDBRANCH   1  18
TORSDOF 9
ENDMDL
MODEL 2
REMARK VINA RESULT:      -6.4      3.346      5.417
REMARK  9 active torsions:
REMARK  status: ('A' for Active; 'I' for Inactive)
REMARK    1  A    between atoms: C1_2  and  O2_3 
REMARK    2  A    between atoms: C1_2  and  C2_4 
REMARK    3  A    between atoms: C2_4  and  C3_5 
REMARK    4  A    between atoms: C3_5  and  C4_6 
REMARK    5  A    between atoms: C4_6  and  C5_7 
REMARK    6  A    between atoms: C5_7  and  O3_8 
REMARK    7  A    between atoms: O3_8  and  C6_9 
REMARK    8  A    between atoms: C6_9  and  O4_10 
REMARK    9  A    between atoms: C6_9  and  P1_11 
ROOT
HETATM    1  C4  UNL     1      24.340   2.337  52.092  1.00  0.00     0.065 A 
HETATM    2  C7  UNL     1      24.340   2.698  50.651  1.00  0.00     0.093 A 
HETATM    3  S1  UNL     1      25.362   3.613  49.770  1.00  0.00    -0.064 SA
HETATM    4  N1  UNL     1      23.213   2.094  50.003  1.00  0.00    -0.349 N 
HETATM    5  C8  UNL     1      22.478   1.349  50.987  1.00  0.00     0.040 A 
HETATM    6  C9  UNL     1      21.322   0.592  50.877  1.00  0.00     0.030 A 
HETATM    7  C10 UNL     1      20.834  -0.020  52.013  1.00  0.00     0.002 A 
HETATM    8  C11 UNL     1      21.430   0.076  53.252  1.00  0.00     0.001 A 
HETATM    9  C12 UNL     1      22.581   0.844  53.305  1.00  0.00     0.011 A 
HETATM   10  C13 UNL     1      23.115   1.475  52.224  1.00  0.00    -0.014 A 
HETATM   11  H10 UNL     1      22.904   2.135  48.992  1.00  0.00     0.166 HD
ENDROOT
BRANCH   1  12
HETATM   12  C3  UNL     1      25.504   1.494  52.489  1.00  0.00     0.034 C 
BRANCH  12  13
HETATM   13  C2  UNL     1      26.123   1.915  53.805  1.00  0.00     0.111 C 
BRANCH  13  14
HETATM   14  C1  UNL     1      27.511   2.386  53.464  1.00  0.00     0.139 C 
HETATM   15  O1  UNL     1      28.494   2.519  54.245  1.00  0.00    -0.650 OA
BRANCH  14  16
HETATM   16  O2  UNL     1      27.874   2.747  52.164  1.00  0.00    -0.776 OA
HETATM   17  H1  UNL     1      28.769   3.123  51.917  1.00  0.00     0.167 HD
ENDBRANCH  14  16
ENDBRANCH  13  14
ENDBRANCH  12  13
ENDBRANCH   1  12
BRANCH   1  18
HETATM   18  C5  UNL     1      24.206   3.609  52.883  1.00  0.00     0.199 C 
BRANCH  18  19
HETATM   19  O3  UNL     1      23.089   4.375  52.506  1.00  0.00    -0.329 OA
BRANCH  19  20
HETATM   20  C6  UNL     1      23.319   5.651  52.010  1.00  0.00     0.181 C 
BRANCH  20  21
HETATM   21  O4  UNL     1      24.297   6.590  52.318  1.00  0.00    -0.341 OA
HETATM   22  H8  UNL     1      25.203   6.608  51.864  1.00  0.00     0.220 HD
ENDBRANCH  20  21
BRANCH  20  23
HETATM   23  P1  UNL     1      22.257   6.200  50.832  1.00  0.00    -0.008 P 
HETATM   24  H9  UNL     1      21.237   5.311  50.287  1.00  0.00     0.071 HD
ENDBRANCH  20  23
ENDBRANCH  19  20
ENDBRANCH  18  19
ENDBRANCH   1  18
TORSDOF 9
ENDMDL
MODEL 3
REMARK VINA RESULT:      -6.0      2.585      3.096
REMARK  9 active torsions:
REMARK  status: ('A' for Active; 'I' for Inactive)
REMARK    1  A    between atoms: C1_2  and  O2_3 
REMARK    2  A    between atoms: C1_2  and  C2_4 
REMARK    3  A    between atoms: C2_4  and  C3_5 
REMARK    4  A    between atoms: C3_5  and  C4_6 
REMARK    5  A    between atoms: C4_6  and  C5_7 
REMARK    6  A    between atoms: C5_7  and  O3_8 
REMARK    7  A    between atoms: O3_8  and  C6_9 
REMARK    8  A    between atoms: C6_9  and  O4_10 
REMARK    9  A    between atoms: C6_9  and  P1_11 
ROOT
HETATM    1  C4  UNL     1      22.996   1.666  52.483  1.00  0.00     0.065 A 
HETATM    2  C7  UNL     1      23.106   3.142  52.609  1.00  0.00     0.093 A 
HETATM    3  S1  UNL     1      22.039   4.333  52.293  1.00  0.00    -0.064 SA
HETATM    4  N1  UNL     1      24.407   3.488  53.102  1.00  0.00    -0.349 N 
HETATM    5  C8  UNL     1      25.148   2.274  53.297  1.00  0.00     0.040 A 
HETATM    6  C9  UNL     1      26.441   2.061  53.752  1.00  0.00     0.030 A 
HETATM    7  C10 UNL     1      26.895   0.761  53.837  1.00  0.00     0.002 A 
HETATM    8  C11 UNL     1      26.139  -0.339  53.497  1.00  0.00     0.001 A 
HETATM    9  C12 UNL     1      24.857  -0.069  53.049  1.00  0.00     0.011 A 
HETATM   10  C13 UNL     1      24.346   1.187  52.941  1.00  0.00    -0.014 A 
HETATM   11  H10 UNL     1      24.829   4.436  53.312  1.00  0.00     0.166 HD
ENDROOT
BRANCH   1  12
HETATM   12  C3  UNL     1      21.991   1.068  53.407  1.00  0.00     0.034 C 
BRANCH  12  13
HETATM   13  C2  UNL     1      21.344  -0.183  52.854  1.00  0.00     0.111 C 
BRANCH  13  14
HETATM   14  C1  UNL     1      21.004  -1.024  54.055  1.00  0.00     0.139 C 
HETATM   15  O1  UNL     1      21.718  -1.236  55.075  1.00  0.00    -0.650 OA
BRANCH  14  16
HETATM   16  O2  UNL     1      19.785  -1.698  54.169  1.00  0.00    -0.776 OA
HETATM   17  H1  UNL     1      19.157  -1.590  54.941  1.00  0.00     0.167 HD
ENDBRANCH  14  16
ENDBRANCH  13  14
ENDBRANCH  12  13
ENDBRANCH   1  12
BRANCH   1  18
HETATM   18  C5  UNL     1      22.761   1.347  51.032  1.00  0.00     0.199 C 
BRANCH  18  19
HETATM   19  O3  UNL     1      23.568   2.107  50.165  1.00  0.00    -0.329 OA
BRANCH  19  20
HETATM   20  C6  UNL     1      22.960   2.687  49.061  1.00  0.00     0.181 C 
BRANCH  20  21
HETATM   21  O4  UNL     1      23.169   3.913  48.438  1.00  0.00    -0.341 OA
HETATM   22  H8  UNL     1      23.602   4.700  48.908  1.00  0.00     0.220 HD
ENDBRANCH  20  21
BRANCH  20  23
HETATM   23  P1  UNL     1      21.755   1.790  48.312  1.00  0.00    -0.008 P 
HETATM   24  H9  UNL     1      21.991   1.184  47.006  1.00  0.00     0.071 HD
ENDBRANCH  20  23
ENDBRANCH  19  20
ENDBRANCH  18  19
ENDBRANCH   1  18
TORSDOF 9
ENDMDL
MODEL 4
REMARK VINA RESULT:      -5.9      3.814      5.659
REMARK  9 active torsions:
REMARK  status: ('A' for Active; 'I' for Inactive)
REMARK    1  A    between atoms: C1_2  and  O2_3 
REMARK    2  A    between atoms: C1_2  and  C2_4 
REMARK    3  A    between atoms: C2_4  and  C3_5 
REMARK    4  A    between atoms: C3_5  and  C4_6 
REMARK    5  A    between atoms: C4_6  and  C5_7 
REMARK    6  A    between atoms: C5_7  and  O3_8 
REMARK    7  A    between atoms: O3_8  and  C6_9 
REMARK    8  A    between atoms: C6_9  and  O4_10 
REMARK    9  A    between atoms: C6_9  and  P1_11 
ROOT
HETATM    1  C4  UNL     1      22.559   2.175  51.987  1.00  0.00     0.065 A 
HETATM    2  C7  UNL     1      21.308   2.974  52.040  1.00  0.00     0.093 A 
HETATM    3  S1  UNL     1      20.914   4.403  51.362  1.00  0.00    -0.064 SA
HETATM    4  N1  UNL     1      20.336   2.295  52.845  1.00  0.00    -0.349 N 
HETATM    5  C8  UNL     1      20.924   1.073  53.320  1.00  0.00     0.040 A 
HETATM    6  C9  UNL     1      20.408   0.071  54.127  1.00  0.00     0.030 A 
HETATM    7  C10 UNL     1      21.219  -1.005  54.426  1.00  0.00     0.002 A 
HETATM    8  C11 UNL     1      22.511  -1.142  53.968  1.00  0.00     0.001 A 
HETATM    9  C12 UNL     1      22.975  -0.112  53.167  1.00  0.00     0.011 A 
HETATM   10  C13 UNL     1      22.230   0.976  52.834  1.00  0.00    -0.014 A 
HETATM   11  H10 UNL     1      19.344   2.569  53.096  1.00  0.00     0.166 HD
ENDROOT
BRANCH   1  12
HETATM   12  C3  UNL     1      22.876   1.664  50.623  1.00  0.00     0.034 C 
BRANCH  12  13
HETATM   13  C2  UNL     1      21.706   0.970  49.960  1.00  0.00     0.111 C 
BRANCH  13  14
HETATM   14  C1  UNL     1      21.524   1.665  48.638  1.00  0.00     0.139 C 
HETATM   15  O1  UNL     1      20.444   2.067  48.119  1.00  0.00    -0.650 OA
BRANCH  14  16
HETATM   16  O2  UNL     1      22.601   1.955  47.796  1.00  0.00    -0.776 OA
HETATM   17  H1  UNL     1      23.309   2.632  48.008  1.00  0.00     0.167 HD
ENDBRANCH  14  16
ENDBRANCH  13  14
ENDBRANCH  12  13
ENDBRANCH   1  12
BRANCH   1  18
HETATM   18  C5  UNL     1      23.655   3.000  52.603  1.00  0.00     0.199 C 
BRANCH  18  19
HETATM   19  O3  UNL     1      24.906   2.793  51.994  1.00  0.00    -0.329 OA
BRANCH  19  20
HETATM   20  C6  UNL     1      25.905   2.205  52.757  1.00  0.00     0.181 C 
BRANCH  20  21
HETATM   21  O4  UNL     1      26.509   2.608  53.944  1.00  0.00    -0.341 OA
HETATM   22  H8  UNL     1      27.223   2.060  54.410  1.00  0.00     0.220 HD
ENDBRANCH  20  21
BRANCH  20  23
HETATM   23  P1  UNL     1      26.525   0.752  52.189  1.00  0.00    -0.008 P 
HETATM   24  H9  UNL     1      25.805  -0.009  51.175  1.00  0.00     0.071 HD
ENDBRANCH  20  23
ENDBRANCH  19  20
ENDBRANCH  18  19
ENDBRANCH   1  18
TORSDOF 9
ENDMDL
MODEL 5
REMARK VINA RESULT:      -5.9      4.268      5.541
REMARK  9 active torsions:
REMARK  status: ('A' for Active; 'I' for Inactive)
REMARK    1  A    between atoms: C1_2  and  O2_3 
REMARK    2  A    between atoms: C1_2  and  C2_4 
REMARK    3  A    between atoms: C2_4  and  C3_5 
REMARK    4  A    between atoms: C3_5  and  C4_6 
REMARK    5  A    between atoms: C4_6  and  C5_7 
REMARK    6  A    between atoms: C5_7  and  O3_8 
REMARK    7  A    between atoms: O3_8  and  C6_9 
REMARK    8  A    between atoms: C6_9  and  O4_10 
REMARK    9  A    between atoms: C6_9  and  P1_11 
ROOT
HETATM    1  C4  UNL     1      22.322   2.531  51.920  1.00  0.00     0.065 A 
HETATM    2  C7  UNL     1      20.854   2.665  52.101  1.00  0.00     0.093 A 
HETATM    3  S1  UNL     1      19.792   3.755  51.515  1.00  0.00    -0.064 SA
HETATM    4  N1  UNL     1      20.375   1.614  52.950  1.00  0.00    -0.349 N 
HETATM    5  C8  UNL     1      21.495   0.799  53.328  1.00  0.00     0.040 A 
HETATM    6  C9  UNL     1      21.568  -0.330  54.130  1.00  0.00     0.030 A 
HETATM    7  C10 UNL     1      22.803  -0.913  54.321  1.00  0.00     0.002 A 
HETATM    8  C11 UNL     1      23.970  -0.441  53.760  1.00  0.00     0.001 A 
HETATM    9  C12 UNL     1      23.839   0.688  52.969  1.00  0.00     0.011 A 
HETATM   10  C13 UNL     1      22.653   1.313  52.740  1.00  0.00    -0.014 A 
HETATM   11  H10 UNL     1      19.394   1.402  53.287  1.00  0.00     0.166 HD
ENDROOT
BRANCH   1  12
HETATM   12  C3  UNL     1      22.718   2.224  50.516  1.00  0.00     0.034 C 
BRANCH  12  13
HETATM   13  C2  UNL     1      21.846   1.171  49.868  1.00  0.00     0.111 C 
BRANCH  13  14
HETATM   14  C1  UNL     1      21.560   1.683  48.482  1.00  0.00     0.139 C 
HETATM   15  O1  UNL     1      20.467   2.134  48.037  1.00  0.00    -0.650 OA
BRANCH  14  16
HETATM   16  O2  UNL     1      22.537   1.713  47.484  1.00  0.00    -0.776 OA
HETATM   17  H1  UNL     1      22.535   1.115  46.681  1.00  0.00     0.167 HD
ENDBRANCH  14  16
ENDBRANCH  13  14
ENDBRANCH  12  13
ENDBRANCH   1  12
BRANCH   1  18
HETATM   18  C5  UNL     1      22.968   3.766  52.483  1.00  0.00     0.199 C 
BRANCH  18  19
HETATM   19  O3  UNL     1      23.769   4.443  51.546  1.00  0.00    -0.329 OA
BRANCH  19  20
HETATM   20  C6  UNL     1      23.681   5.827  51.502  1.00  0.00     0.181 C 
BRANCH  20  21
HETATM   21  O4  UNL     1      24.487   6.815  52.058  1.00  0.00    -0.341 OA
HETATM   22  H8  UNL     1      25.087   6.648  52.857  1.00  0.00     0.220 HD
ENDBRANCH  20  21
BRANCH  20  23
HETATM   23  P1  UNL     1      22.392   6.468  50.639  1.00  0.00    -0.008 P 
HETATM   24  H9  UNL     1      22.492   6.657  49.196  1.00  0.00     0.071 HD
ENDBRANCH  20  23
ENDBRANCH  19  20
ENDBRANCH  18  19
ENDBRANCH   1  18
TORSDOF 9
ENDMDL
MODEL 6
REMARK VINA RESULT:      -5.9      3.418      5.611
REMARK  9 active torsions:
REMARK  status: ('A' for Active; 'I' for Inactive)
REMARK    1  A    between atoms: C1_2  and  O2_3 
REMARK    2  A    between atoms: C1_2  and  C2_4 
REMARK    3  A    between atoms: C2_4  and  C3_5 
REMARK    4  A    between atoms: C3_5  and  C4_6 
REMARK    5  A    between atoms: C4_6  and  C5_7 
REMARK    6  A    between atoms: C5_7  and  O3_8 
REMARK    7  A    between atoms: O3_8  and  C6_9 
REMARK    8  A    between atoms: C6_9  and  O4_10 
REMARK    9  A    between atoms: C6_9  and  P1_11 
ROOT
HETATM    1  C4  UNL     1      23.764   2.046  52.206  1.00  0.00     0.065 A 
HETATM    2  C7  UNL     1      25.098   1.394  52.227  1.00  0.00     0.093 A 
HETATM    3  S1  UNL     1      26.514   1.817  51.536  1.00  0.00    -0.064 SA
HETATM    4  N1  UNL     1      25.038   0.197  53.011  1.00  0.00    -0.349 N 
HETATM    5  C8  UNL     1      23.696   0.050  53.502  1.00  0.00     0.040 A 
HETATM    6  C9  UNL     1      23.121  -0.929  54.297  1.00  0.00     0.030 A 
HETATM    7  C10 UNL     1      21.783  -0.807  54.613  1.00  0.00     0.002 A 
HETATM    8  C11 UNL     1      20.986   0.231  54.185  1.00  0.00     0.001 A 
HETATM    9  C12 UNL     1      21.610   1.180  53.393  1.00  0.00     0.011 A 
HETATM   10  C13 UNL     1      22.924   1.121  53.044  1.00  0.00    -0.014 A 
HETATM   11  H10 UNL     1      25.793  -0.509  53.241  1.00  0.00     0.166 HD
ENDROOT
BRANCH   1  12
HETATM   12  C3  UNL     1      23.745   3.374  52.883  1.00  0.00     0.034 C 
BRANCH  12  13
HETATM   13  C2  UNL     1      22.969   4.423  52.116  1.00  0.00     0.111 C 
BRANCH  13  14
HETATM   14  C1  UNL     1      23.992   5.426  51.658  1.00  0.00     0.139 C 
HETATM   15  O1  UNL     1      24.705   5.381  50.616  1.00  0.00    -0.650 OA
BRANCH  14  16
HETATM   16  O2  UNL     1      24.276   6.584  52.387  1.00  0.00    -0.776 OA
HETATM   17  H1  UNL     1      24.021   6.716  53.346  1.00  0.00     0.167 HD
ENDBRANCH  14  16
ENDBRANCH  13  14
ENDBRANCH  12  13
ENDBRANCH   1  12
BRANCH   1  18
HETATM   18  C5  UNL     1      23.291   2.078  50.779  1.00  0.00     0.199 C 
BRANCH  18  19
HETATM   19  O3  UNL     1      22.397   1.037  50.473  1.00  0.00    -0.329 OA
BRANCH  19  20
HETATM   20  C6  UNL     1      21.441   1.274  49.495  1.00  0.00     0.181 C 
BRANCH  20  21
HETATM   21  O4  UNL     1      21.346   0.832  48.180  1.00  0.00    -0.341 OA
HETATM   22  H8  UNL     1      22.004   0.178  47.773  1.00  0.00     0.220 HD
ENDBRANCH  20  21
BRANCH  20  23
HETATM   23  P1  UNL     1      20.155   2.263  49.929  1.00  0.00    -0.008 P 
HETATM   24  H9  UNL     1      18.991   1.704  50.606  1.00  0.00     0.071 HD
ENDBRANCH  20  23
ENDBRANCH  19  20
ENDBRANCH  18  19
ENDBRANCH   1  18
TORSDOF 9
ENDMDL
MODEL 7
REMARK VINA RESULT:      -5.8      1.934      2.463
REMARK  9 active torsions:
REMARK  status: ('A' for Active; 'I' for Inactive)
REMARK    1  A    between atoms: C1_2  and  O2_3 
REMARK    2  A    between atoms: C1_2  and  C2_4 
REMARK    3  A    between atoms: C2_4  and  C3_5 
REMARK    4  A    between atoms: C3_5  and  C4_6 
REMARK    5  A    between atoms: C4_6  and  C5_7 
REMARK    6  A    between atoms: C5_7  and  O3_8 
REMARK    7  A    between atoms: O3_8  and  C6_9 
REMARK    8  A    between atoms: C6_9  and  O4_10 
REMARK    9  A    between atoms: C6_9  and  P1_11 
ROOT
HETATM    1  C4  UNL     1      23.867   2.299  51.567  1.00  0.00     0.065 A 
HETATM    2  C7  UNL     1      23.579   3.466  52.439  1.00  0.00     0.093 A 
HETATM    3  S1  UNL     1      22.411   4.601  52.369  1.00  0.00    -0.064 SA
HETATM    4  N1  UNL     1      24.543   3.526  53.498  1.00  0.00    -0.349 N 
HETATM    5  C8  UNL     1      25.454   2.428  53.337  1.00  0.00     0.040 A 
HETATM    6  C9  UNL     1      26.554   2.042  54.086  1.00  0.00     0.030 A 
HETATM    7  C10 UNL     1      27.255   0.923  53.685  1.00  0.00     0.002 A 
HETATM    8  C11 UNL     1      26.925   0.166  52.583  1.00  0.00     0.001 A 
HETATM    9  C12 UNL     1      25.818   0.596  51.870  1.00  0.00     0.011 A 
HETATM   10  C13 UNL     1      25.083   1.690  52.210  1.00  0.00    -0.014 A 
HETATM   11  H10 UNL     1      24.641   4.217  54.295  1.00  0.00     0.166 HD
ENDROOT
BRANCH   1  12
HETATM   12  C3  UNL     1      22.798   1.260  51.599  1.00  0.00     0.034 C 
BRANCH  12  13
HETATM   13  C2  UNL     1      21.978   1.288  52.871  1.00  0.00     0.111 C 
BRANCH  13  14
HETATM   14  C1  UNL     1      22.185  -0.056  53.513  1.00  0.00     0.139 C 
HETATM   15  O1  UNL     1      22.905  -1.008  53.097  1.00  0.00    -0.650 OA
BRANCH  14  16
HETATM   16  O2  UNL     1      21.562  -0.410  54.713  1.00  0.00    -0.776 OA
HETATM   17  H1  UNL     1      21.430  -1.356  55.016  1.00  0.00     0.167 HD
ENDBRANCH  14  16
ENDBRANCH  13  14
ENDBRANCH  12  13
ENDBRANCH   1  12
BRANCH   1  18
HETATM   18  C5  UNL     1      24.174   2.820  50.191  1.00  0.00     0.199 C 
BRANCH  18  19
HETATM   19  O3  UNL     1      24.651   4.143  50.199  1.00  0.00    -0.329 OA
BRANCH  19  20
HETATM   20  C6  UNL     1      25.994   4.346  49.910  1.00  0.00     0.181 C 
BRANCH  20  21
HETATM   21  O4  UNL     1      27.130   3.641  50.293  1.00  0.00    -0.341 OA
HETATM   22  H8  UNL     1      27.851   4.040  50.883  1.00  0.00     0.220 HD
ENDBRANCH  20  21
BRANCH  20  23
HETATM   23  P1  UNL     1      26.360   5.661  48.933  1.00  0.00    -0.008 P 
HETATM   24  H9  UNL     1      25.699   6.943  49.145  1.00  0.00     0.071 HD
ENDBRANCH  20  23
ENDBRANCH  19  20
ENDBRANCH  18  19
ENDBRANCH   1  18
TORSDOF 9
ENDMDL
MODEL 8
REMARK VINA RESULT:      -5.6      9.015     10.595
REMARK  9 active torsions:
REMARK  status: ('A' for Active; 'I' for Inactive)
REMARK    1  A    between atoms: C1_2  and  O2_3 
REMARK    2  A    between atoms: C1_2  and  C2_4 
REMARK    3  A    between atoms: C2_4  and  C3_5 
REMARK    4  A    between atoms: C3_5  and  C4_6 
REMARK    5  A    between atoms: C4_6  and  C5_7 
REMARK    6  A    between atoms: C5_7  and  O3_8 
REMARK    7  A    between atoms: O3_8  and  C6_9 
REMARK    8  A    between atoms: C6_9  and  O4_10 
REMARK    9  A    between atoms: C6_9  and  P1_11 
ROOT
HETATM    1  C4  UNL     1      32.519   6.643  46.755  1.00  0.00     0.065 A 
HETATM    2  C7  UNL     1      33.837   7.270  47.032  1.00  0.00     0.093 A 
HETATM    3  S1  UNL     1      34.283   8.834  47.145  1.00  0.00    -0.064 SA
HETATM    4  N1  UNL     1      34.826   6.250  47.220  1.00  0.00    -0.349 N 
HETATM    5  C8  UNL     1      34.186   4.973  47.071  1.00  0.00     0.040 A 
HETATM    6  C9  UNL     1      34.694   3.686  47.155  1.00  0.00     0.030 A 
HETATM    7  C10 UNL     1      33.827   2.631  46.961  1.00  0.00     0.002 A 
HETATM    8  C11 UNL     1      32.485   2.780  46.689  1.00  0.00     0.001 A 
HETATM    9  C12 UNL     1      32.031   4.087  46.616  1.00  0.00     0.011 A 
HETATM   10  C13 UNL     1      32.831   5.172  46.796  1.00  0.00    -0.014 A 
HETATM   11  H10 UNL     1      35.860   6.332  47.434  1.00  0.00     0.166 HD
ENDROOT
BRANCH   1  12
HETATM   12  C3  UNL     1      31.509   6.898  47.822  1.00  0.00     0.034 C 
BRANCH  12  13
HETATM   13  C2  UNL     1      30.102   7.051  47.285  1.00  0.00     0.111 C 
BRANCH  13  14
HETATM   14  C1  UNL     1      29.238   6.199  48.174  1.00  0.00     0.139 C 
HETATM   15  O1  UNL     1      27.986   6.039  48.110  1.00  0.00    -0.650 OA
BRANCH  14  16
HETATM   16  O2  UNL     1      29.767   5.450  49.229  1.00  0.00    -0.776 OA
HETATM   17  H1  UNL     1      29.225   5.107  49.998  1.00  0.00     0.167 HD
ENDBRANCH  14  16
ENDBRANCH  13  14
ENDBRANCH  12  13
ENDBRANCH   1  12
BRANCH   1  18
HETATM   18  C5  UNL     1      32.085   7.077  45.383  1.00  0.00     0.199 C 
BRANCH  18  19
HETATM   19  O3  UNL     1      33.110   6.976  44.425  1.00  0.00    -0.329 OA
BRANCH  19  20
HETATM   20  C6  UNL     1      32.807   6.359  43.219  1.00  0.00     0.181 C 
BRANCH  20  21
HETATM   21  O4  UNL     1      31.963   6.741  42.182  1.00  0.00    -0.341 OA
HETATM   22  H8  UNL     1      31.312   7.514  42.260  1.00  0.00     0.220 HD
ENDBRANCH  20  21
BRANCH  20  23
HETATM   23  P1  UNL     1      33.567   4.894  42.915  1.00  0.00    -0.008 P 
HETATM   24  H9  UNL     1      33.338   4.192  41.657  1.00  0.00     0.071 HD
ENDBRANCH  20  23
ENDBRANCH  19  20
ENDBRANCH  18  19
ENDBRANCH   1  18
TORSDOF 9
ENDMDL
MODEL 9
REMARK VINA RESULT:      -5.5      3.464      5.295
REMARK  9 active torsions:
REMARK  status: ('A' for Active; 'I' for Inactive)
REMARK    1  A    between atoms: C1_2  and  O2_3 
REMARK    2  A    between atoms: C1_2  and  C2_4 
REMARK    3  A    between atoms: C2_4  and  C3_5 
REMARK    4  A    between atoms: C3_5  and  C4_6 
REMARK    5  A    between atoms: C4_6  and  C5_7 
REMARK    6  A    between atoms: C5_7  and  O3_8 
REMARK    7  A    between atoms: O3_8  and  C6_9 
REMARK    8  A    between atoms: C6_9  and  O4_10 
REMARK    9  A    between atoms: C6_9  and  P1_11 
ROOT
HETATM    1  C4  UNL     1      24.301   3.438  50.899  1.00  0.00     0.065 A 
HETATM    2  C7  UNL     1      23.313   4.519  51.145  1.00  0.00     0.093 A 
HETATM    3  S1  UNL     1      21.897   4.520  51.952  1.00  0.00    -0.064 SA
HETATM    4  N1  UNL     1      23.765   5.734  50.532  1.00  0.00    -0.349 N 
HETATM    5  C8  UNL     1      25.023   5.470  49.891  1.00  0.00     0.040 A 
HETATM    6  C9  UNL     1      25.865   6.299  49.166  1.00  0.00     0.030 A 
HETATM    7  C10 UNL     1      27.028   5.761  48.658  1.00  0.00     0.002 A 
HETATM    8  C11 UNL     1      27.404   4.446  48.829  1.00  0.00     0.001 A 
HETATM    9  C12 UNL     1      26.526   3.663  49.559  1.00  0.00     0.011 A 
HETATM   10  C13 UNL     1      25.363   4.129  50.088  1.00  0.00    -0.014 A 
HETATM   11  H10 UNL     1      23.319   6.693  50.507  1.00  0.00     0.166 HD
ENDROOT
BRANCH   1  12
HETATM   12  C3  UNL     1      24.962   2.948  52.143  1.00  0.00     0.034 C 
BRANCH  12  13
HETATM   13  C2  UNL     1      25.059   1.439  52.211  1.00  0.00     0.111 C 
BRANCH  13  14
HETATM   14  C1  UNL     1      25.671   1.136  53.552  1.00  0.00     0.139 C 
HETATM   15  O1  UNL     1      25.624   0.048  54.193  1.00  0.00    -0.650 OA
BRANCH  14  16
HETATM   16  O2  UNL     1      26.400   2.088  54.269  1.00  0.00    -0.776 OA
HETATM   17  H1  UNL     1      26.012   2.945  54.614  1.00  0.00     0.167 HD
ENDBRANCH  14  16
ENDBRANCH  13  14
ENDBRANCH  12  13
ENDBRANCH   1  12
BRANCH   1  18
HETATM   18  C5  UNL     1      23.615   2.362  50.105  1.00  0.00     0.199 C 
BRANCH  18  19
HETATM   19  O3  UNL     1      23.106   2.825  48.878  1.00  0.00    -0.329 OA
BRANCH  19  20
HETATM   20  C6  UNL     1      21.833   2.411  48.510  1.00  0.00     0.181 C 
BRANCH  20  21
HETATM   21  O4  UNL     1      20.993   2.835  47.486  1.00  0.00    -0.341 OA
HETATM   22  H8  UNL     1      21.340   3.232  46.620  1.00  0.00     0.220 HD
ENDBRANCH  20  21
BRANCH  20  23
HETATM   23  P1  UNL     1      21.147   1.189  49.432  1.00  0.00    -0.008 P 
HETATM   24  H9  UNL     1      19.897   1.419  50.148  1.00  0.00     0.071 HD
ENDBRANCH  20  23
ENDBRANCH  19  20
ENDBRANCH  18  19
ENDBRANCH   1  18
TORSDOF 9
ENDMDL
