MODEL 1
REMARK VINA RESULT:      -8.1      0.000      0.000
REMARK  7 active torsions:
REMARK  status: ('A' for Active; 'I' for Inactive)
REMARK    1  A    between atoms: C5_7  and  C6_8 
REMARK    2  A    between atoms: C6_8  and  C7_9 
REMARK    3  A    between atoms: C7_9  and  C8_10 
REMARK    4  A    between atoms: C9_11  and  C10_12 
REMARK    5  A    between atoms: N4_20  and  C16_21 
REMARK    6  A    between atoms: C16_21  and  C17_22 
REMARK    7  A    between atoms: C17_22  and  N5_23 
ROOT
HETATM    1  C8  UNL     1      24.546   2.260  51.487  1.00  0.00     0.045 A 
HETATM    2  C9  UNL     1      24.547   2.968  50.314  1.00  0.00     0.087 A 
HETATM    3  N3  UNL     1      23.362   2.618  49.763  1.00  0.00    -0.241 NA
HETATM    4  C15 UNL     1      22.680   1.768  50.522  1.00  0.00     0.210 A 
HETATM    5  N4  UNL     1      23.406   1.522  51.621  1.00  0.00    -0.341 N 
ENDROOT
BRANCH   1   6
HETATM    6  C7  UNL     1      25.614   2.265  52.500  1.00  0.00     0.089 C 
BRANCH   6   7
HETATM    7  C6  UNL     1      26.663   1.299  52.097  1.00  0.00     0.011 C 
BRANCH   7   8
HETATM    8  C5  UNL     1      27.514   0.690  52.895  1.00  0.00     0.059 A 
HETATM    9  C2  UNL     1      28.554   1.143  53.674  1.00  0.00     0.002 A 
HETATM   10  C1  UNL     1      28.920   2.408  53.766  1.00  0.00     0.027 C 
HETATM   11  C3  UNL     1      29.199   0.157  54.367  1.00  0.00     0.151 A 
HETATM   12  N1  UNL     1      28.521  -0.924  53.988  1.00  0.00    -0.184 NA
HETATM   13  N2  UNL     1      27.555  -0.629  53.147  1.00  0.00    -0.274 N 
HETATM   14  C4  UNL     1      26.621  -1.594  52.542  1.00  0.00     0.180 C 
ENDBRANCH   7   8
ENDBRANCH   6   7
ENDBRANCH   1   6
BRANCH   2  15
HETATM   15  C10 UNL     1      25.495   3.878  49.698  1.00  0.00    -0.021 A 
HETATM   16  C11 UNL     1      26.733   3.706  49.285  1.00  0.00     0.051 A 
HETATM   17  C12 UNL     1      27.352   4.895  48.712  1.00  0.00     0.113 A 
HETATM   18  F1  UNL     1      28.578   5.072  48.203  1.00  0.00    -0.206 F 
HETATM   19  C13 UNL     1      26.406   5.813  48.801  1.00  0.00     0.020 A 
HETATM   20  C14 UNL     1      25.167   5.304  49.410  1.00  0.00     0.071 A 
ENDBRANCH   2  15
BRANCH   5  21
HETATM   21  C16 UNL     1      23.044   0.649  52.719  1.00  0.00     0.160 C 
BRANCH  21  22
HETATM   22  C17 UNL     1      21.804  -0.137  52.437  1.00  0.00     0.291 C 
BRANCH  22  23
HETATM   23  N5  UNL     1      20.956  -0.330  53.574  1.00  0.00     0.081 N 
HETATM   24  C18 UNL     1      19.561  -0.480  53.259  1.00  0.00     0.309 C 
HETATM   25  C19 UNL     1      21.366  -1.404  54.421  1.00  0.00     0.309 C 
ENDBRANCH  22  23
ENDBRANCH  21  22
ENDBRANCH   5  21
TORSDOF 7
ENDMDL
MODEL 2
REMARK VINA RESULT:      -8.0      2.632      5.754
REMARK  7 active torsions:
REMARK  status: ('A' for Active; 'I' for Inactive)
REMARK    1  A    between atoms: C5_7  and  C6_8 
REMARK    2  A    between atoms: C6_8  and  C7_9 
REMARK    3  A    between atoms: C7_9  and  C8_10 
REMARK    4  A    between atoms: C9_11  and  C10_12 
REMARK    5  A    between atoms: N4_20  and  C16_21 
REMARK    6  A    between atoms: C16_21  and  C17_22 
REMARK    7  A    between atoms: C17_22  and  N5_23 
ROOT
HETATM    1  C8  UNL     1      25.157   2.429  51.916  1.00  0.00     0.045 A 
HETATM    2  C9  UNL     1      26.513   2.251  51.837  1.00  0.00     0.087 A 
HETATM    3  N3  UNL     1      26.814   2.836  50.654  1.00  0.00    -0.241 NA
HETATM    4  C15 UNL     1      25.743   3.336  50.049  1.00  0.00     0.210 A 
HETATM    5  N4  UNL     1      24.678   3.092  50.824  1.00  0.00    -0.341 N 
ENDROOT
BRANCH   1   6
HETATM    6  C7  UNL     1      24.290   1.980  53.017  1.00  0.00     0.089 C 
BRANCH   6   7
HETATM    7  C6  UNL     1      23.990   0.540  52.836  1.00  0.00     0.011 C 
BRANCH   7   8
HETATM    8  C5  UNL     1      23.193  -0.194  53.585  1.00  0.00     0.059 A 
HETATM    9  C2  UNL     1      21.845  -0.460  53.533  1.00  0.00     0.002 A 
HETATM   10  C1  UNL     1      21.023   0.028  52.624  1.00  0.00     0.027 C 
HETATM   11  C3  UNL     1      21.406  -1.294  54.525  1.00  0.00     0.151 A 
HETATM   12  N1  UNL     1      22.532  -1.534  55.192  1.00  0.00    -0.184 NA
HETATM   13  N2  UNL     1      23.561  -0.909  54.661  1.00  0.00    -0.274 N 
HETATM   14  C4  UNL     1      24.947  -0.966  55.156  1.00  0.00     0.180 C 
ENDBRANCH   7   8
ENDBRANCH   6   7
ENDBRANCH   1   6
BRANCH   2  15
HETATM   15  C10 UNL     1      27.490   1.620  52.705  1.00  0.00    -0.021 A 
HETATM   16  C11 UNL     1      27.763   0.353  52.942  1.00  0.00     0.051 A 
HETATM   17  C12 UNL     1      28.838   0.135  53.902  1.00  0.00     0.113 A 
HETATM   18  F1  UNL     1      29.365  -1.006  54.366  1.00  0.00    -0.206 F 
HETATM   19  C13 UNL     1      29.209   1.357  54.239  1.00  0.00     0.020 A 
HETATM   20  C14 UNL     1      28.434   2.403  53.553  1.00  0.00     0.071 A 
ENDBRANCH   2  15
BRANCH   5  21
HETATM   21  C16 UNL     1      23.305   3.461  50.548  1.00  0.00     0.160 C 
BRANCH  21  22
HETATM   22  C17 UNL     1      23.184   4.855  50.021  1.00  0.00     0.291 C 
BRANCH  22  23
HETATM   23  N5  UNL     1      23.060   5.860  51.033  1.00  0.00     0.081 N 
HETATM   24  C18 UNL     1      24.214   6.705  51.178  1.00  0.00     0.309 C 
HETATM   25  C19 UNL     1      21.894   6.672  50.896  1.00  0.00     0.309 C 
ENDBRANCH  22  23
ENDBRANCH  21  22
ENDBRANCH   5  21
TORSDOF 7
ENDMDL
MODEL 3
REMARK VINA RESULT:      -7.8      2.635      5.849
REMARK  7 active torsions:
REMARK  status: ('A' for Active; 'I' for Inactive)
REMARK    1  A    between atoms: C5_7  and  C6_8 
REMARK    2  A    between atoms: C6_8  and  C7_9 
REMARK    3  A    between atoms: C7_9  and  C8_10 
REMARK    4  A    between atoms: C9_11  and  C10_12 
REMARK    5  A    between atoms: N4_20  and  C16_21 
REMARK    6  A    between atoms: C16_21  and  C17_22 
REMARK    7  A    between atoms: C17_22  and  N5_23 
ROOT
HETATM    1  C8  UNL     1      24.522   2.100  51.579  1.00  0.00     0.045 A 
HETATM    2  C9  UNL     1      23.289   1.510  51.677  1.00  0.00     0.087 A 
HETATM    3  N3  UNL     1      22.681   1.917  50.539  1.00  0.00    -0.241 NA
HETATM    4  C15 UNL     1      23.462   2.693  49.795  1.00  0.00     0.210 A 
HETATM    5  N4  UNL     1      24.635   2.827  50.429  1.00  0.00    -0.341 N 
ENDROOT
BRANCH   1   6
HETATM    6  C7  UNL     1      25.612   1.992  52.561  1.00  0.00     0.089 C 
BRANCH   6   7
HETATM    7  C6  UNL     1      26.523   0.898  52.149  1.00  0.00     0.011 C 
BRANCH   7   8
HETATM    8  C5  UNL     1      27.493   0.374  52.869  1.00  0.00     0.059 A 
HETATM    9  C2  UNL     1      28.528   0.926  53.586  1.00  0.00     0.002 A 
HETATM   10  C1  UNL     1      28.756   2.222  53.688  1.00  0.00     0.027 C 
HETATM   11  C3  UNL     1      29.328   0.006  54.205  1.00  0.00     0.151 A 
HETATM   12  N1  UNL     1      28.750  -1.137  53.845  1.00  0.00    -0.184 NA
HETATM   13  N2  UNL     1      27.698  -0.937  53.080  1.00  0.00    -0.274 N 
HETATM   14  C4  UNL     1      26.836  -1.989  52.515  1.00  0.00     0.180 C 
ENDBRANCH   7   8
ENDBRANCH   6   7
ENDBRANCH   1   6
BRANCH   2  15
HETATM   15  C10 UNL     1      22.666   0.660  52.674  1.00  0.00    -0.021 A 
HETATM   16  C11 UNL     1      23.062  -0.461  53.242  1.00  0.00     0.051 A 
HETATM   17  C12 UNL     1      22.125  -1.012  54.212  1.00  0.00     0.113 A 
HETATM   18  F1  UNL     1      22.209  -2.118  54.963  1.00  0.00    -0.206 F 
HETATM   19  C13 UNL     1      21.123  -0.152  54.204  1.00  0.00     0.020 A 
HETATM   20  C14 UNL     1      21.333   0.964  53.267  1.00  0.00     0.071 A 
ENDBRANCH   2  15
BRANCH   5  21
HETATM   21  C16 UNL     1      25.779   3.591  49.976  1.00  0.00     0.160 C 
BRANCH  21  22
HETATM   22  C17 UNL     1      25.433   5.016  49.685  1.00  0.00     0.291 C 
BRANCH  22  23
HETATM   23  N5  UNL     1      26.346   5.676  48.801  1.00  0.00     0.081 N 
HETATM   24  C18 UNL     1      26.616   7.047  49.138  1.00  0.00     0.309 C 
HETATM   25  C19 UNL     1      27.581   4.981  48.627  1.00  0.00     0.309 C 
ENDBRANCH  22  23
ENDBRANCH  21  22
ENDBRANCH   5  21
TORSDOF 7
ENDMDL
MODEL 4
REMARK VINA RESULT:      -7.8      2.656      5.591
REMARK  7 active torsions:
REMARK  status: ('A' for Active; 'I' for Inactive)
REMARK    1  A    between atoms: C5_7  and  C6_8 
REMARK    2  A    between atoms: C6_8  and  C7_9 
REMARK    3  A    between atoms: C7_9  and  C8_10 
REMARK    4  A    between atoms: C9_11  and  C10_12 
REMARK    5  A    between atoms: N4_20  and  C16_21 
REMARK    6  A    between atoms: C16_21  and  C17_22 
REMARK    7  A    between atoms: C17_22  and  N5_23 
ROOT
HETATM    1  C8  UNL     1      25.006   2.624  51.825  1.00  0.00     0.045 A 
HETATM    2  C9  UNL     1      26.203   1.982  51.647  1.00  0.00     0.087 A 
HETATM    3  N3  UNL     1      26.787   2.719  50.675  1.00  0.00    -0.241 NA
HETATM    4  C15 UNL     1      26.025   3.733  50.280  1.00  0.00     0.210 A 
HETATM    5  N4  UNL     1      24.890   3.698  50.991  1.00  0.00    -0.341 N 
ENDROOT
BRANCH   1   6
HETATM    6  C7  UNL     1      23.954   2.242  52.780  1.00  0.00     0.089 C 
BRANCH   6   7
HETATM    7  C6  UNL     1      23.336   0.972  52.332  1.00  0.00     0.011 C 
BRANCH   7   8
HETATM    8  C5  UNL     1      22.650   0.130  53.076  1.00  0.00     0.059 A 
HETATM    9  C2  UNL     1      23.005  -0.710  54.106  1.00  0.00     0.002 A 
HETATM   10  C1  UNL     1      24.230  -0.833  54.579  1.00  0.00     0.027 C 
HETATM   11  C3  UNL     1      21.961  -1.431  54.618  1.00  0.00     0.151 A 
HETATM   12  N1  UNL     1      20.948  -1.006  53.867  1.00  0.00    -0.184 NA
HETATM   13  N2  UNL     1      21.332  -0.112  52.982  1.00  0.00    -0.274 N 
HETATM   14  C4  UNL     1      20.458   0.556  52.004  1.00  0.00     0.180 C 
ENDBRANCH   7   8
ENDBRANCH   6   7
ENDBRANCH   1   6
BRANCH   2  15
HETATM   15  C10 UNL     1      26.809   0.814  52.258  1.00  0.00    -0.021 A 
HETATM   16  C11 UNL     1      26.762  -0.465  51.944  1.00  0.00     0.051 A 
HETATM   17  C12 UNL     1      27.523  -1.336  52.830  1.00  0.00     0.113 A 
HETATM   18  F1  UNL     1      27.691  -2.664  52.802  1.00  0.00    -0.206 F 
HETATM   19  C13 UNL     1      28.045  -0.504  53.714  1.00  0.00     0.020 A 
HETATM   20  C14 UNL     1      27.672   0.899  53.471  1.00  0.00     0.071 A 
ENDBRANCH   2  15
BRANCH   5  21
HETATM   21  C16 UNL     1      23.775   4.616  50.884  1.00  0.00     0.160 C 
BRANCH  21  22
HETATM   22  C17 UNL     1      22.940   4.361  49.671  1.00  0.00     0.291 C 
BRANCH  22  23
HETATM   23  N5  UNL     1      22.025   3.267  49.803  1.00  0.00     0.081 N 
HETATM   24  C18 UNL     1      20.639   3.635  49.709  1.00  0.00     0.309 C 
HETATM   25  C19 UNL     1      22.289   2.186  48.908  1.00  0.00     0.309 C 
ENDBRANCH  22  23
ENDBRANCH  21  22
ENDBRANCH   5  21
TORSDOF 7
ENDMDL
MODEL 5
REMARK VINA RESULT:      -7.7      2.585      5.438
REMARK  7 active torsions:
REMARK  status: ('A' for Active; 'I' for Inactive)
REMARK    1  A    between atoms: C5_7  and  C6_8 
REMARK    2  A    between atoms: C6_8  and  C7_9 
REMARK    3  A    between atoms: C7_9  and  C8_10 
REMARK    4  A    between atoms: C9_11  and  C10_12 
REMARK    5  A    between atoms: N4_20  and  C16_21 
REMARK    6  A    between atoms: C16_21  and  C17_22 
REMARK    7  A    between atoms: C17_22  and  N5_23 
ROOT
HETATM    1  C8  UNL     1      23.158   0.048  53.371  1.00  0.00     0.045 A 
HETATM    2  C9  UNL     1      24.194  -0.506  54.076  1.00  0.00     0.087 A 
HETATM    3  N3  UNL     1      23.550  -1.166  55.066  1.00  0.00    -0.241 NA
HETATM    4  C15 UNL     1      22.230  -1.036  54.988  1.00  0.00     0.210 A 
HETATM    5  N4  UNL     1      21.952  -0.272  53.924  1.00  0.00    -0.341 N 
ENDROOT
BRANCH   1   6
HETATM    6  C7  UNL     1      23.283   0.886  52.168  1.00  0.00     0.089 C 
BRANCH   6   7
HETATM    7  C6  UNL     1      23.941   2.162  52.536  1.00  0.00     0.011 C 
BRANCH   7   8
HETATM    8  C5  UNL     1      24.478   3.034  51.709  1.00  0.00     0.059 A 
HETATM    9  C2  UNL     1      25.675   3.066  51.032  1.00  0.00     0.002 A 
HETATM   10  C1  UNL     1      26.597   2.125  51.103  1.00  0.00     0.027 C 
HETATM   11  C3  UNL     1      25.844   4.180  50.257  1.00  0.00     0.151 A 
HETATM   12  N1  UNL     1      24.708   4.836  50.478  1.00  0.00    -0.184 NA
HETATM   13  N2  UNL     1      23.919   4.187  51.308  1.00  0.00    -0.274 N 
HETATM   14  C4  UNL     1      22.591   4.639  51.757  1.00  0.00     0.180 C 
ENDBRANCH   7   8
ENDBRANCH   6   7
ENDBRANCH   1   6
BRANCH   2  15
HETATM   15  C10 UNL     1      25.636  -0.474  53.923  1.00  0.00    -0.021 A 
HETATM   16  C11 UNL     1      26.579   0.122  54.623  1.00  0.00     0.051 A 
HETATM   17  C12 UNL     1      27.932  -0.097  54.128  1.00  0.00     0.113 A 
HETATM   18  F1  UNL     1      29.106   0.351  54.592  1.00  0.00    -0.206 F 
HETATM   19  C13 UNL     1      27.758  -0.873  53.073  1.00  0.00     0.020 A 
HETATM   20  C14 UNL     1      26.342  -1.192  52.823  1.00  0.00     0.071 A 
ENDBRANCH   2  15
BRANCH   5  21
HETATM   21  C16 UNL     1      20.637   0.128  53.467  1.00  0.00     0.160 C 
BRANCH  21  22
HETATM   22  C17 UNL     1      19.648  -0.991  53.527  1.00  0.00     0.291 C 
BRANCH  22  23
HETATM   23  N5  UNL     1      18.366  -0.677  52.973  1.00  0.00     0.081 N 
HETATM   24  C18 UNL     1      18.398  -0.245  51.602  1.00  0.00     0.309 C 
HETATM   25  C19 UNL     1      17.406  -1.725  53.115  1.00  0.00     0.309 C 
ENDBRANCH  22  23
ENDBRANCH  21  22
ENDBRANCH   5  21
TORSDOF 7
ENDMDL
MODEL 6
REMARK VINA RESULT:      -7.7      2.614      6.086
REMARK  7 active torsions:
REMARK  status: ('A' for Active; 'I' for Inactive)
REMARK    1  A    between atoms: C5_7  and  C6_8 
REMARK    2  A    between atoms: C6_8  and  C7_9 
REMARK    3  A    between atoms: C7_9  and  C8_10 
REMARK    4  A    between atoms: C9_11  and  C10_12 
REMARK    5  A    between atoms: N4_20  and  C16_21 
REMARK    6  A    between atoms: C16_21  and  C17_22 
REMARK    7  A    between atoms: C17_22  and  N5_23 
ROOT
HETATM    1  C8  UNL     1      24.947   2.698  51.650  1.00  0.00     0.045 A 
HETATM    2  C9  UNL     1      26.215   2.181  51.616  1.00  0.00     0.087 A 
HETATM    3  N3  UNL     1      26.780   2.867  50.595  1.00  0.00    -0.241 NA
HETATM    4  C15 UNL     1      25.942   3.735  50.041  1.00  0.00     0.210 A 
HETATM    5  N4  UNL     1      24.772   3.651  50.688  1.00  0.00    -0.341 N 
ENDROOT
BRANCH   1   6
HETATM    6  C7  UNL     1      23.880   2.307  52.585  1.00  0.00     0.089 C 
BRANCH   6   7
HETATM    7  C6  UNL     1      23.359   0.977  52.191  1.00  0.00     0.011 C 
BRANCH   7   8
HETATM    8  C5  UNL     1      22.663   0.154  52.947  1.00  0.00     0.059 A 
HETATM    9  C2  UNL     1      23.001  -0.652  54.009  1.00  0.00     0.002 A 
HETATM   10  C1  UNL     1      24.217  -0.753  54.511  1.00  0.00     0.027 C 
HETATM   11  C3  UNL     1      21.951  -1.363  54.522  1.00  0.00     0.151 A 
HETATM   12  N1  UNL     1      20.951  -0.968  53.739  1.00  0.00    -0.184 NA
HETATM   13  N2  UNL     1      21.348  -0.099  52.834  1.00  0.00    -0.274 N 
HETATM   14  C4  UNL     1      20.490   0.533  51.818  1.00  0.00     0.180 C 
ENDBRANCH   7   8
ENDBRANCH   6   7
ENDBRANCH   1   6
BRANCH   2  15
HETATM   15  C10 UNL     1      26.901   1.167  52.394  1.00  0.00    -0.021 A 
HETATM   16  C11 UNL     1      27.672   1.251  53.459  1.00  0.00     0.051 A 
HETATM   17  C12 UNL     1      28.176  -0.028  53.944  1.00  0.00     0.113 A 
HETATM   18  F1  UNL     1      28.970  -0.304  54.987  1.00  0.00    -0.206 F 
HETATM   19  C13 UNL     1      27.661  -0.907  53.104  1.00  0.00     0.020 A 
HETATM   20  C14 UNL     1      26.827  -0.285  52.062  1.00  0.00     0.071 A 
ENDBRANCH   2  15
BRANCH   5  21
HETATM   21  C16 UNL     1      23.574   4.416  50.412  1.00  0.00     0.160 C 
BRANCH  21  22
HETATM   22  C17 UNL     1      23.880   5.802  49.940  1.00  0.00     0.291 C 
BRANCH  22  23
HETATM   23  N5  UNL     1      23.339   6.839  50.765  1.00  0.00     0.081 N 
HETATM   24  C18 UNL     1      23.836   8.156  50.472  1.00  0.00     0.309 C 
HETATM   25  C19 UNL     1      21.911   6.869  50.789  1.00  0.00     0.309 C 
ENDBRANCH  22  23
ENDBRANCH  21  22
ENDBRANCH   5  21
TORSDOF 7
ENDMDL
MODEL 7
REMARK VINA RESULT:      -7.3      2.711      5.895
REMARK  7 active torsions:
REMARK  status: ('A' for Active; 'I' for Inactive)
REMARK    1  A    between atoms: C5_7  and  C6_8 
REMARK    2  A    between atoms: C6_8  and  C7_9 
REMARK    3  A    between atoms: C7_9  and  C8_10 
REMARK    4  A    between atoms: C9_11  and  C10_12 
REMARK    5  A    between atoms: N4_20  and  C16_21 
REMARK    6  A    between atoms: C16_21  and  C17_22 
REMARK    7  A    between atoms: C17_22  and  N5_23 
ROOT
HETATM    1  C8  UNL     1      23.087   0.812  53.074  1.00  0.00     0.045 A 
HETATM    2  C9  UNL     1      23.993  -0.097  53.554  1.00  0.00     0.087 A 
HETATM    3  N3  UNL     1      23.199  -1.122  53.940  1.00  0.00    -0.241 NA
HETATM    4  C15 UNL     1      21.912  -0.879  53.721  1.00  0.00     0.210 A 
HETATM    5  N4  UNL     1      21.809   0.340  53.173  1.00  0.00    -0.341 N 
ENDROOT
BRANCH   1   6
HETATM    6  C7  UNL     1      23.404   2.135  52.515  1.00  0.00     0.089 C 
BRANCH   6   7
HETATM    7  C6  UNL     1      23.878   1.968  51.121  1.00  0.00     0.011 C 
BRANCH   7   8
HETATM    8  C5  UNL     1      23.476   2.652  50.070  1.00  0.00     0.059 A 
HETATM    9  C2  UNL     1      22.526   2.411  49.106  1.00  0.00     0.002 A 
HETATM   10  C1  UNL     1      21.768   1.332  49.059  1.00  0.00     0.027 C 
HETATM   11  C3  UNL     1      22.422   3.402  48.169  1.00  0.00     0.151 A 
HETATM   12  N1  UNL     1      23.343   4.265  48.590  1.00  0.00    -0.184 NA
HETATM   13  N2  UNL     1      23.951   3.845  49.678  1.00  0.00    -0.274 N 
HETATM   14  C4  UNL     1      25.016   4.565  50.396  1.00  0.00     0.180 C 
ENDBRANCH   7   8
ENDBRANCH   6   7
ENDBRANCH   1   6
BRANCH   2  15
HETATM   15  C10 UNL     1      25.438  -0.093  53.683  1.00  0.00    -0.021 A 
HETATM   16  C11 UNL     1      26.227   0.208  54.693  1.00  0.00     0.051 A 
HETATM   17  C12 UNL     1      27.651   0.083  54.408  1.00  0.00     0.113 A 
HETATM   18  F1  UNL     1      28.713   0.304  55.194  1.00  0.00    -0.206 F 
HETATM   19  C13 UNL     1      27.685  -0.316  53.150  1.00  0.00     0.020 A 
HETATM   20  C14 UNL     1      26.344  -0.469  52.560  1.00  0.00     0.071 A 
ENDBRANCH   2  15
BRANCH   5  21
HETATM   21  C16 UNL     1      20.588   1.009  52.775  1.00  0.00     0.160 C 
BRANCH  21  22
HETATM   22  C17 UNL     1      19.773   0.190  51.827  1.00  0.00     0.291 C 
BRANCH  22  23
HETATM   23  N5  UNL     1      18.419  -0.020  52.242  1.00  0.00     0.081 N 
HETATM   24  C18 UNL     1      17.482  -0.177  51.162  1.00  0.00     0.309 C 
HETATM   25  C19 UNL     1      18.261  -1.098  53.165  1.00  0.00     0.309 C 
ENDBRANCH  22  23
ENDBRANCH  21  22
ENDBRANCH   5  21
TORSDOF 7
ENDMDL
MODEL 8
REMARK VINA RESULT:      -7.3      2.570      5.834
REMARK  7 active torsions:
REMARK  status: ('A' for Active; 'I' for Inactive)
REMARK    1  A    between atoms: C5_7  and  C6_8 
REMARK    2  A    between atoms: C6_8  and  C7_9 
REMARK    3  A    between atoms: C7_9  and  C8_10 
REMARK    4  A    between atoms: C9_11  and  C10_12 
REMARK    5  A    between atoms: N4_20  and  C16_21 
REMARK    6  A    between atoms: C16_21  and  C17_22 
REMARK    7  A    between atoms: C17_22  and  N5_23 
ROOT
HETATM    1  C8  UNL     1      24.879   2.259  51.983  1.00  0.00     0.045 A 
HETATM    2  C9  UNL     1      24.319   2.629  50.789  1.00  0.00     0.087 A 
HETATM    3  N3  UNL     1      25.402   2.981  50.058  1.00  0.00    -0.241 NA
HETATM    4  C15 UNL     1      26.537   2.844  50.733  1.00  0.00     0.210 A 
HETATM    5  N4  UNL     1      26.237   2.388  51.957  1.00  0.00    -0.341 N 
ENDROOT
BRANCH   1   6
HETATM    6  C7  UNL     1      24.149   1.778  53.167  1.00  0.00     0.089 C 
BRANCH   6   7
HETATM    7  C6  UNL     1      23.860   0.334  53.000  1.00  0.00     0.011 C 
BRANCH   7   8
HETATM    8  C5  UNL     1      22.880  -0.339  53.566  1.00  0.00     0.059 A 
HETATM    9  C2  UNL     1      21.553  -0.506  53.246  1.00  0.00     0.002 A 
HETATM   10  C1  UNL     1      20.965   0.040  52.199  1.00  0.00     0.027 C 
HETATM   11  C3  UNL     1      20.868  -1.305  54.119  1.00  0.00     0.151 A 
HETATM   12  N1  UNL     1      21.820  -1.626  54.992  1.00  0.00    -0.184 NA
HETATM   13  N2  UNL     1      22.975  -1.078  54.684  1.00  0.00    -0.274 N 
HETATM   14  C4  UNL     1      24.228  -1.236  55.442  1.00  0.00     0.180 C 
ENDBRANCH   7   8
ENDBRANCH   6   7
ENDBRANCH   1   6
BRANCH   2  15
HETATM   15  C10 UNL     1      22.954   2.686  50.301  1.00  0.00    -0.021 A 
HETATM   16  C11 UNL     1      22.335   2.020  49.347  1.00  0.00     0.051 A 
HETATM   17  C12 UNL     1      20.935   2.382  49.166  1.00  0.00     0.113 A 
HETATM   18  F1  UNL     1      20.025   1.911  48.303  1.00  0.00    -0.206 F 
HETATM   19  C13 UNL     1      20.733   3.318  50.076  1.00  0.00     0.020 A 
HETATM   20  C14 UNL     1      21.936   3.614  50.871  1.00  0.00     0.071 A 
ENDBRANCH   2  15
BRANCH   5  21
HETATM   21  C16 UNL     1      27.172   2.099  53.024  1.00  0.00     0.160 C 
BRANCH  21  22
HETATM   22  C17 UNL     1      27.745   0.722  52.923  1.00  0.00     0.291 C 
BRANCH  22  23
HETATM   23  N5  UNL     1      29.071   0.593  53.447  1.00  0.00     0.081 N 
HETATM   24  C18 UNL     1      29.367   1.474  54.545  1.00  0.00     0.309 C 
HETATM   25  C19 UNL     1      29.419  -0.744  53.808  1.00  0.00     0.309 C 
ENDBRANCH  22  23
ENDBRANCH  21  22
ENDBRANCH   5  21
TORSDOF 7
ENDMDL
MODEL 9
REMARK VINA RESULT:      -7.1      2.850      6.682
REMARK  7 active torsions:
REMARK  status: ('A' for Active; 'I' for Inactive)
REMARK    1  A    between atoms: C5_7  and  C6_8 
REMARK    2  A    between atoms: C6_8  and  C7_9 
REMARK    3  A    between atoms: C7_9  and  C8_10 
REMARK    4  A    between atoms: C9_11  and  C10_12 
REMARK    5  A    between atoms: N4_20  and  C16_21 
REMARK    6  A    between atoms: C16_21  and  C17_22 
REMARK    7  A    between atoms: C17_22  and  N5_23 
ROOT
HETATM    1  C8  UNL     1      24.199   1.624  53.024  1.00  0.00     0.045 A 
HETATM    2  C9  UNL     1      23.246   0.658  52.828  1.00  0.00     0.087 A 
HETATM    3  N3  UNL     1      23.897  -0.470  53.196  1.00  0.00    -0.241 NA
HETATM    4  C15 UNL     1      25.143  -0.233  53.587  1.00  0.00     0.210 A 
HETATM    5  N4  UNL     1      25.364   1.085  53.489  1.00  0.00    -0.341 N 
ENDROOT
BRANCH   1   6
HETATM    6  C7  UNL     1      24.031   3.065  52.779  1.00  0.00     0.089 C 
BRANCH   6   7
HETATM    7  C6  UNL     1      23.961   3.299  51.318  1.00  0.00     0.011 C 
BRANCH   7   8
HETATM    8  C5  UNL     1      24.604   4.228  50.642  1.00  0.00     0.059 A 
HETATM    9  C2  UNL     1      25.769   4.215  49.911  1.00  0.00     0.002 A 
HETATM   10  C1  UNL     1      26.531   3.151  49.742  1.00  0.00     0.027 C 
HETATM   11  C3  UNL     1      26.090   5.423  49.357  1.00  0.00     0.151 A 
HETATM   12  N1  UNL     1      25.081   6.185  49.771  1.00  0.00    -0.184 NA
HETATM   13  N2  UNL     1      24.225   5.510  50.507  1.00  0.00    -0.274 N 
HETATM   14  C4  UNL     1      23.001   6.057  51.116  1.00  0.00     0.180 C 
ENDBRANCH   7   8
ENDBRANCH   6   7
ENDBRANCH   1   6
BRANCH   2  15
HETATM   15  C10 UNL     1      21.875   0.690  52.354  1.00  0.00    -0.021 A 
HETATM   16  C11 UNL     1      21.346   0.404  51.183  1.00  0.00     0.051 A 
HETATM   17  C12 UNL     1      19.900   0.570  51.114  1.00  0.00     0.113 A 
HETATM   18  F1  UNL     1      19.053   0.370  50.096  1.00  0.00    -0.206 F 
HETATM   19  C13 UNL     1      19.574   0.978  52.328  1.00  0.00     0.020 A 
HETATM   20  C14 UNL     1      20.735   1.100  53.224  1.00  0.00     0.071 A 
ENDBRANCH   2  15
BRANCH   5  21
HETATM   21  C16 UNL     1      26.592   1.782  53.810  1.00  0.00     0.160 C 
BRANCH  21  22
HETATM   22  C17 UNL     1      27.688   1.483  52.839  1.00  0.00     0.291 C 
BRANCH  22  23
HETATM   23  N5  UNL     1      28.916   1.063  53.446  1.00  0.00     0.081 N 
HETATM   24  C18 UNL     1      29.381   1.917  54.504  1.00  0.00     0.309 C 
HETATM   25  C19 UNL     1      28.897  -0.290  53.904  1.00  0.00     0.309 C 
ENDBRANCH  22  23
ENDBRANCH  21  22
ENDBRANCH   5  21
TORSDOF 7
ENDMDL
