MODEL 1
REMARK VINA RESULT:     -10.1      0.000      0.000
REMARK  2 active torsions:
REMARK  status: ('A' for Active; 'I' for Inactive)
REMARK    1  A    between atoms: C5_7  and  C6_8 
REMARK    2  A    between atoms: C14_16  and  C15_17 
REMARK       I    between atoms: C15_17  and  N2_18 
ROOT
HETATM    1  C1  UNL     1      25.110   5.941  49.056  1.00  0.00     0.018 C 
HETATM    2  C2  UNL     1      24.737   4.673  49.261  1.00  0.00    -0.048 C 
HETATM    3  C3  UNL     1      23.561   3.867  49.579  1.00  0.00     0.156 C 
HETATM    4  N1  UNL     1      22.373   4.617  49.942  1.00  0.00    -0.379 N 
HETATM    5  C4  UNL     1      21.587   3.577  50.546  1.00  0.00     0.087 A 
HETATM    6  S1  UNL     1      20.201   2.571  50.453  1.00  0.00    -0.070 SA
HETATM    7  C5  UNL     1      20.498   1.429  51.887  1.00  0.00     0.030 A 
HETATM    8  C13 UNL     1      21.644   1.863  52.388  1.00  0.00     0.013 A 
HETATM    9  C14 UNL     1      22.225   2.922  51.774  1.00  0.00     0.077 A 
HETATM   10  O2  UNL     1      22.500   1.500  53.463  1.00  0.00     0.000 OA
HETATM   11  C16 UNL     1      23.796   1.160  53.082  1.00  0.00     0.038 C 
HETATM   12  C17 UNL     1      24.986   0.624  52.901  1.00  0.00    -0.041 A 
HETATM   13  C18 UNL     1      25.097  -0.517  53.716  1.00  0.00     0.008 A 
HETATM   14  C19 UNL     1      26.231  -1.257  53.698  1.00  0.00     0.001 A 
HETATM   15  C20 UNL     1      27.268  -0.920  52.907  1.00  0.00     0.001 A 
HETATM   16  C21 UNL     1      27.090   0.218  52.129  1.00  0.00     0.014 A 
HETATM   17  C22 UNL     1      25.973   1.043  52.072  1.00  0.00    -0.008 A 
HETATM   18  C23 UNL     1      26.236   1.961  51.203  1.00  0.00     0.146 C 
HETATM   19  O3  UNL     1      25.769   3.022  50.580  1.00  0.00    -0.358 OA
HETATM   20  C24 UNL     1      25.849   3.608  49.333  1.00  0.00     0.209 C 
HETATM   21  H5  UNL     1      21.714   5.378  50.063  1.00  0.00     0.160 HD
ENDROOT
BRANCH   7  22
HETATM   22  C6  UNL     1      19.558   0.467  52.200  1.00  0.00    -0.012 A 
HETATM   23  C7  UNL     1      18.389   0.416  51.419  1.00  0.00     0.013 A 
HETATM   24  C8  UNL     1      17.384  -0.507  51.619  1.00  0.00     0.001 A 
HETATM   25  C9  UNL     1      17.418  -1.473  52.597  1.00  0.00     0.001 A 
HETATM   26  C10 UNL     1      18.563  -1.461  53.395  1.00  0.00     0.007 A 
HETATM   27  C11 UNL     1      19.527  -0.518  53.146  1.00  0.00    -0.050 A 
HETATM   28  C12 UNL     1      20.744  -0.688  53.988  1.00  0.00     0.049 C 
ENDBRANCH   7  22
BRANCH   9  29
HETATM   29  C15 UNL     1      23.305   3.734  52.377  1.00  0.00     0.253 C 
HETATM   30  N2  UNL     1      24.542   3.781  52.911  1.00  0.00    -0.366 N 
HETATM   31  H13 UNL     1      25.048   3.345  53.719  1.00  0.00     0.159 HD
HETATM   32  H14 UNL     1      25.478   3.833  53.293  1.00  0.00     0.159 HD
HETATM   33  O1  UNL     1      23.216   5.000  52.569  1.00  0.00    -0.268 OA
ENDBRANCH   9  29
TORSDOF 2
ENDMDL
MODEL 2
REMARK VINA RESULT:      -9.9      2.248      6.596
REMARK  2 active torsions:
REMARK  status: ('A' for Active; 'I' for Inactive)
REMARK    1  A    between atoms: C5_7  and  C6_8 
REMARK    2  A    between atoms: C14_16  and  C15_17 
REMARK       I    between atoms: C15_17  and  N2_18 
ROOT
HETATM    1  C1  UNL     1      18.279   0.837  50.276  1.00  0.00     0.018 C 
HETATM    2  C2  UNL     1      19.595   0.987  50.088  1.00  0.00    -0.048 C 
HETATM    3  C3  UNL     1      20.878   0.712  50.731  1.00  0.00     0.156 C 
HETATM    4  N1  UNL     1      20.798   0.231  52.097  1.00  0.00    -0.379 N 
HETATM    5  C4  UNL     1      22.154   0.442  52.524  1.00  0.00     0.087 A 
HETATM    6  S1  UNL     1      23.649  -0.255  52.993  1.00  0.00    -0.070 SA
HETATM    7  C5  UNL     1      24.728   1.253  53.083  1.00  0.00     0.030 A 
HETATM    8  C13 UNL     1      23.905   2.235  52.755  1.00  0.00     0.013 A 
HETATM    9  C14 UNL     1      22.622   1.900  52.475  1.00  0.00     0.077 A 
HETATM   10  O2  UNL     1      23.995   3.645  52.599  1.00  0.00     0.000 OA
HETATM   11  C16 UNL     1      23.662   4.110  51.328  1.00  0.00     0.038 C 
HETATM   12  C17 UNL     1      23.578   4.708  50.158  1.00  0.00    -0.041 A 
HETATM   13  C18 UNL     1      24.652   5.607  50.030  1.00  0.00     0.008 A 
HETATM   14  C19 UNL     1      24.796   6.337  48.899  1.00  0.00     0.001 A 
HETATM   15  C20 UNL     1      23.922   6.220  47.880  1.00  0.00     0.001 A 
HETATM   16  C21 UNL     1      22.886   5.314  48.074  1.00  0.00     0.014 A 
HETATM   17  C22 UNL     1      22.649   4.519  49.189  1.00  0.00    -0.008 A 
HETATM   18  C23 UNL     1      21.596   3.819  48.925  1.00  0.00     0.146 C 
HETATM   19  O3  UNL     1      20.780   2.889  49.373  1.00  0.00    -0.358 OA
HETATM   20  C24 UNL     1      20.049   1.828  48.879  1.00  0.00     0.209 C 
HETATM   21  H5  UNL     1      20.437  -0.153  52.963  1.00  0.00     0.160 HD
ENDROOT
BRANCH   7  22
HETATM   22  C6  UNL     1      26.043   1.129  53.488  1.00  0.00    -0.012 A 
HETATM   23  C7  UNL     1      26.313   0.290  54.584  1.00  0.00     0.013 A 
HETATM   24  C8  UNL     1      27.584   0.068  55.074  1.00  0.00     0.001 A 
HETATM   25  C9  UNL     1      28.716   0.641  54.544  1.00  0.00     0.001 A 
HETATM   26  C10 UNL     1      28.494   1.481  53.452  1.00  0.00     0.007 A 
HETATM   27  C11 UNL     1      27.207   1.660  53.012  1.00  0.00    -0.050 A 
HETATM   28  C12 UNL     1      27.121   2.482  51.772  1.00  0.00     0.049 C 
ENDBRANCH   7  22
BRANCH   9  29
HETATM   29  C15 UNL     1      21.508   2.872  52.419  1.00  0.00     0.253 C 
HETATM   30  N2  UNL     1      21.015   4.023  51.921  1.00  0.00    -0.366 N 
HETATM   31  H13 UNL     1      21.290   5.036  51.910  1.00  0.00     0.159 HD
HETATM   32  H14 UNL     1      20.626   4.875  51.537  1.00  0.00     0.159 HD
HETATM   33  O1  UNL     1      20.416   2.737  53.082  1.00  0.00    -0.268 OA
ENDBRANCH   9  29
TORSDOF 2
ENDMDL
MODEL 3
REMARK VINA RESULT:      -9.7      1.438      1.961
REMARK  2 active torsions:
REMARK  status: ('A' for Active; 'I' for Inactive)
REMARK    1  A    between atoms: C5_7  and  C6_8 
REMARK    2  A    between atoms: C14_16  and  C15_17 
REMARK       I    between atoms: C15_17  and  N2_18 
ROOT
HETATM    1  C1  UNL     1      26.052   6.286  48.953  1.00  0.00     0.018 C 
HETATM    2  C2  UNL     1      25.403   5.122  49.068  1.00  0.00    -0.048 C 
HETATM    3  C3  UNL     1      24.051   4.571  49.142  1.00  0.00     0.156 C 
HETATM    4  N1  UNL     1      22.988   5.551  49.273  1.00  0.00    -0.379 N 
HETATM    5  C4  UNL     1      21.909   4.703  49.701  1.00  0.00     0.087 A 
HETATM    6  S1  UNL     1      20.397   3.985  49.329  1.00  0.00    -0.070 SA
HETATM    7  C5  UNL     1      20.178   2.850  50.782  1.00  0.00     0.030 A 
HETATM    8  C13 UNL     1      21.268   3.065  51.501  1.00  0.00     0.013 A 
HETATM    9  C14 UNL     1      22.156   3.971  51.024  1.00  0.00     0.077 A 
HETATM   10  O2  UNL     1      21.811   2.573  52.719  1.00  0.00     0.000 OA
HETATM   11  C16 UNL     1      23.063   1.974  52.596  1.00  0.00     0.038 C 
HETATM   12  C17 UNL     1      24.135   1.210  52.646  1.00  0.00    -0.041 A 
HETATM   13  C18 UNL     1      23.858   0.094  53.455  1.00  0.00     0.008 A 
HETATM   14  C19 UNL     1      24.804  -0.855  53.652  1.00  0.00     0.001 A 
HETATM   15  C20 UNL     1      26.021  -0.750  53.082  1.00  0.00     0.001 A 
HETATM   16  C21 UNL     1      26.225   0.377  52.296  1.00  0.00     0.014 A 
HETATM   17  C22 UNL     1      25.327   1.403  52.030  1.00  0.00    -0.008 A 
HETATM   18  C23 UNL     1      25.930   2.226  51.239  1.00  0.00     0.146 C 
HETATM   19  O3  UNL     1      25.812   3.339  50.547  1.00  0.00    -0.358 OA
HETATM   20  C24 UNL     1      26.246   3.862  49.345  1.00  0.00     0.209 C 
HETATM   21  H5  UNL     1      22.482   6.429  49.270  1.00  0.00     0.160 HD
ENDROOT
BRANCH   7  22
HETATM   22  C6  UNL     1      19.023   2.100  50.895  1.00  0.00    -0.012 A 
HETATM   23  C7  UNL     1      19.123   0.713  50.690  1.00  0.00     0.013 A 
HETATM   24  C8  UNL     1      18.048  -0.147  50.790  1.00  0.00     0.001 A 
HETATM   25  C9  UNL     1      16.773   0.260  51.102  1.00  0.00     0.001 A 
HETATM   26  C10 UNL     1      16.628   1.631  51.316  1.00  0.00     0.007 A 
HETATM   27  C11 UNL     1      17.735   2.433  51.202  1.00  0.00    -0.050 A 
HETATM   28  C12 UNL     1      17.471   3.853  51.569  1.00  0.00     0.049 C 
ENDBRANCH   7  22
BRANCH   9  29
HETATM   29  C15 UNL     1      23.237   4.573  51.834  1.00  0.00     0.253 C 
HETATM   30  N2  UNL     1      24.292   4.391  52.654  1.00  0.00    -0.366 N 
HETATM   31  H13 UNL     1      24.476   3.939  53.582  1.00  0.00     0.159 HD
HETATM   32  H14 UNL     1      25.100   4.267  53.252  1.00  0.00     0.159 HD
HETATM   33  O1  UNL     1      23.425   5.839  51.937  1.00  0.00    -0.268 OA
ENDBRANCH   9  29
TORSDOF 2
ENDMDL
MODEL 4
REMARK VINA RESULT:      -9.6      2.309      6.021
REMARK  2 active torsions:
REMARK  status: ('A' for Active; 'I' for Inactive)
REMARK    1  A    between atoms: C5_7  and  C6_8 
REMARK    2  A    between atoms: C14_16  and  C15_17 
REMARK       I    between atoms: C15_17  and  N2_18 
ROOT
HETATM    1  C1  UNL     1      28.703  -0.528  53.942  1.00  0.00     0.018 C 
HETATM    2  C2  UNL     1      27.640  -0.420  53.137  1.00  0.00    -0.048 C 
HETATM    3  C3  UNL     1      27.070   0.450  52.111  1.00  0.00     0.156 C 
HETATM    4  N1  UNL     1      27.749   1.719  51.926  1.00  0.00    -0.379 N 
HETATM    5  C4  UNL     1      26.749   2.439  51.185  1.00  0.00     0.087 A 
HETATM    6  S1  UNL     1      26.282   3.147  49.695  1.00  0.00    -0.070 SA
HETATM    7  C5  UNL     1      24.518   3.600  50.057  1.00  0.00     0.030 A 
HETATM    8  C13 UNL     1      24.352   3.198  51.307  1.00  0.00     0.013 A 
HETATM    9  C14 UNL     1      25.417   2.624  51.919  1.00  0.00     0.077 A 
HETATM   10  O2  UNL     1      23.293   3.193  52.255  1.00  0.00     0.000 OA
HETATM   11  C16 UNL     1      22.935   1.929  52.719  1.00  0.00     0.038 C 
HETATM   12  C17 UNL     1      22.334   0.826  53.116  1.00  0.00    -0.041 A 
HETATM   13  C18 UNL     1      20.943   1.011  53.023  1.00  0.00     0.008 A 
HETATM   14  C19 UNL     1      20.100   0.007  53.364  1.00  0.00     0.001 A 
HETATM   15  C20 UNL     1      20.571  -1.179  53.795  1.00  0.00     0.001 A 
HETATM   16  C21 UNL     1      21.955  -1.292  53.862  1.00  0.00     0.014 A 
HETATM   17  C22 UNL     1      22.903  -0.330  53.537  1.00  0.00    -0.008 A 
HETATM   18  C23 UNL     1      24.059  -0.872  53.728  1.00  0.00     0.146 C 
HETATM   19  O3  UNL     1      25.360  -0.692  53.648  1.00  0.00    -0.358 OA
HETATM   20  C24 UNL     1      26.489  -1.425  53.339  1.00  0.00     0.209 C 
HETATM   21  H5  UNL     1      28.449   2.451  51.963  1.00  0.00     0.160 HD
ENDROOT
BRANCH   7  22
HETATM   22  C6  UNL     1      23.772   4.259  49.100  1.00  0.00    -0.012 A 
HETATM   23  C7  UNL     1      24.061   5.615  48.865  1.00  0.00     0.013 A 
HETATM   24  C8  UNL     1      23.400   6.380  47.926  1.00  0.00     0.001 A 
HETATM   25  C9  UNL     1      22.394   5.898  47.122  1.00  0.00     0.001 A 
HETATM   26  C10 UNL     1      22.075   4.554  47.320  1.00  0.00     0.007 A 
HETATM   27  C11 UNL     1      22.769   3.848  48.269  1.00  0.00    -0.050 A 
HETATM   28  C12 UNL     1      22.415   2.401  48.298  1.00  0.00     0.049 C 
ENDBRANCH   7  22
BRANCH   9  29
HETATM   29  C15 UNL     1      25.520   2.424  53.381  1.00  0.00     0.253 C 
HETATM   30  N2  UNL     1      24.970   1.940  54.513  1.00  0.00    -0.366 N 
HETATM   31  H13 UNL     1      24.085   2.080  55.059  1.00  0.00     0.159 HD
HETATM   32  H14 UNL     1      24.578   1.563  55.366  1.00  0.00     0.159 HD
HETATM   33  O1  UNL     1      26.517   2.827  54.082  1.00  0.00    -0.268 OA
ENDBRANCH   9  29
TORSDOF 2
ENDMDL
MODEL 5
REMARK VINA RESULT:      -9.4      3.088      8.594
REMARK  2 active torsions:
REMARK  status: ('A' for Active; 'I' for Inactive)
REMARK    1  A    between atoms: C5_7  and  C6_8 
REMARK    2  A    between atoms: C14_16  and  C15_17 
REMARK       I    between atoms: C15_17  and  N2_18 
ROOT
HETATM    1  C1  UNL     1      21.593   0.774  52.200  1.00  0.00     0.018 C 
HETATM    2  C2  UNL     1      21.884   1.649  51.231  1.00  0.00    -0.048 C 
HETATM    3  C3  UNL     1      23.023   2.265  50.554  1.00  0.00     0.156 C 
HETATM    4  N1  UNL     1      24.319   1.998  51.151  1.00  0.00    -0.379 N 
HETATM    5  C4  UNL     1      25.108   3.019  50.518  1.00  0.00     0.087 A 
HETATM    6  S1  UNL     1      26.359   3.403  49.410  1.00  0.00    -0.070 SA
HETATM    7  C5  UNL     1      26.231   5.254  49.361  1.00  0.00     0.030 A 
HETATM    8  C13 UNL     1      25.239   5.512  50.198  1.00  0.00     0.013 A 
HETATM    9  C14 UNL     1      24.650   4.452  50.804  1.00  0.00     0.077 A 
HETATM   10  O2  UNL     1      24.565   6.672  50.670  1.00  0.00     0.000 OA
HETATM   11  C16 UNL     1      23.197   6.692  50.412  1.00  0.00     0.038 C 
HETATM   12  C17 UNL     1      21.952   6.978  50.091  1.00  0.00    -0.041 A 
HETATM   13  C18 UNL     1      21.892   8.315  49.657  1.00  0.00     0.008 A 
HETATM   14  C19 UNL     1      20.713   8.847  49.254  1.00  0.00     0.001 A 
HETATM   15  C20 UNL     1      19.583   8.114  49.261  1.00  0.00     0.001 A 
HETATM   16  C21 UNL     1      19.715   6.803  49.701  1.00  0.00     0.014 A 
HETATM   17  C22 UNL     1      20.870   6.163  50.132  1.00  0.00    -0.008 A 
HETATM   18  C23 UNL     1      20.534   4.951  50.424  1.00  0.00     0.146 C 
HETATM   19  O3  UNL     1      20.970   3.781  50.838  1.00  0.00    -0.358 OA
HETATM   20  C24 UNL     1      20.715   2.442  50.615  1.00  0.00     0.209 C 
HETATM   21  H5  UNL     1      25.053   1.583  51.714  1.00  0.00     0.160 HD
ENDROOT
BRANCH   7  22
HETATM   22  C6  UNL     1      27.124   5.981  48.597  1.00  0.00    -0.012 A 
HETATM   23  C7  UNL     1      28.458   5.537  48.552  1.00  0.00     0.013 A 
HETATM   24  C8  UNL     1      29.441   6.164  47.814  1.00  0.00     0.001 A 
HETATM   25  C9  UNL     1      29.221   7.283  47.047  1.00  0.00     0.001 A 
HETATM   26  C10 UNL     1      27.909   7.758  47.061  1.00  0.00     0.007 A 
HETATM   27  C11 UNL     1      26.977   7.090  47.815  1.00  0.00    -0.050 A 
HETATM   28  C12 UNL     1      25.597   7.627  47.651  1.00  0.00     0.049 C 
ENDBRANCH   7  22
BRANCH   9  29
HETATM   29  C15 UNL     1      23.775   4.563  51.992  1.00  0.00     0.253 C 
HETATM   30  N2  UNL     1      22.696   5.126  52.572  1.00  0.00    -0.366 N 
HETATM   31  H13 UNL     1      22.370   6.094  52.814  1.00  0.00     0.159 HD
HETATM   32  H14 UNL     1      21.876   5.526  53.011  1.00  0.00     0.159 HD
HETATM   33  O1  UNL     1      23.962   3.898  53.074  1.00  0.00    -0.268 OA
ENDBRANCH   9  29
TORSDOF 2
ENDMDL
MODEL 6
REMARK VINA RESULT:      -9.3      2.692      4.094
REMARK  2 active torsions:
REMARK  status: ('A' for Active; 'I' for Inactive)
REMARK    1  A    between atoms: C5_7  and  C6_8 
REMARK    2  A    between atoms: C14_16  and  C15_17 
REMARK       I    between atoms: C15_17  and  N2_18 
ROOT
HETATM    1  C1  UNL     1      21.277   3.789  48.509  1.00  0.00     0.018 C 
HETATM    2  C2  UNL     1      21.195   2.565  49.042  1.00  0.00    -0.048 C 
HETATM    3  C3  UNL     1      20.215   1.556  49.437  1.00  0.00     0.156 C 
HETATM    4  N1  UNL     1      18.829   1.987  49.396  1.00  0.00    -0.379 N 
HETATM    5  C4  UNL     1      18.216   0.952  50.183  1.00  0.00     0.087 A 
HETATM    6  S1  UNL     1      17.173  -0.409  50.225  1.00  0.00    -0.070 SA
HETATM    7  C5  UNL     1      17.436  -1.001  51.964  1.00  0.00     0.030 A 
HETATM    8  C13 UNL     1      18.308  -0.134  52.452  1.00  0.00     0.013 A 
HETATM    9  C14 UNL     1      18.725   0.855  51.624  1.00  0.00     0.077 A 
HETATM   10  O2  UNL     1      18.983   0.063  53.687  1.00  0.00     0.000 OA
HETATM   11  C16 UNL     1      20.373   0.038  53.599  1.00  0.00     0.038 C 
HETATM   12  C17 UNL     1      21.668  -0.148  53.745  1.00  0.00    -0.041 A 
HETATM   13  C18 UNL     1      21.885  -0.955  54.877  1.00  0.00     0.008 A 
HETATM   14  C19 UNL     1      23.145  -1.303  55.232  1.00  0.00     0.001 A 
HETATM   15  C20 UNL     1      24.208  -0.888  54.517  1.00  0.00     0.001 A 
HETATM   16  C21 UNL     1      23.921  -0.095  53.412  1.00  0.00     0.014 A 
HETATM   17  C22 UNL     1      22.673   0.317  52.962  1.00  0.00    -0.008 A 
HETATM   18  C23 UNL     1      22.877   1.016  51.896  1.00  0.00     0.146 C 
HETATM   19  O3  UNL     1      22.303   1.692  50.924  1.00  0.00    -0.358 OA
HETATM   20  C24 UNL     1      22.495   1.935  49.578  1.00  0.00     0.209 C 
HETATM   21  H5  UNL     1      17.993   2.522  49.193  1.00  0.00     0.160 HD
ENDROOT
BRANCH   7  22
HETATM   22  C6  UNL     1      16.718  -2.086  52.432  1.00  0.00    -0.012 A 
HETATM   23  C7  UNL     1      17.400  -3.029  53.222  1.00  0.00     0.013 A 
HETATM   24  C8  UNL     1      16.794  -4.145  53.762  1.00  0.00     0.001 A 
HETATM   25  C9  UNL     1      15.465  -4.450  53.588  1.00  0.00     0.001 A 
HETATM   26  C10 UNL     1      14.749  -3.538  52.812  1.00  0.00     0.007 A 
HETATM   27  C11 UNL     1      15.408  -2.448  52.303  1.00  0.00    -0.050 A 
HETATM   28  C12 UNL     1      14.507  -1.496  51.595  1.00  0.00     0.049 C 
ENDBRANCH   7  22
BRANCH   9  29
HETATM   29  C15 UNL     1      19.420   2.078  52.084  1.00  0.00     0.253 C 
HETATM   30  N2  UNL     1      20.496   2.629  52.681  1.00  0.00    -0.366 N 
HETATM   31  H13 UNL     1      20.980   2.560  53.609  1.00  0.00     0.159 HD
HETATM   32  H14 UNL     1      21.308   3.056  53.107  1.00  0.00     0.159 HD
HETATM   33  O1  UNL     1      18.939   3.260  51.945  1.00  0.00    -0.268 OA
ENDBRANCH   9  29
TORSDOF 2
ENDMDL
MODEL 7
REMARK VINA RESULT:      -9.2      7.677     11.203
REMARK  2 active torsions:
REMARK  status: ('A' for Active; 'I' for Inactive)
REMARK    1  A    between atoms: C5_7  and  C6_8 
REMARK    2  A    between atoms: C14_16  and  C15_17 
REMARK       I    between atoms: C15_17  and  N2_18 
ROOT
HETATM    1  C1  UNL     1      29.745  14.213  45.234  1.00  0.00     0.018 C 
HETATM    2  C2  UNL     1      29.897  12.887  45.316  1.00  0.00    -0.048 C 
HETATM    3  C3  UNL     1      29.182  11.680  45.724  1.00  0.00     0.156 C 
HETATM    4  N1  UNL     1      27.922  11.906  46.408  1.00  0.00    -0.379 N 
HETATM    5  C4  UNL     1      27.708  10.608  46.988  1.00  0.00     0.087 A 
HETATM    6  S1  UNL     1      26.780   9.166  47.007  1.00  0.00    -0.070 SA
HETATM    7  C5  UNL     1      27.775   8.122  48.177  1.00  0.00     0.030 A 
HETATM    8  C13 UNL     1      28.778   8.916  48.514  1.00  0.00     0.013 A 
HETATM    9  C14 UNL     1      28.797  10.156  47.966  1.00  0.00     0.077 A 
HETATM   10  O2  UNL     1      29.928   8.826  49.346  1.00  0.00     0.000 OA
HETATM   11  C16 UNL     1      31.138   9.022  48.685  1.00  0.00     0.038 C 
HETATM   12  C17 UNL     1      32.366   8.983  48.209  1.00  0.00    -0.041 A 
HETATM   13  C18 UNL     1      33.051   7.912  48.812  1.00  0.00     0.008 A 
HETATM   14  C19 UNL     1      34.336   7.652  48.474  1.00  0.00     0.001 A 
HETATM   15  C20 UNL     1      34.981   8.406  47.562  1.00  0.00     0.001 A 
HETATM   16  C21 UNL     1      34.245   9.446  47.008  1.00  0.00     0.014 A 
HETATM   17  C22 UNL     1      32.928   9.796  47.281  1.00  0.00    -0.008 A 
HETATM   18  C23 UNL     1      32.649  10.804  46.524  1.00  0.00     0.146 C 
HETATM   19  O3  UNL     1      31.712  11.653  46.162  1.00  0.00    -0.358 OA
HETATM   20  C24 UNL     1      31.296  12.312  45.022  1.00  0.00     0.209 C 
HETATM   21  H5  UNL     1      27.085  12.355  46.760  1.00  0.00     0.160 HD
ENDROOT
BRANCH   7  22
HETATM   22  C6  UNL     1      27.328   6.859  48.513  1.00  0.00    -0.012 A 
HETATM   23  C7  UNL     1      25.985   6.724  48.908  1.00  0.00     0.013 A 
HETATM   24  C8  UNL     1      25.414   5.516  49.252  1.00  0.00     0.001 A 
HETATM   25  C9  UNL     1      26.094   4.322  49.244  1.00  0.00     0.001 A 
HETATM   26  C10 UNL     1      27.432   4.408  48.856  1.00  0.00     0.007 A 
HETATM   27  C11 UNL     1      27.941   5.639  48.526  1.00  0.00    -0.050 A 
HETATM   28  C12 UNL     1      29.340   5.577  48.018  1.00  0.00     0.049 C 
ENDBRANCH   7  22
BRANCH   9  29
HETATM   29  C15 UNL     1      29.631  11.269  48.470  1.00  0.00     0.253 C 
HETATM   30  N2  UNL     1      30.862  11.744  48.749  1.00  0.00    -0.366 N 
HETATM   31  H13 UNL     1      31.672  11.471  49.356  1.00  0.00     0.159 HD
HETATM   32  H14 UNL     1      31.781  12.120  48.941  1.00  0.00     0.159 HD
HETATM   33  O1  UNL     1      29.149  12.383  48.886  1.00  0.00    -0.268 OA
ENDBRANCH   9  29
TORSDOF 2
ENDMDL
MODEL 8
REMARK VINA RESULT:      -9.2      2.507      6.260
REMARK  2 active torsions:
REMARK  status: ('A' for Active; 'I' for Inactive)
REMARK    1  A    between atoms: C5_7  and  C6_8 
REMARK    2  A    between atoms: C14_16  and  C15_17 
REMARK       I    between atoms: C15_17  and  N2_18 
ROOT
HETATM    1  C1  UNL     1      19.656   6.262  47.857  1.00  0.00     0.018 C 
HETATM    2  C2  UNL     1      19.809   5.555  48.982  1.00  0.00    -0.048 C 
HETATM    3  C3  UNL     1      20.828   4.854  49.759  1.00  0.00     0.156 C 
HETATM    4  N1  UNL     1      22.117   4.711  49.107  1.00  0.00    -0.379 N 
HETATM    5  C4  UNL     1      22.708   3.689  49.928  1.00  0.00     0.087 A 
HETATM    6  S1  UNL     1      23.909   3.271  51.078  1.00  0.00    -0.070 SA
HETATM    7  C5  UNL     1      23.399   1.538  51.507  1.00  0.00     0.030 A 
HETATM    8  C13 UNL     1      22.331   1.341  50.751  1.00  0.00     0.013 A 
HETATM    9  C14 UNL     1      21.945   2.361  49.946  1.00  0.00     0.077 A 
HETATM   10  O2  UNL     1      21.405   0.284  50.534  1.00  0.00     0.000 OA
HETATM   11  C16 UNL     1      20.078   0.611  50.804  1.00  0.00     0.038 C 
HETATM   12  C17 UNL     1      18.820   0.671  51.190  1.00  0.00    -0.041 A 
HETATM   13  C18 UNL     1      18.505  -0.508  51.890  1.00  0.00     0.008 A 
HETATM   14  C19 UNL     1      17.265  -0.682  52.405  1.00  0.00     0.001 A 
HETATM   15  C20 UNL     1      16.314   0.262  52.260  1.00  0.00     0.001 A 
HETATM   16  C21 UNL     1      16.694   1.400  51.559  1.00  0.00     0.014 A 
HETATM   17  C22 UNL     1      17.933   1.676  50.994  1.00  0.00    -0.008 A 
HETATM   18  C23 UNL     1      17.842   2.850  50.463  1.00  0.00     0.146 C 
HETATM   19  O3  UNL     1      18.491   3.792  49.813  1.00  0.00    -0.358 OA
HETATM   20  C24 UNL     1      18.535   5.172  49.760  1.00  0.00     0.209 C 
HETATM   21  H5  UNL     1      22.890   4.837  48.464  1.00  0.00     0.160 HD
ENDROOT
BRANCH   7  22
HETATM   22  C6  UNL     1      24.160   0.802  52.394  1.00  0.00    -0.012 A 
HETATM   23  C7  UNL     1      25.558   0.854  52.256  1.00  0.00     0.013 A 
HETATM   24  C8  UNL     1      26.428   0.179  53.087  1.00  0.00     0.001 A 
HETATM   25  C9  UNL     1      26.021  -0.612  54.135  1.00  0.00     0.001 A 
HETATM   26  C10 UNL     1      24.639  -0.691  54.311  1.00  0.00     0.007 A 
HETATM   27  C11 UNL     1      23.827   0.005  53.451  1.00  0.00    -0.050 A 
HETATM   28  C12 UNL     1      22.385  -0.069  53.819  1.00  0.00     0.049 C 
ENDBRANCH   7  22
BRANCH   9  29
HETATM   29  C15 UNL     1      21.003   2.210  48.816  1.00  0.00     0.253 C 
HETATM   30  N2  UNL     1      19.776   1.853  48.386  1.00  0.00    -0.366 N 
HETATM   31  H13 UNL     1      19.176   0.992  48.400  1.00  0.00     0.159 HD
HETATM   32  H14 UNL     1      18.851   1.609  48.055  1.00  0.00     0.159 HD
HETATM   33  O1  UNL     1      21.303   2.495  47.601  1.00  0.00    -0.268 OA
ENDBRANCH   9  29
TORSDOF 2
ENDMDL
MODEL 9
REMARK VINA RESULT:      -9.0      7.395     10.531
REMARK  2 active torsions:
REMARK  status: ('A' for Active; 'I' for Inactive)
REMARK    1  A    between atoms: C5_7  and  C6_8 
REMARK    2  A    between atoms: C14_16  and  C15_17 
REMARK       I    between atoms: C15_17  and  N2_18 
ROOT
HETATM    1  C1  UNL     1      32.883  10.825  44.157  1.00  0.00     0.018 C 
HETATM    2  C2  UNL     1      32.297   9.642  44.375  1.00  0.00    -0.048 C 
HETATM    3  C3  UNL     1      31.131   9.049  45.027  1.00  0.00     0.156 C 
HETATM    4  N1  UNL     1      30.355   9.954  45.854  1.00  0.00    -0.379 N 
HETATM    5  C4  UNL     1      29.581   9.009  46.612  1.00  0.00     0.087 A 
HETATM    6  S1  UNL     1      28.040   8.333  46.941  1.00  0.00    -0.070 SA
HETATM    7  C5  UNL     1      28.502   6.934  48.070  1.00  0.00     0.030 A 
HETATM    8  C13 UNL     1      29.818   7.038  48.159  1.00  0.00     0.013 A 
HETATM    9  C14 UNL     1      30.407   8.044  47.468  1.00  0.00     0.077 A 
HETATM   10  O2  UNL     1      30.863   6.336  48.819  1.00  0.00     0.000 OA
HETATM   11  C16 UNL     1      31.834   5.809  47.970  1.00  0.00     0.038 C 
HETATM   12  C17 UNL     1      32.724   5.081  47.328  1.00  0.00    -0.041 A 
HETATM   13  C18 UNL     1      32.813   3.822  47.949  1.00  0.00     0.008 A 
HETATM   14  C19 UNL     1      33.655   2.881  47.462  1.00  0.00     0.001 A 
HETATM   15  C20 UNL     1      34.422   3.128  46.381  1.00  0.00     0.001 A 
HETATM   16  C21 UNL     1      34.284   4.391  45.818  1.00  0.00     0.014 A 
HETATM   17  C22 UNL     1      33.453   5.422  46.237  1.00  0.00    -0.008 A 
HETATM   18  C23 UNL     1      33.633   6.399  45.412  1.00  0.00     0.146 C 
HETATM   19  O3  UNL     1      33.264   7.621  45.090  1.00  0.00    -0.358 OA
HETATM   20  C24 UNL     1      33.069   8.377  43.952  1.00  0.00     0.209 C 
HETATM   21  H5  UNL     1      29.984  10.801  46.268  1.00  0.00     0.160 HD
ENDROOT
BRANCH   7  22
HETATM   22  C6  UNL     1      27.510   6.143  48.619  1.00  0.00    -0.012 A 
HETATM   23  C7  UNL     1      27.712   4.752  48.623  1.00  0.00     0.013 A 
HETATM   24  C8  UNL     1      26.807   3.857  49.155  1.00  0.00     0.001 A 
HETATM   25  C9  UNL     1      25.618   4.229  49.736  1.00  0.00     0.001 A 
HETATM   26  C10 UNL     1      25.377   5.603  49.756  1.00  0.00     0.007 A 
HETATM   27  C11 UNL     1      26.317   6.442  49.211  1.00  0.00    -0.050 A 
HETATM   28  C12 UNL     1      25.995   7.884  49.400  1.00  0.00     0.049 C 
ENDBRANCH   7  22
BRANCH   9  29
HETATM   29  C15 UNL     1      31.791   8.509  47.707  1.00  0.00     0.253 C 
HETATM   30  N2  UNL     1      33.103   8.210  47.791  1.00  0.00    -0.366 N 
HETATM   31  H13 UNL     1      33.710   7.570  48.359  1.00  0.00     0.159 HD
HETATM   32  H14 UNL     1      34.092   8.001  47.836  1.00  0.00     0.159 HD
HETATM   33  O1  UNL     1      32.091   9.728  47.979  1.00  0.00    -0.268 OA
ENDBRANCH   9  29
TORSDOF 2
ENDMDL
