MODEL 1
REMARK VINA RESULT:      -7.3      0.000      0.000
REMARK  0 active torsions:
REMARK  status: ('A' for Active; 'I' for Inactive)
ROOT
HETATM    1  C1  UNL     1      23.882   1.635  52.015  1.00  0.00     0.046 C 
HETATM    2  C2  UNL     1      23.282   2.891  51.434  1.00  0.00    -0.053 C 
HETATM    3  C3  UNL     1      23.218   2.602  50.092  1.00  0.00    -0.054 C 
HETATM    4  C4  UNL     1      24.280   3.350  49.373  1.00  0.00     0.007 C 
HETATM    5  C5  UNL     1      24.739   4.616  49.286  1.00  0.00     0.005 C 
HETATM    6  C6  UNL     1      24.775   5.672  50.342  1.00  0.00     0.057 C 
HETATM    7  C7  UNL     1      24.098   6.055  51.462  1.00  0.00     0.157 C 
HETATM    8  N1  UNL     1      23.823   7.499  51.523  1.00  0.00    -0.277 N 
HETATM    9  N2  UNL     1      22.883   7.712  50.483  1.00  0.00    -0.280 N 
HETATM   10  C8  UNL     1      23.116   8.479  49.259  1.00  0.00     0.228 C 
HETATM   11  N3  UNL     1      22.996   7.768  48.137  1.00  0.00    -0.235 NA
HETATM   12  C9  UNL     1      22.139   6.491  48.388  1.00  0.00     0.108 A 
HETATM   13  S1  UNL     1      22.127   5.284  47.076  1.00  0.00    -0.073 SA
HETATM   14  C10 UNL     1      21.332   3.881  47.690  1.00  0.00    -0.001 A 
HETATM   15  P1  UNL     1      20.965   4.523  49.373  1.00  0.00    -0.008 P 
HETATM   16  C11 UNL     1      21.589   6.107  49.446  1.00  0.00     0.012 A 
HETATM   17  C12 UNL     1      21.566   7.035  50.656  1.00  0.00     0.193 C 
HETATM   18  C13 UNL     1      20.787   2.544  47.785  1.00  0.00     0.048 C 
HETATM   19  C14 UNL     1      21.646   1.497  48.404  1.00  0.00     0.010 C 
HETATM   20  C15 UNL     1      22.159   1.634  49.772  1.00  0.00     0.039 C 
HETATM   21  O1  UNL     1      23.749   5.094  52.395  1.00  0.00    -0.331 OA
HETATM   22  C16 UNL     1      22.983   3.946  52.433  1.00  0.00     0.211 C 
HETATM   23  H7  UNL     1      24.144   8.324  52.116  1.00  0.00     0.189 HD
ENDROOT
TORSDOF 0
ENDMDL
MODEL 2
REMARK VINA RESULT:      -7.3      2.111      2.722
REMARK  0 active torsions:
REMARK  status: ('A' for Active; 'I' for Inactive)
ROOT
HETATM    1  C1  UNL     1      23.826   0.348  52.766  1.00  0.00     0.046 C 
HETATM    2  C2  UNL     1      23.678   1.776  52.307  1.00  0.00    -0.053 C 
HETATM    3  C3  UNL     1      22.464   1.762  51.662  1.00  0.00    -0.054 C 
HETATM    4  C4  UNL     1      22.682   1.815  50.194  1.00  0.00     0.007 C 
HETATM    5  C5  UNL     1      23.376   2.556  49.304  1.00  0.00     0.005 C 
HETATM    6  C6  UNL     1      24.696   3.232  49.478  1.00  0.00     0.057 C 
HETATM    7  C7  UNL     1      25.464   3.793  50.457  1.00  0.00     0.157 C 
HETATM    8  N1  UNL     1      26.043   5.092  50.082  1.00  0.00    -0.277 N 
HETATM    9  N2  UNL     1      24.922   5.958  50.010  1.00  0.00    -0.280 N 
HETATM   10  C8  UNL     1      24.400   6.588  48.797  1.00  0.00     0.228 C 
HETATM   11  N3  UNL     1      23.147   6.243  48.497  1.00  0.00    -0.235 NA
HETATM   12  C9  UNL     1      22.410   5.709  49.762  1.00  0.00     0.108 A 
HETATM   13  S1  UNL     1      20.830   4.932  49.481  1.00  0.00    -0.073 SA
HETATM   14  C10 UNL     1      20.348   4.214  50.974  1.00  0.00    -0.001 A 
HETATM   15  P1  UNL     1      21.807   4.721  51.972  1.00  0.00    -0.008 P 
HETATM   16  C11 UNL     1      22.838   5.594  50.934  1.00  0.00     0.012 A 
HETATM   17  C12 UNL     1      24.197   6.184  51.294  1.00  0.00     0.193 C 
HETATM   18  C13 UNL     1      19.594   3.468  51.957  1.00  0.00     0.048 C 
HETATM   19  C14 UNL     1      19.975   2.045  52.176  1.00  0.00     0.010 C 
HETATM   20  C15 UNL     1      21.330   1.668  52.593  1.00  0.00     0.039 C 
HETATM   21  O1  UNL     1      25.620   3.117  51.654  1.00  0.00    -0.331 OA
HETATM   22  C16 UNL     1      24.811   2.660  52.675  1.00  0.00     0.211 C 
HETATM   23  H7  UNL     1      27.015   5.477  49.879  1.00  0.00     0.189 HD
ENDROOT
TORSDOF 0
ENDMDL
MODEL 3
REMARK VINA RESULT:      -7.2      2.341      3.700
REMARK  0 active torsions:
REMARK  status: ('A' for Active; 'I' for Inactive)
ROOT
HETATM    1  C1  UNL     1      23.532   0.501  53.142  1.00  0.00     0.046 C 
HETATM    2  C2  UNL     1      23.232   1.554  52.106  1.00  0.00    -0.053 C 
HETATM    3  C3  UNL     1      24.353   2.348  52.149  1.00  0.00    -0.054 C 
HETATM    4  C4  UNL     1      24.031   3.622  52.843  1.00  0.00     0.007 C 
HETATM    5  C5  UNL     1      23.097   4.593  52.784  1.00  0.00     0.005 C 
HETATM    6  C6  UNL     1      21.652   4.480  52.421  1.00  0.00     0.057 C 
HETATM    7  C7  UNL     1      20.822   3.715  51.654  1.00  0.00     0.157 C 
HETATM    8  N1  UNL     1      19.871   4.498  50.851  1.00  0.00    -0.277 N 
HETATM    9  N2  UNL     1      20.688   5.153  49.895  1.00  0.00    -0.280 N 
HETATM   10  C8  UNL     1      20.925   6.594  49.812  1.00  0.00     0.228 C 
HETATM   11  N3  UNL     1      22.201   6.949  49.966  1.00  0.00    -0.235 NA
HETATM   12  C9  UNL     1      23.143   5.745  49.662  1.00  0.00     0.108 A 
HETATM   13  S1  UNL     1      24.857   5.959  50.103  1.00  0.00    -0.073 SA
HETATM   14  C10 UNL     1      25.623   4.426  49.905  1.00  0.00    -0.001 A 
HETATM   15  P1  UNL     1      24.151   3.488  49.330  1.00  0.00    -0.008 P 
HETATM   16  C11 UNL     1      22.845   4.582  49.304  1.00  0.00     0.012 A 
HETATM   17  C12 UNL     1      21.401   4.261  48.936  1.00  0.00     0.193 C 
HETATM   18  C13 UNL     1      26.624   3.382  49.911  1.00  0.00     0.048 C 
HETATM   19  C14 UNL     1      26.684   2.497  51.108  1.00  0.00     0.010 C 
HETATM   20  C15 UNL     1      25.525   1.706  51.537  1.00  0.00     0.039 C 
HETATM   21  O1  UNL     1      20.947   2.338  51.703  1.00  0.00    -0.331 OA
HETATM   22  C16 UNL     1      21.920   1.396  51.432  1.00  0.00     0.211 C 
HETATM   23  H7  UNL     1      18.818   4.657  50.837  1.00  0.00     0.189 HD
ENDROOT
TORSDOF 0
ENDMDL
MODEL 4
REMARK VINA RESULT:      -7.2      2.169      3.454
REMARK  0 active torsions:
REMARK  status: ('A' for Active; 'I' for Inactive)
ROOT
HETATM    1  C1  UNL     1      26.783   3.736  49.337  1.00  0.00     0.046 C 
HETATM    2  C2  UNL     1      25.484   4.332  49.817  1.00  0.00    -0.053 C 
HETATM    3  C3  UNL     1      24.722   3.219  50.083  1.00  0.00    -0.054 C 
HETATM    4  C4  UNL     1      23.699   3.053  49.019  1.00  0.00     0.007 C 
HETATM    5  C5  UNL     1      22.761   3.798  48.398  1.00  0.00     0.005 C 
HETATM    6  C6  UNL     1      22.782   5.258  48.085  1.00  0.00     0.057 C 
HETATM    7  C7  UNL     1      23.309   6.423  48.561  1.00  0.00     0.157 C 
HETATM    8  N1  UNL     1      22.343   7.530  48.617  1.00  0.00    -0.277 N 
HETATM    9  N2  UNL     1      21.436   7.141  49.635  1.00  0.00    -0.280 N 
HETATM   10  C8  UNL     1      20.027   6.796  49.445  1.00  0.00     0.228 C 
HETATM   11  N3  UNL     1      19.716   5.549  49.799  1.00  0.00    -0.235 NA
HETATM   12  C9  UNL     1      20.775   4.983  50.792  1.00  0.00     0.108 A 
HETATM   13  S1  UNL     1      20.675   3.236  51.135  1.00  0.00    -0.073 SA
HETATM   14  C10 UNL     1      22.082   2.820  52.042  1.00  0.00    -0.001 A 
HETATM   15  P1  UNL     1      22.836   4.495  52.109  1.00  0.00    -0.008 P 
HETATM   16  C11 UNL     1      21.793   5.541  51.261  1.00  0.00     0.012 A 
HETATM   17  C12 UNL     1      22.014   7.028  51.005  1.00  0.00     0.193 C 
HETATM   18  C13 UNL     1      23.075   2.047  52.757  1.00  0.00     0.048 C 
HETATM   19  C14 UNL     1      24.260   1.576  51.988  1.00  0.00     0.010 C 
HETATM   20  C15 UNL     1      25.152   2.516  51.300  1.00  0.00     0.039 C 
HETATM   21  O1  UNL     1      24.644   6.453  48.928  1.00  0.00    -0.331 OA
HETATM   22  C16 UNL     1      25.460   5.815  49.841  1.00  0.00     0.211 C 
HETATM   23  H7  UNL     1      22.198   8.457  48.113  1.00  0.00     0.189 HD
ENDROOT
TORSDOF 0
ENDMDL
MODEL 5
REMARK VINA RESULT:      -6.9      3.003      4.719
REMARK  0 active torsions:
REMARK  status: ('A' for Active; 'I' for Inactive)
ROOT
HETATM    1  C1  UNL     1      18.914   0.232  51.221  1.00  0.00     0.046 C 
HETATM    2  C2  UNL     1      20.166   1.021  50.932  1.00  0.00    -0.053 C 
HETATM    3  C3  UNL     1      20.762   1.104  52.168  1.00  0.00    -0.054 C 
HETATM    4  C4  UNL     1      20.596   2.477  52.708  1.00  0.00     0.007 C 
HETATM    5  C5  UNL     1      20.791   3.750  52.303  1.00  0.00     0.005 C 
HETATM    6  C6  UNL     1      20.665   4.324  50.930  1.00  0.00     0.057 C 
HETATM    7  C7  UNL     1      20.789   3.950  49.624  1.00  0.00     0.157 C 
HETATM    8  N1  UNL     1      21.549   4.907  48.805  1.00  0.00    -0.277 N 
HETATM    9  N2  UNL     1      22.873   4.806  49.301  1.00  0.00    -0.280 N 
HETATM   10  C8  UNL     1      23.604   5.852  50.017  1.00  0.00     0.228 C 
HETATM   11  N3  UNL     1      23.966   5.516  51.256  1.00  0.00    -0.235 NA
HETATM   12  C9  UNL     1      23.992   3.967  51.417  1.00  0.00     0.108 A 
HETATM   13  S1  UNL     1      24.166   3.353  53.082  1.00  0.00    -0.073 SA
HETATM   14  C10 UNL     1      23.916   1.648  53.019  1.00  0.00    -0.001 A 
HETATM   15  P1  UNL     1      23.627   1.508  51.209  1.00  0.00    -0.008 P 
HETATM   16  C11 UNL     1      23.742   3.081  50.567  1.00  0.00     0.012 A 
HETATM   17  C12 UNL     1      23.534   3.483  49.110  1.00  0.00     0.193 C 
HETATM   18  C13 UNL     1      23.755   0.268  53.426  1.00  0.00     0.048 C 
HETATM   19  C14 UNL     1      22.367  -0.220  53.656  1.00  0.00     0.010 C 
HETATM   20  C15 UNL     1      21.351  -0.173  52.599  1.00  0.00     0.039 C 
HETATM   21  O1  UNL     1      20.213   2.761  49.211  1.00  0.00    -0.331 OA
HETATM   22  C16 UNL     1      20.328   1.419  49.512  1.00  0.00     0.211 C 
HETATM   23  H7  UNL     1      21.339   5.581  48.007  1.00  0.00     0.189 HD
ENDROOT
TORSDOF 0
ENDMDL
MODEL 6
REMARK VINA RESULT:      -6.8      9.319     10.718
REMARK  0 active torsions:
REMARK  status: ('A' for Active; 'I' for Inactive)
ROOT
HETATM    1  C1  UNL     1      33.173   2.746  47.162  1.00  0.00     0.046 C 
HETATM    2  C2  UNL     1      32.665   4.152  46.964  1.00  0.00    -0.053 C 
HETATM    3  C3  UNL     1      33.727   4.772  46.348  1.00  0.00    -0.054 C 
HETATM    4  C4  UNL     1      34.409   5.666  47.318  1.00  0.00     0.007 C 
HETATM    5  C5  UNL     1      34.084   6.642  48.191  1.00  0.00     0.005 C 
HETATM    6  C6  UNL     1      32.836   6.797  48.998  1.00  0.00     0.057 C 
HETATM    7  C7  UNL     1      31.510   6.480  48.946  1.00  0.00     0.157 C 
HETATM    8  N1  UNL     1      30.621   7.592  49.314  1.00  0.00    -0.277 N 
HETATM    9  N2  UNL     1      30.778   8.521  48.253  1.00  0.00    -0.280 N 
HETATM   10  C8  UNL     1      31.389   9.846  48.355  1.00  0.00     0.228 C 
HETATM   11  N3  UNL     1      32.472  10.010  47.595  1.00  0.00    -0.235 NA
HETATM   12  C9  UNL     1      32.485   8.972  46.432  1.00  0.00     0.108 A 
HETATM   13  S1  UNL     1      34.000   8.857  45.500  1.00  0.00    -0.073 SA
HETATM   14  C10 UNL     1      33.848   7.489  44.459  1.00  0.00    -0.001 A 
HETATM   15  P1  UNL     1      32.154   6.984  44.963  1.00  0.00    -0.008 P 
HETATM   16  C11 UNL     1      31.643   8.085  46.158  1.00  0.00     0.012 A 
HETATM   17  C12 UNL     1      30.319   8.053  46.914  1.00  0.00     0.193 C 
HETATM   18  C13 UNL     1      34.159   6.464  43.487  1.00  0.00     0.048 C 
HETATM   19  C14 UNL     1      34.668   5.163  44.003  1.00  0.00     0.010 C 
HETATM   20  C15 UNL     1      33.891   4.354  44.948  1.00  0.00     0.039 C 
HETATM   21  O1  UNL     1      31.142   5.200  48.570  1.00  0.00    -0.331 OA
HETATM   22  C16 UNL     1      31.289   4.384  47.465  1.00  0.00     0.211 C 
HETATM   23  H7  UNL     1      29.959   7.821  50.117  1.00  0.00     0.189 HD
ENDROOT
TORSDOF 0
ENDMDL
MODEL 7
REMARK VINA RESULT:      -6.7      8.564     10.040
REMARK  0 active torsions:
REMARK  status: ('A' for Active; 'I' for Inactive)
ROOT
HETATM    1  C1  UNL     1      28.523   5.461  48.437  1.00  0.00     0.046 C 
HETATM    2  C2  UNL     1      29.484   6.394  47.745  1.00  0.00    -0.053 C 
HETATM    3  C3  UNL     1      30.709   5.896  48.118  1.00  0.00    -0.054 C 
HETATM    4  C4  UNL     1      31.320   6.792  49.133  1.00  0.00     0.007 C 
HETATM    5  C5  UNL     1      31.578   8.107  49.292  1.00  0.00     0.005 C 
HETATM    6  C6  UNL     1      30.799   9.280  48.793  1.00  0.00     0.057 C 
HETATM    7  C7  UNL     1      29.970   9.625  47.765  1.00  0.00     0.157 C 
HETATM    8  N1  UNL     1      30.291  10.926  47.158  1.00  0.00    -0.277 N 
HETATM    9  N2  UNL     1      31.536  10.705  46.515  1.00  0.00    -0.280 N 
HETATM   10  C8  UNL     1      32.815  11.309  46.888  1.00  0.00     0.228 C 
HETATM   11  N3  UNL     1      33.751  10.430  47.247  1.00  0.00    -0.235 NA
HETATM   12  C9  UNL     1      33.423   9.018  46.675  1.00  0.00     0.108 A 
HETATM   13  S1  UNL     1      34.407   7.669  47.300  1.00  0.00    -0.073 SA
HETATM   14  C10 UNL     1      33.693   6.212  46.716  1.00  0.00    -0.001 A 
HETATM   15  P1  UNL     1      32.317   6.976  45.765  1.00  0.00    -0.008 P 
HETATM   16  C11 UNL     1      32.457   8.662  45.961  1.00  0.00     0.012 A 
HETATM   17  C12 UNL     1      31.517   9.721  45.395  1.00  0.00     0.193 C 
HETATM   18  C13 UNL     1      33.430   4.807  46.490  1.00  0.00     0.048 C 
HETATM   19  C14 UNL     1      32.420   4.150  47.367  1.00  0.00     0.010 C 
HETATM   20  C15 UNL     1      31.037   4.633  47.441  1.00  0.00     0.039 C 
HETATM   21  O1  UNL     1      28.951   8.760  47.408  1.00  0.00    -0.331 OA
HETATM   22  C16 UNL     1      28.834   7.464  46.948  1.00  0.00     0.211 C 
HETATM   23  H7  UNL     1      29.838  11.888  47.105  1.00  0.00     0.189 HD
ENDROOT
TORSDOF 0
ENDMDL
MODEL 8
REMARK VINA RESULT:      -6.6      3.706      5.652
REMARK  0 active torsions:
REMARK  status: ('A' for Active; 'I' for Inactive)
ROOT
HETATM    1  C1  UNL     1      21.549   5.045  46.951  1.00  0.00     0.046 C 
HETATM    2  C2  UNL     1      21.464   4.437  48.328  1.00  0.00    -0.053 C 
HETATM    3  C3  UNL     1      22.695   3.843  48.473  1.00  0.00    -0.054 C 
HETATM    4  C4  UNL     1      22.555   2.371  48.336  1.00  0.00     0.007 C 
HETATM    5  C5  UNL     1      21.791   1.380  48.843  1.00  0.00     0.005 C 
HETATM    6  C6  UNL     1      20.364   1.429  49.278  1.00  0.00     0.057 C 
HETATM    7  C7  UNL     1      19.453   2.311  49.784  1.00  0.00     0.157 C 
HETATM    8  N1  UNL     1      18.673   1.775  50.909  1.00  0.00    -0.277 N 
HETATM    9  N2  UNL     1      19.623   1.649  51.955  1.00  0.00    -0.280 N 
HETATM   10  C8  UNL     1      20.091   0.395  52.543  1.00  0.00     0.228 C 
HETATM   11  N3  UNL     1      21.401   0.182  52.407  1.00  0.00    -0.235 NA
HETATM   12  C9  UNL     1      22.149   1.524  52.149  1.00  0.00     0.108 A 
HETATM   13  S1  UNL     1      23.856   1.389  51.652  1.00  0.00    -0.073 SA
HETATM   14  C10 UNL     1      24.372   2.969  51.191  1.00  0.00    -0.001 A 
HETATM   15  P1  UNL     1      22.793   3.850  51.519  1.00  0.00    -0.008 P 
HETATM   16  C11 UNL     1      21.682   2.685  52.077  1.00  0.00     0.012 A 
HETATM   17  C12 UNL     1      20.221   2.927  52.439  1.00  0.00     0.193 C 
HETATM   18  C13 UNL     1      25.192   4.056  50.700  1.00  0.00     0.048 C 
HETATM   19  C14 UNL     1      25.060   4.416  49.260  1.00  0.00     0.010 C 
HETATM   20  C15 UNL     1      23.773   4.821  48.684  1.00  0.00     0.039 C 
HETATM   21  O1  UNL     1      19.353   3.569  49.215  1.00  0.00    -0.331 OA
HETATM   22  C16 UNL     1      20.172   4.664  49.021  1.00  0.00     0.211 C 
HETATM   23  H7  UNL     1      17.660   1.494  51.085  1.00  0.00     0.189 HD
ENDROOT
TORSDOF 0
ENDMDL
MODEL 9
REMARK VINA RESULT:      -6.5      3.766      5.221
REMARK  0 active torsions:
REMARK  status: ('A' for Active; 'I' for Inactive)
ROOT
HETATM    1  C1  UNL     1      24.498   3.224  49.990  1.00  0.00     0.046 C 
HETATM    2  C2  UNL     1      23.026   3.214  50.317  1.00  0.00    -0.053 C 
HETATM    3  C3  UNL     1      22.816   1.919  50.725  1.00  0.00    -0.054 C 
HETATM    4  C4  UNL     1      22.096   1.174  49.661  1.00  0.00     0.007 C 
HETATM    5  C5  UNL     1      20.997   1.325  48.892  1.00  0.00     0.005 C 
HETATM    6  C6  UNL     1      20.400   2.583  48.352  1.00  0.00     0.057 C 
HETATM    7  C7  UNL     1      20.298   3.909  48.657  1.00  0.00     0.157 C 
HETATM    8  N1  UNL     1      18.940   4.450  48.497  1.00  0.00    -0.277 N 
HETATM    9  N2  UNL     1      18.197   3.819  49.527  1.00  0.00    -0.280 N 
HETATM   10  C8  UNL     1      17.119   2.848  49.337  1.00  0.00     0.228 C 
HETATM   11  N3  UNL     1      17.360   1.651  49.873  1.00  0.00    -0.235 NA
HETATM   12  C9  UNL     1      18.446   1.758  50.986  1.00  0.00     0.108 A 
HETATM   13  S1  UNL     1      19.098   0.216  51.598  1.00  0.00    -0.073 SA
HETATM   14  C10 UNL     1      20.436   0.604  52.616  1.00  0.00    -0.001 A 
HETATM   15  P1  UNL     1      20.353   2.433  52.445  1.00  0.00    -0.008 P 
HETATM   16  C11 UNL     1      19.052   2.774  51.400  1.00  0.00     0.012 A 
HETATM   17  C12 UNL     1      18.613   4.153  50.920  1.00  0.00     0.193 C 
HETATM   18  C13 UNL     1      21.585   0.465  53.484  1.00  0.00     0.048 C 
HETATM   19  C14 UNL     1      22.931   0.496  52.847  1.00  0.00     0.010 C 
HETATM   20  C15 UNL     1      23.380   1.647  52.056  1.00  0.00     0.039 C 
HETATM   21  O1  UNL     1      21.431   4.590  49.068  1.00  0.00    -0.331 OA
HETATM   22  C16 UNL     1      22.342   4.513  50.103  1.00  0.00     0.211 C 
HETATM   23  H7  UNL     1      18.452   5.138  47.846  1.00  0.00     0.189 HD
ENDROOT
TORSDOF 0
ENDMDL
