MODEL 1
REMARK VINA RESULT:      -9.1      0.000      0.000
REMARK  3 active torsions:
REMARK  status: ('A' for Active; 'I' for Inactive)
REMARK    1  A    between atoms: C4_5  and  N2_6 
REMARK    2  A    between atoms: N6_20  and  C15_21 
REMARK    3  A    between atoms: C15_21  and  N7_22 
ROOT
HETATM    1  N2  UNL     1      24.672   0.129  53.013  1.00  0.00    -0.254 N 
HETATM    2  N3  UNL     1      23.501  -0.578  53.258  1.00  0.00    -0.183 NA
HETATM    3  C5  UNL     1      22.222  -0.265  53.274  1.00  0.00     0.146 C 
HETATM    4  C6  UNL     1      21.882   1.008  52.509  1.00  0.00    -0.035 C 
HETATM    5  C7  UNL     1      20.762   1.730  52.885  1.00  0.00     0.008 C 
HETATM    6  C8  UNL     1      20.341   3.019  52.273  1.00  0.00    -0.002 C 
HETATM    7  C9  UNL     1      21.010   3.692  51.395  1.00  0.00    -0.006 C 
HETATM    8  C10 UNL     1      21.698   4.514  50.400  1.00  0.00     0.172 C 
HETATM    9  N4  UNL     1      22.457   3.820  49.359  1.00  0.00    -0.289 NA
HETATM   10  C11 UNL     1      23.715   3.315  49.646  1.00  0.00     0.381 A 
HETATM   11  C12 UNL     1      24.740   3.265  51.042  1.00  0.00     0.304 A 
HETATM   12  N5  UNL     1      25.001   2.291  51.770  1.00  0.00    -0.185 NA
HETATM   13  C13 UNL     1      24.499   1.249  52.236  1.00  0.00     0.137 A 
HETATM   14  C14 UNL     1      23.701   2.024  51.424  1.00  0.00     0.261 A 
HETATM   15  N6  UNL     1      23.765   3.119  50.748  1.00  0.00     0.054 N 
HETATM   16  C15 UNL     1      24.492   4.170  50.362  1.00  0.00     0.304 A 
HETATM   17  C16 UNL     1      22.417   1.350  51.185  1.00  0.00     0.105 C 
ENDROOT
BRANCH   1  18
HETATM   18  C4  UNL     1      26.057   0.255  53.250  1.00  0.00     0.114 C 
HETATM   19  C3  UNL     1      26.492  -0.058  54.654  1.00  0.00     0.047 C 
HETATM   20  C2  UNL     1      28.012   0.254  54.651  1.00  0.00     0.118 C 
HETATM   21  N1  UNL     1      28.645  -0.591  53.715  1.00  0.00    -0.416 N 
HETATM   22  C1  UNL     1      30.013  -0.711  53.630  1.00  0.00     0.143 C 
HETATM   23  C18 UNL     1      27.773  -1.473  53.034  1.00  0.00     0.118 C 
HETATM   24  C17 UNL     1      26.767  -0.665  52.274  1.00  0.00     0.047 C 
ENDBRANCH   1  18
BRANCH  16  25
HETATM   25  N7  UNL     1      25.759   4.837  50.435  1.00  0.00    -0.393 N 
HETATM   26  H16 UNL     1      25.804   5.415  51.338  1.00  0.00     0.152 HD
HETATM   27  H17 UNL     1      26.667   4.934  49.853  1.00  0.00     0.152 HD
ENDBRANCH  16  25
TORSDOF 3
ENDMDL
MODEL 2
REMARK VINA RESULT:      -8.5      1.678      4.014
REMARK  3 active torsions:
REMARK  status: ('A' for Active; 'I' for Inactive)
REMARK    1  A    between atoms: C4_5  and  N2_6 
REMARK    2  A    between atoms: N6_20  and  C15_21 
REMARK    3  A    between atoms: C15_21  and  N7_22 
ROOT
HETATM    1  N2  UNL     1      24.945   1.560  52.077  1.00  0.00    -0.254 N 
HETATM    2  N3  UNL     1      24.684   2.555  51.143  1.00  0.00    -0.183 NA
HETATM    3  C5  UNL     1      23.692   2.800  50.311  1.00  0.00     0.146 C 
HETATM    4  C6  UNL     1      22.385   2.108  50.678  1.00  0.00    -0.035 C 
HETATM    5  C7  UNL     1      21.480   1.821  49.670  1.00  0.00     0.008 C 
HETATM    6  C8  UNL     1      20.195   1.096  49.867  1.00  0.00    -0.002 C 
HETATM    7  C9  UNL     1      19.801   0.545  50.969  1.00  0.00    -0.006 C 
HETATM    8  C10 UNL     1      19.277  -0.102  52.170  1.00  0.00     0.172 C 
HETATM    9  N4  UNL     1      19.569   0.528  53.458  1.00  0.00    -0.289 NA
HETATM   10  C11 UNL     1      20.813   0.355  54.044  1.00  0.00     0.381 A 
HETATM   11  C12 UNL     1      22.271  -0.482  53.626  1.00  0.00     0.304 A 
HETATM   12  N5  UNL     1      23.349  -0.001  53.236  1.00  0.00    -0.185 NA
HETATM   13  C13 UNL     1      23.821   0.934  52.561  1.00  0.00     0.137 A 
HETATM   14  C14 UNL     1      22.450   0.867  52.672  1.00  0.00     0.261 A 
HETATM   15  N6  UNL     1      21.549   0.135  53.229  1.00  0.00     0.054 N 
HETATM   16  C15 UNL     1      21.263  -0.927  53.987  1.00  0.00     0.304 A 
HETATM   17  C16 UNL     1      21.834   2.041  52.037  1.00  0.00     0.105 C 
ENDROOT
BRANCH   1  18
HETATM   18  C4  UNL     1      25.914   0.814  52.781  1.00  0.00     0.114 C 
HETATM   19  C3  UNL     1      26.695  -0.160  51.944  1.00  0.00     0.047 C 
HETATM   20  C2  UNL     1      27.596  -0.896  52.972  1.00  0.00     0.118 C 
HETATM   21  N1  UNL     1      28.442   0.050  53.589  1.00  0.00    -0.416 N 
HETATM   22  C1  UNL     1      29.502  -0.313  54.388  1.00  0.00     0.143 C 
HETATM   23  C18 UNL     1      28.265   1.380  53.141  1.00  0.00     0.118 C 
HETATM   24  C17 UNL     1      26.860   1.804  53.435  1.00  0.00     0.047 C 
ENDBRANCH   1  18
BRANCH  16  25
HETATM   25  N7  UNL     1      21.782  -2.031  54.740  1.00  0.00    -0.393 N 
HETATM   26  H16 UNL     1      22.316  -1.658  55.593  1.00  0.00     0.152 HD
HETATM   27  H17 UNL     1      21.799  -3.113  54.699  1.00  0.00     0.152 HD
ENDBRANCH  16  25
TORSDOF 3
ENDMDL
MODEL 3
REMARK VINA RESULT:      -8.0      1.855      6.689
REMARK  3 active torsions:
REMARK  status: ('A' for Active; 'I' for Inactive)
REMARK    1  A    between atoms: C4_5  and  N2_6 
REMARK    2  A    between atoms: N6_20  and  C15_21 
REMARK    3  A    between atoms: C15_21  and  N7_22 
ROOT
HETATM    1  N2  UNL     1      23.430   1.849  51.257  1.00  0.00    -0.254 N 
HETATM    2  N3  UNL     1      24.283   2.531  50.397  1.00  0.00    -0.183 NA
HETATM    3  C5  UNL     1      25.535   2.933  50.470  1.00  0.00     0.146 C 
HETATM    4  C6  UNL     1      26.366   2.201  51.516  1.00  0.00    -0.035 C 
HETATM    5  C7  UNL     1      27.455   2.850  52.073  1.00  0.00     0.008 C 
HETATM    6  C8  UNL     1      28.319   2.287  53.146  1.00  0.00    -0.002 C 
HETATM    7  C9  UNL     1      28.112   1.177  53.776  1.00  0.00    -0.006 C 
HETATM    8  C10 UNL     1      27.957  -0.063  54.535  1.00  0.00     0.172 C 
HETATM    9  N4  UNL     1      27.407  -1.222  53.831  1.00  0.00    -0.289 NA
HETATM   10  C11 UNL     1      26.041  -1.314  53.618  1.00  0.00     0.381 A 
HETATM   11  C12 UNL     1      24.663  -0.332  53.985  1.00  0.00     0.304 A 
HETATM   12  N5  UNL     1      23.984   0.362  53.209  1.00  0.00    -0.185 NA
HETATM   13  C13 UNL     1      24.075   1.066  52.184  1.00  0.00     0.137 A 
HETATM   14  C14 UNL     1      25.232   0.488  52.656  1.00  0.00     0.261 A 
HETATM   15  N6  UNL     1      25.622  -0.276  53.618  1.00  0.00     0.054 N 
HETATM   16  C15 UNL     1      25.300  -0.978  54.707  1.00  0.00     0.304 A 
HETATM   17  C16 UNL     1      26.342   0.748  51.728  1.00  0.00     0.105 C 
ENDROOT
BRANCH   1  18
HETATM   18  C4  UNL     1      22.103   1.607  51.671  1.00  0.00     0.114 C 
HETATM   19  C3  UNL     1      21.251   2.836  51.822  1.00  0.00     0.047 C 
HETATM   20  C2  UNL     1      19.906   2.290  52.371  1.00  0.00     0.118 C 
HETATM   21  N1  UNL     1      19.360   1.398  51.424  1.00  0.00    -0.416 N 
HETATM   22  C1  UNL     1      18.076   0.913  51.516  1.00  0.00     0.143 C 
HETATM   23  C18 UNL     1      20.144   1.222  50.259  1.00  0.00     0.118 C 
HETATM   24  C17 UNL     1      21.478   0.668  50.655  1.00  0.00     0.047 C 
ENDBRANCH   1  18
BRANCH  16  25
HETATM   25  N7  UNL     1      24.253  -1.389  55.596  1.00  0.00    -0.393 N 
HETATM   26  H16 UNL     1      24.677  -1.629  56.553  1.00  0.00     0.152 HD
HETATM   27  H17 UNL     1      23.181  -1.533  55.586  1.00  0.00     0.152 HD
ENDBRANCH  16  25
TORSDOF 3
ENDMDL
MODEL 4
REMARK VINA RESULT:      -7.8      2.306      5.395
REMARK  3 active torsions:
REMARK  status: ('A' for Active; 'I' for Inactive)
REMARK    1  A    between atoms: C4_5  and  N2_6 
REMARK    2  A    between atoms: N6_20  and  C15_21 
REMARK    3  A    between atoms: C15_21  and  N7_22 
ROOT
HETATM    1  N2  UNL     1      22.608   0.956  52.982  1.00  0.00    -0.254 N 
HETATM    2  N3  UNL     1      23.867   0.483  53.332  1.00  0.00    -0.183 NA
HETATM    3  C5  UNL     1      25.087   0.694  52.883  1.00  0.00     0.146 C 
HETATM    4  C6  UNL     1      25.245   1.984  52.087  1.00  0.00    -0.035 C 
HETATM    5  C7  UNL     1      26.246   2.058  51.134  1.00  0.00     0.008 C 
HETATM    6  C8  UNL     1      26.481   3.225  50.241  1.00  0.00    -0.002 C 
HETATM    7  C9  UNL     1      25.727   4.272  50.154  1.00  0.00    -0.006 C 
HETATM    8  C10 UNL     1      24.934   5.490  49.994  1.00  0.00     0.172 C 
HETATM    9  N4  UNL     1      24.290   6.038  51.188  1.00  0.00    -0.289 NA
HETATM   10  C11 UNL     1      23.116   5.472  51.659  1.00  0.00     0.381 A 
HETATM   11  C12 UNL     1      22.101   4.153  51.180  1.00  0.00     0.304 A 
HETATM   12  N5  UNL     1      21.978   3.040  51.722  1.00  0.00    -0.185 NA
HETATM   13  C13 UNL     1      22.622   2.175  52.347  1.00  0.00     0.137 A 
HETATM   14  C14 UNL     1      23.305   3.302  51.948  1.00  0.00     0.261 A 
HETATM   15  N6  UNL     1      23.089   4.405  51.319  1.00  0.00     0.054 N 
HETATM   16  C15 UNL     1      22.219   5.190  50.677  1.00  0.00     0.304 A 
HETATM   17  C16 UNL     1      24.675   3.278  52.481  1.00  0.00     0.105 C 
ENDROOT
BRANCH   1  18
HETATM   18  C4  UNL     1      21.218   0.720  52.942  1.00  0.00     0.114 C 
HETATM   19  C3  UNL     1      20.729   0.019  51.706  1.00  0.00     0.047 C 
HETATM   20  C2  UNL     1      19.187  -0.017  51.884  1.00  0.00     0.118 C 
HETATM   21  N1  UNL     1      18.885  -0.754  53.048  1.00  0.00    -0.416 N 
HETATM   22  C1  UNL     1      17.605  -1.150  53.364  1.00  0.00     0.143 C 
HETATM   23  C18 UNL     1      20.013  -1.252  53.741  1.00  0.00     0.118 C 
HETATM   24  C17 UNL     1      20.863  -0.097  54.171  1.00  0.00     0.047 C 
ENDBRANCH   1  18
BRANCH  16  25
HETATM   25  N7  UNL     1      20.869   5.358  50.227  1.00  0.00    -0.393 N 
HETATM   26  H16 UNL     1      20.202   5.245  51.060  1.00  0.00     0.152 HD
HETATM   27  H17 UNL     1      20.331   5.556  49.308  1.00  0.00     0.152 HD
ENDBRANCH  16  25
TORSDOF 3
ENDMDL
MODEL 5
REMARK VINA RESULT:      -7.6      2.019      5.656
REMARK  3 active torsions:
REMARK  status: ('A' for Active; 'I' for Inactive)
REMARK    1  A    between atoms: C4_5  and  N2_6 
REMARK    2  A    between atoms: N6_20  and  C15_21 
REMARK    3  A    between atoms: C15_21  and  N7_22 
ROOT
HETATM    1  N2  UNL     1      24.596   3.989  50.976  1.00  0.00    -0.254 N 
HETATM    2  N3  UNL     1      23.211   3.930  51.078  1.00  0.00    -0.183 NA
HETATM    3  C5  UNL     1      22.352   2.987  51.405  1.00  0.00     0.146 C 
HETATM    4  C6  UNL     1      22.958   1.838  52.202  1.00  0.00    -0.035 C 
HETATM    5  C7  UNL     1      22.362   0.591  52.130  1.00  0.00     0.008 C 
HETATM    6  C8  UNL     1      22.875  -0.634  52.801  1.00  0.00    -0.002 C 
HETATM    7  C9  UNL     1      23.992  -0.728  53.446  1.00  0.00    -0.006 C 
HETATM    8  C10 UNL     1      25.233  -0.924  54.193  1.00  0.00     0.172 C 
HETATM    9  N4  UNL     1      25.717   0.195  55.004  1.00  0.00    -0.289 NA
HETATM   10  C11 UNL     1      26.381   1.248  54.396  1.00  0.00     0.381 A 
HETATM   11  C12 UNL     1      26.838   1.653  52.775  1.00  0.00     0.304 A 
HETATM   12  N5  UNL     1      26.340   2.512  52.028  1.00  0.00    -0.185 NA
HETATM   13  C13 UNL     1      25.256   3.059  51.742  1.00  0.00     0.137 A 
HETATM   14  C14 UNL     1      25.235   2.092  52.722  1.00  0.00     0.261 A 
HETATM   15  N6  UNL     1      26.047   1.296  53.329  1.00  0.00     0.054 N 
HETATM   16  C15 UNL     1      27.297   0.851  53.474  1.00  0.00     0.304 A 
HETATM   17  C16 UNL     1      23.895   2.007  53.320  1.00  0.00     0.105 C 
ENDROOT
BRANCH   1  18
HETATM   18  C4  UNL     1      25.719   4.587  50.366  1.00  0.00     0.114 C 
HETATM   19  C3  UNL     1      26.179   3.927  49.097  1.00  0.00     0.047 C 
HETATM   20  C2  UNL     1      27.459   4.715  48.710  1.00  0.00     0.118 C 
HETATM   21  N1  UNL     1      27.110   6.064  48.492  1.00  0.00    -0.416 N 
HETATM   22  C1  UNL     1      27.976   6.973  47.929  1.00  0.00     0.143 C 
HETATM   23  C18 UNL     1      25.737   6.355  48.678  1.00  0.00     0.118 C 
HETATM   24  C17 UNL     1      25.364   6.038  50.092  1.00  0.00     0.047 C 
ENDBRANCH   1  18
BRANCH  16  25
HETATM   25  N7  UNL     1      28.660   0.954  53.041  1.00  0.00    -0.393 N 
HETATM   26  H16 UNL     1      28.805   1.899  52.553  1.00  0.00     0.152 HD
HETATM   27  H17 UNL     1      29.570   0.368  53.055  1.00  0.00     0.152 HD
ENDBRANCH  16  25
TORSDOF 3
ENDMDL
MODEL 6
REMARK VINA RESULT:      -7.6      1.905      5.850
REMARK  3 active torsions:
REMARK  status: ('A' for Active; 'I' for Inactive)
REMARK    1  A    between atoms: C4_5  and  N2_6 
REMARK    2  A    between atoms: N6_20  and  C15_21 
REMARK    3  A    between atoms: C15_21  and  N7_22 
ROOT
HETATM    1  N2  UNL     1      25.430   2.177  51.409  1.00  0.00    -0.254 N 
HETATM    2  N3  UNL     1      26.640   1.576  51.736  1.00  0.00    -0.183 NA
HETATM    3  C5  UNL     1      27.055   0.827  52.736  1.00  0.00     0.146 C 
HETATM    4  C6  UNL     1      25.935   0.141  53.509  1.00  0.00    -0.035 C 
HETATM    5  C7  UNL     1      26.150  -0.190  54.836  1.00  0.00     0.008 C 
HETATM    6  C8  UNL     1      25.132  -0.805  55.731  1.00  0.00    -0.002 C 
HETATM    7  C9  UNL     1      23.891  -1.011  55.431  1.00  0.00    -0.006 C 
HETATM    8  C10 UNL     1      22.477  -1.283  55.178  1.00  0.00     0.172 C 
HETATM    9  N4  UNL     1      22.101  -1.691  53.824  1.00  0.00    -0.289 NA
HETATM   10  C11 UNL     1      21.981  -0.738  52.825  1.00  0.00     0.381 A 
HETATM   11  C12 UNL     1      22.181   0.980  52.725  1.00  0.00     0.304 A 
HETATM   12  N5  UNL     1      23.106   1.616  52.191  1.00  0.00    -0.185 NA
HETATM   13  C13 UNL     1      24.332   1.571  51.970  1.00  0.00     0.137 A 
HETATM   14  C14 UNL     1      23.777   0.518  52.662  1.00  0.00     0.261 A 
HETATM   15  N6  UNL     1      22.628   0.133  53.102  1.00  0.00     0.054 N 
HETATM   16  C15 UNL     1      21.322   0.383  53.224  1.00  0.00     0.304 A 
HETATM   17  C16 UNL     1      24.786  -0.527  52.887  1.00  0.00     0.105 C 
ENDROOT
BRANCH   1  18
HETATM   18  C4  UNL     1      24.766   3.230  50.745  1.00  0.00     0.114 C 
HETATM   19  C3  UNL     1      24.499   4.444  51.590  1.00  0.00     0.047 C 
HETATM   20  C2  UNL     1      23.689   5.379  50.653  1.00  0.00     0.118 C 
HETATM   21  N1  UNL     1      24.486   5.696  49.533  1.00  0.00    -0.416 N 
HETATM   22  C1  UNL     1      24.138   6.672  48.628  1.00  0.00     0.143 C 
HETATM   23  C18 UNL     1      25.770   5.103  49.537  1.00  0.00     0.118 C 
HETATM   24  C17 UNL     1      25.615   3.615  49.547  1.00  0.00     0.047 C 
ENDBRANCH   1  18
BRANCH  16  25
HETATM   25  N7  UNL     1      20.247   1.286  52.937  1.00  0.00    -0.393 N 
HETATM   26  H16 UNL     1      20.649   2.202  52.546  1.00  0.00     0.152 HD
HETATM   27  H17 UNL     1      19.167   1.320  53.004  1.00  0.00     0.152 HD
ENDBRANCH  16  25
TORSDOF 3
ENDMDL
MODEL 7
REMARK VINA RESULT:      -7.5      2.440      5.559
REMARK  3 active torsions:
REMARK  status: ('A' for Active; 'I' for Inactive)
REMARK    1  A    between atoms: C4_5  and  N2_6 
REMARK    2  A    between atoms: N6_20  and  C15_21 
REMARK    3  A    between atoms: C15_21  and  N7_22 
ROOT
HETATM    1  N2  UNL     1      23.766   2.537  51.424  1.00  0.00    -0.254 N 
HETATM    2  N3  UNL     1      24.620   1.520  51.833  1.00  0.00    -0.183 NA
HETATM    3  C5  UNL     1      24.505   0.492  52.648  1.00  0.00     0.146 C 
HETATM    4  C6  UNL     1      23.066   0.071  52.922  1.00  0.00    -0.035 C 
HETATM    5  C7  UNL     1      22.778  -0.571  54.114  1.00  0.00     0.008 C 
HETATM    6  C8  UNL     1      21.414  -0.984  54.545  1.00  0.00    -0.002 C 
HETATM    7  C9  UNL     1      20.312  -0.708  53.927  1.00  0.00    -0.006 C 
HETATM    8  C10 UNL     1      19.021  -0.445  53.294  1.00  0.00     0.172 C 
HETATM    9  N4  UNL     1      18.978  -0.427  51.831  1.00  0.00    -0.289 NA
HETATM   10  C11 UNL     1      19.416   0.693  51.143  1.00  0.00     0.381 A 
HETATM   11  C12 UNL     1      20.077   2.233  51.580  1.00  0.00     0.304 A 
HETATM   12  N5  UNL     1      21.252   2.625  51.471  1.00  0.00    -0.185 NA
HETATM   13  C13 UNL     1      22.431   2.225  51.528  1.00  0.00     0.137 A 
HETATM   14  C14 UNL     1      21.439   1.296  51.751  1.00  0.00     0.261 A 
HETATM   15  N6  UNL     1      20.153   1.229  51.793  1.00  0.00     0.054 N 
HETATM   16  C15 UNL     1      18.983   1.863  51.682  1.00  0.00     0.304 A 
HETATM   17  C16 UNL     1      22.025  -0.045  51.894  1.00  0.00     0.105 C 
ENDROOT
BRANCH   1  18
HETATM   18  C4  UNL     1      23.630   3.860  50.953  1.00  0.00     0.114 C 
HETATM   19  C3  UNL     1      23.820   4.927  51.995  1.00  0.00     0.047 C 
HETATM   20  C2  UNL     1      23.522   6.247  51.235  1.00  0.00     0.118 C 
HETATM   21  N1  UNL     1      24.453   6.382  50.183  1.00  0.00    -0.416 N 
HETATM   22  C1  UNL     1      24.591   7.544  49.460  1.00  0.00     0.143 C 
HETATM   23  C18 UNL     1      25.385   5.322  50.081  1.00  0.00     0.118 C 
HETATM   24  C17 UNL     1      24.641   4.047  49.836  1.00  0.00     0.047 C 
ENDBRANCH   1  18
BRANCH  16  25
HETATM   25  N7  UNL     1      18.319   3.107  51.427  1.00  0.00    -0.393 N 
HETATM   26  H16 UNL     1      18.475   3.389  50.403  1.00  0.00     0.152 HD
HETATM   27  H17 UNL     1      17.720   3.839  51.956  1.00  0.00     0.152 HD
ENDBRANCH  16  25
TORSDOF 3
ENDMDL
MODEL 8
REMARK VINA RESULT:      -7.2      1.809      2.485
REMARK  3 active torsions:
REMARK  status: ('A' for Active; 'I' for Inactive)
REMARK    1  A    between atoms: C4_5  and  N2_6 
REMARK    2  A    between atoms: N6_20  and  C15_21 
REMARK    3  A    between atoms: C15_21  and  N7_22 
ROOT
HETATM    1  N2  UNL     1      23.618   1.611  51.523  1.00  0.00    -0.254 N 
HETATM    2  N3  UNL     1      22.620   0.867  50.905  1.00  0.00    -0.183 NA
HETATM    3  C5  UNL     1      21.394   1.127  50.502  1.00  0.00     0.146 C 
HETATM    4  C6  UNL     1      21.103   2.609  50.301  1.00  0.00    -0.035 C 
HETATM    5  C7  UNL     1      19.798   3.053  50.428  1.00  0.00     0.008 C 
HETATM    6  C8  UNL     1      19.373   4.476  50.321  1.00  0.00    -0.002 C 
HETATM    7  C9  UNL     1      20.164   5.492  50.206  1.00  0.00    -0.006 C 
HETATM    8  C10 UNL     1      20.983   6.696  50.072  1.00  0.00     0.172 C 
HETATM    9  N4  UNL     1      22.206   6.595  49.276  1.00  0.00    -0.289 NA
HETATM   10  C11 UNL     1      23.341   6.021  49.826  1.00  0.00     0.381 A 
HETATM   11  C12 UNL     1      23.752   5.309  51.351  1.00  0.00     0.304 A 
HETATM   12  N5  UNL     1      23.921   4.107  51.618  1.00  0.00    -0.185 NA
HETATM   13  C13 UNL     1      23.515   2.967  51.319  1.00  0.00     0.137 A 
HETATM   14  C14 UNL     1      22.935   4.033  50.668  1.00  0.00     0.261 A 
HETATM   15  N6  UNL     1      23.014   5.318  50.634  1.00  0.00     0.054 N 
HETATM   16  C15 UNL     1      23.591   6.429  51.099  1.00  0.00     0.304 A 
HETATM   17  C16 UNL     1      22.010   3.550  49.633  1.00  0.00     0.105 C 
ENDROOT
BRANCH   1  18
HETATM   18  C4  UNL     1      24.752   1.616  52.362  1.00  0.00     0.114 C 
HETATM   19  C3  UNL     1      24.740   0.578  53.449  1.00  0.00     0.047 C 
HETATM   20  C2  UNL     1      26.030   0.873  54.260  1.00  0.00     0.118 C 
HETATM   21  N1  UNL     1      27.144   0.716  53.409  1.00  0.00    -0.416 N 
HETATM   22  C1  UNL     1      28.438   0.697  53.876  1.00  0.00     0.143 C 
HETATM   23  C18 UNL     1      26.824   0.350  52.080  1.00  0.00     0.118 C 
HETATM   24  C17 UNL     1      25.969   1.420  51.477  1.00  0.00     0.047 C 
ENDBRANCH   1  18
BRANCH  16  25
HETATM   25  N7  UNL     1      24.565   6.985  51.992  1.00  0.00    -0.393 N 
HETATM   26  H16 UNL     1      25.538   6.911  51.544  1.00  0.00     0.152 HD
HETATM   27  H17 UNL     1      24.609   7.445  52.971  1.00  0.00     0.152 HD
ENDBRANCH  16  25
TORSDOF 3
ENDMDL
MODEL 9
REMARK VINA RESULT:      -7.2      2.076      5.624
REMARK  3 active torsions:
REMARK  status: ('A' for Active; 'I' for Inactive)
REMARK    1  A    between atoms: C4_5  and  N2_6 
REMARK    2  A    between atoms: N6_20  and  C15_21 
REMARK    3  A    between atoms: C15_21  and  N7_22 
ROOT
HETATM    1  N2  UNL     1      23.360   4.929  50.947  1.00  0.00    -0.254 N 
HETATM    2  N3  UNL     1      21.998   5.161  51.091  1.00  0.00    -0.183 NA
HETATM    3  C5  UNL     1      20.935   4.388  51.174  1.00  0.00     0.146 C 
HETATM    4  C6  UNL     1      21.239   2.952  51.584  1.00  0.00    -0.035 C 
HETATM    5  C7  UNL     1      20.371   1.950  51.187  1.00  0.00     0.008 C 
HETATM    6  C8  UNL     1      20.569   0.500  51.458  1.00  0.00    -0.002 C 
HETATM    7  C9  UNL     1      21.618  -0.029  51.999  1.00  0.00    -0.006 C 
HETATM    8  C10 UNL     1      22.761  -0.710  52.603  1.00  0.00     0.172 C 
HETATM    9  N4  UNL     1      23.473  -0.013  53.675  1.00  0.00    -0.289 NA
HETATM   10  C11 UNL     1      24.378   0.989  53.364  1.00  0.00     0.381 A 
HETATM   11  C12 UNL     1      24.954   1.725  51.905  1.00  0.00     0.304 A 
HETATM   12  N5  UNL     1      24.688   2.853  51.456  1.00  0.00    -0.185 NA
HETATM   13  C13 UNL     1      23.768   3.692  51.387  1.00  0.00     0.137 A 
HETATM   14  C14 UNL     1      23.500   2.516  52.052  1.00  0.00     0.261 A 
HETATM   15  N6  UNL     1      24.090   1.416  52.370  1.00  0.00     0.054 N 
HETATM   16  C15 UNL     1      25.198   0.673  52.326  1.00  0.00     0.304 A 
HETATM   17  C16 UNL     1      22.163   2.573  52.660  1.00  0.00     0.105 C 
ENDROOT
BRANCH   1  18
HETATM   18  C4  UNL     1      24.605   5.402  50.483  1.00  0.00     0.114 C 
HETATM   19  C3  UNL     1      24.811   5.297  48.998  1.00  0.00     0.047 C 
HETATM   20  C2  UNL     1      26.269   5.786  48.788  1.00  0.00     0.118 C 
HETATM   21  N1  UNL     1      26.365   7.123  49.229  1.00  0.00    -0.416 N 
HETATM   22  C1  UNL     1      27.467   7.908  48.981  1.00  0.00     0.143 C 
HETATM   23  C18 UNL     1      25.161   7.664  49.738  1.00  0.00     0.118 C 
HETATM   24  C17 UNL     1      24.728   6.851  50.918  1.00  0.00     0.047 C 
ENDBRANCH   1  18
BRANCH  16  25
HETATM   25  N7  UNL     1      26.558   0.581  51.880  1.00  0.00    -0.393 N 
HETATM   26  H16 UNL     1      26.676   1.161  50.985  1.00  0.00     0.152 HD
HETATM   27  H17 UNL     1      27.483   0.101  52.171  1.00  0.00     0.152 HD
ENDBRANCH  16  25
TORSDOF 3
ENDMDL
