MODEL 1
REMARK VINA RESULT:      -8.1      0.000      0.000
REMARK  2 active torsions:
REMARK  status: ('A' for Active; 'I' for Inactive)
REMARK    1  A    between atoms: N1_4  and  C4_5 
REMARK    2  A    between atoms: C8_10  and  C9_11 
ROOT
HETATM    1  C4  UNL     1      24.029   1.099  53.087  1.00  0.00     0.269 C 
HETATM    2  C5  UNL     1      25.076  -0.015  53.228  1.00  0.00     0.059 C 
HETATM    3  C6  UNL     1      26.249   0.477  52.397  1.00  0.00     0.127 C 
HETATM    4  N2  UNL     1      25.657   1.520  51.565  1.00  0.00    -0.365 N 
HETATM    5  C7  UNL     1      26.356   2.483  50.789  1.00  0.00     0.095 C 
HETATM    6  C8  UNL     1      26.070   3.340  49.825  1.00  0.00    -0.037 C 
HETATM    7  C15 UNL     1      24.633   3.353  49.367  1.00  0.00     0.086 C 
HETATM    8  C16 UNL     1      23.758   3.631  50.510  1.00  0.00     0.090 C 
HETATM    9  N3  UNL     1      23.619   2.763  51.441  1.00  0.00    -0.277 NA
HETATM   10  C17 UNL     1      24.184   1.459  51.626  1.00  0.00     0.240 C 
ENDROOT
BRANCH   6  11
HETATM   11  C9  UNL     1      27.035   4.216  49.221  1.00  0.00     0.020 C 
HETATM   12  C10 UNL     1      27.196   5.390  48.689  1.00  0.00    -0.036 A 
HETATM   13  C11 UNL     1      26.229   6.455  48.477  1.00  0.00     0.011 A 
HETATM   14  C14 UNL     1      28.441   5.926  48.160  1.00  0.00     0.011 A 
HETATM   15  C12 UNL     1      26.786   7.504  47.901  1.00  0.00     0.001 A 
HETATM   16  C13 UNL     1      28.183   7.137  47.714  1.00  0.00     0.001 A 
ENDBRANCH   6  11
BRANCH   1  17
HETATM   17  N1  UNL     1      22.773   0.565  53.461  1.00  0.00     0.105 N 
HETATM   18  C2  UNL     1      22.450  -0.821  53.482  1.00  0.00     0.248 A 
HETATM   19  C1  UNL     1      21.598  -1.251  54.670  1.00  0.00     0.045 C 
HETATM   20  C3  UNL     1      21.766   0.165  52.528  1.00  0.00     0.308 A 
ENDBRANCH   1  17
TORSDOF 2
ENDMDL
MODEL 2
REMARK VINA RESULT:      -7.5      3.786      7.489
REMARK  2 active torsions:
REMARK  status: ('A' for Active; 'I' for Inactive)
REMARK    1  A    between atoms: N1_4  and  C4_5 
REMARK    2  A    between atoms: C8_10  and  C9_11 
ROOT
HETATM    1  C4  UNL     1      25.884   0.048  52.958  1.00  0.00     0.269 C 
HETATM    2  C5  UNL     1      25.699  -0.648  54.314  1.00  0.00     0.059 C 
HETATM    3  C6  UNL     1      24.199  -0.860  54.416  1.00  0.00     0.127 C 
HETATM    4  N2  UNL     1      23.662   0.051  53.410  1.00  0.00    -0.365 N 
HETATM    5  C7  UNL     1      22.333   0.069  52.906  1.00  0.00     0.095 C 
HETATM    6  C8  UNL     1      21.578   0.891  52.201  1.00  0.00    -0.037 C 
HETATM    7  C15 UNL     1      22.231   2.186  51.786  1.00  0.00     0.086 C 
HETATM    8  C16 UNL     1      23.445   1.897  51.018  1.00  0.00     0.090 C 
HETATM    9  N3  UNL     1      24.466   1.383  51.595  1.00  0.00    -0.277 NA
HETATM   10  C17 UNL     1      24.702   0.992  52.954  1.00  0.00     0.240 C 
ENDROOT
BRANCH   6  11
HETATM   11  C9  UNL     1      20.217   0.612  51.835  1.00  0.00     0.020 C 
HETATM   12  C10 UNL     1      19.160  -0.062  52.170  1.00  0.00    -0.036 A 
HETATM   13  C11 UNL     1      18.952  -0.973  53.285  1.00  0.00     0.011 A 
HETATM   14  C14 UNL     1      17.884  -0.058  51.469  1.00  0.00     0.011 A 
HETATM   15  C12 UNL     1      17.727  -1.466  53.283  1.00  0.00     0.001 A 
HETATM   16  C13 UNL     1      17.079  -0.869  52.124  1.00  0.00     0.001 A 
ENDBRANCH   6  11
BRANCH   1  17
HETATM   17  N1  UNL     1      27.161   0.660  52.953  1.00  0.00     0.105 N 
HETATM   18  C2  UNL     1      28.013   0.778  54.088  1.00  0.00     0.248 A 
HETATM   19  C1  UNL     1      29.490   0.543  53.793  1.00  0.00     0.045 C 
HETATM   20  C3  UNL     1      27.407   2.000  53.388  1.00  0.00     0.308 A 
ENDBRANCH   1  17
TORSDOF 2
ENDMDL
MODEL 3
REMARK VINA RESULT:      -7.4      3.088      6.000
REMARK  2 active torsions:
REMARK  status: ('A' for Active; 'I' for Inactive)
REMARK    1  A    between atoms: N1_4  and  C4_5 
REMARK    2  A    between atoms: C8_10  and  C9_11 
ROOT
HETATM    1  C4  UNL     1      21.925   2.265  50.909  1.00  0.00     0.269 C 
HETATM    2  C5  UNL     1      22.737   3.511  50.530  1.00  0.00     0.059 C 
HETATM    3  C6  UNL     1      24.177   3.104  50.790  1.00  0.00     0.127 C 
HETATM    4  N2  UNL     1      24.044   1.926  51.641  1.00  0.00    -0.365 N 
HETATM    5  C7  UNL     1      25.068   0.997  51.968  1.00  0.00     0.095 C 
HETATM    6  C8  UNL     1      25.252   0.030  52.850  1.00  0.00    -0.037 C 
HETATM    7  C15 UNL     1      24.110  -0.206  53.808  1.00  0.00     0.086 C 
HETATM    8  C16 UNL     1      22.889  -0.494  53.051  1.00  0.00     0.090 C 
HETATM    9  N3  UNL     1      22.327   0.426  52.360  1.00  0.00    -0.277 NA
HETATM   10  C17 UNL     1      22.663   1.803  52.146  1.00  0.00     0.240 C 
ENDROOT
BRANCH   6  11
HETATM   11  C9  UNL     1      26.446  -0.764  52.930  1.00  0.00     0.020 C 
HETATM   12  C10 UNL     1      27.719  -0.718  53.178  1.00  0.00    -0.036 A 
HETATM   13  C11 UNL     1      28.556   0.414  53.542  1.00  0.00     0.011 A 
HETATM   14  C14 UNL     1      28.639  -1.846  53.145  1.00  0.00     0.011 A 
HETATM   15  C12 UNL     1      29.814   0.051  53.712  1.00  0.00     0.001 A 
HETATM   16  C13 UNL     1      29.832  -1.383  53.454  1.00  0.00     0.001 A 
ENDBRANCH   6  11
BRANCH   1  17
HETATM   17  N1  UNL     1      20.581   2.663  51.106  1.00  0.00     0.105 N 
HETATM   18  C2  UNL     1      20.102   4.000  50.993  1.00  0.00     0.248 A 
HETATM   19  C1  UNL     1      18.742   4.126  50.316  1.00  0.00     0.045 C 
HETATM   20  C3  UNL     1      20.087   3.233  52.321  1.00  0.00     0.308 A 
ENDBRANCH   1  17
TORSDOF 2
ENDMDL
MODEL 4
REMARK VINA RESULT:      -7.3      3.242      5.625
REMARK  2 active torsions:
REMARK  status: ('A' for Active; 'I' for Inactive)
REMARK    1  A    between atoms: N1_4  and  C4_5 
REMARK    2  A    between atoms: C8_10  and  C9_11 
ROOT
HETATM    1  C4  UNL     1      21.283   1.476  52.372  1.00  0.00     0.269 C 
HETATM    2  C5  UNL     1      20.925   0.010  52.653  1.00  0.00     0.059 C 
HETATM    3  C6  UNL     1      22.246  -0.618  53.064  1.00  0.00     0.127 C 
HETATM    4  N2  UNL     1      23.236   0.345  52.592  1.00  0.00    -0.365 N 
HETATM    5  C7  UNL     1      24.614   0.383  52.939  1.00  0.00     0.095 C 
HETATM    6  C8  UNL     1      25.706   0.979  52.496  1.00  0.00    -0.037 C 
HETATM    7  C15 UNL     1      25.521   1.874  51.295  1.00  0.00     0.086 C 
HETATM    8  C16 UNL     1      24.523   2.902  51.602  1.00  0.00     0.090 C 
HETATM    9  N3  UNL     1      23.293   2.581  51.750  1.00  0.00    -0.277 NA
HETATM   10  C17 UNL     1      22.617   1.320  51.675  1.00  0.00     0.240 C 
ENDROOT
BRANCH   6  11
HETATM   11  C9  UNL     1      27.005   0.810  53.086  1.00  0.00     0.020 C 
HETATM   12  C10 UNL     1      27.967  -0.041  53.274  1.00  0.00    -0.036 A 
HETATM   13  C11 UNL     1      28.076  -1.430  52.855  1.00  0.00     0.011 A 
HETATM   14  C14 UNL     1      29.212   0.217  53.982  1.00  0.00     0.011 A 
HETATM   15  C12 UNL     1      29.219  -1.963  53.243  1.00  0.00     0.001 A 
HETATM   16  C13 UNL     1      29.913  -0.897  53.952  1.00  0.00     0.001 A 
ENDBRANCH   6  11
BRANCH   1  17
HETATM   17  N1  UNL     1      20.242   2.036  51.593  1.00  0.00     0.105 N 
HETATM   18  C2  UNL     1      18.872   1.658  51.670  1.00  0.00     0.248 A 
HETATM   19  C1  UNL     1      17.891   2.821  51.579  1.00  0.00     0.045 C 
HETATM   20  C3  UNL     1      19.715   1.431  50.410  1.00  0.00     0.308 A 
ENDBRANCH   1  17
TORSDOF 2
ENDMDL
MODEL 5
REMARK VINA RESULT:      -7.1      1.594      2.698
REMARK  2 active torsions:
REMARK  status: ('A' for Active; 'I' for Inactive)
REMARK    1  A    between atoms: N1_4  and  C4_5 
REMARK    2  A    between atoms: C8_10  and  C9_11 
ROOT
HETATM    1  C4  UNL     1      21.636   0.423  51.653  1.00  0.00     0.269 C 
HETATM    2  C5  UNL     1      20.594   1.314  50.963  1.00  0.00     0.059 C 
HETATM    3  C6  UNL     1      21.427   2.320  50.187  1.00  0.00     0.127 C 
HETATM    4  N2  UNL     1      22.746   2.207  50.802  1.00  0.00    -0.365 N 
HETATM    5  C7  UNL     1      23.964   2.734  50.294  1.00  0.00     0.095 C 
HETATM    6  C8  UNL     1      25.186   2.954  50.748  1.00  0.00    -0.037 C 
HETATM    7  C15 UNL     1      25.427   2.574  52.187  1.00  0.00     0.086 C 
HETATM    8  C16 UNL     1      25.109   1.156  52.377  1.00  0.00     0.090 C 
HETATM    9  N3  UNL     1      23.896   0.753  52.309  1.00  0.00    -0.277 NA
HETATM   10  C17 UNL     1      22.668   1.450  52.064  1.00  0.00     0.240 C 
ENDROOT
BRANCH   6  11
HETATM   11  C9  UNL     1      26.242   3.521  49.957  1.00  0.00     0.020 C 
HETATM   12  C10 UNL     1      26.635   4.603  49.355  1.00  0.00    -0.036 A 
HETATM   13  C11 UNL     1      25.988   5.901  49.257  1.00  0.00     0.011 A 
HETATM   14  C14 UNL     1      27.874   4.763  48.607  1.00  0.00     0.011 A 
HETATM   15  C12 UNL     1      26.712   6.750  48.552  1.00  0.00     0.001 A 
HETATM   16  C13 UNL     1      27.897   6.001  48.157  1.00  0.00     0.001 A 
ENDBRANCH   6  11
BRANCH   1  17
HETATM   17  N1  UNL     1      20.991  -0.262  52.711  1.00  0.00     0.105 N 
HETATM   18  C2  UNL     1      19.624  -0.100  53.073  1.00  0.00     0.248 A 
HETATM   19  C1  UNL     1      18.916  -1.396  53.452  1.00  0.00     0.045 C 
HETATM   20  C3  UNL     1      20.772   0.298  54.008  1.00  0.00     0.308 A 
ENDBRANCH   1  17
TORSDOF 2
ENDMDL
MODEL 6
REMARK VINA RESULT:      -6.9      3.556      8.102
REMARK  2 active torsions:
REMARK  status: ('A' for Active; 'I' for Inactive)
REMARK    1  A    between atoms: N1_4  and  C4_5 
REMARK    2  A    between atoms: C8_10  and  C9_11 
ROOT
HETATM    1  C4  UNL     1      24.167  -0.256  53.380  1.00  0.00     0.269 C 
HETATM    2  C5  UNL     1      24.165  -0.886  54.780  1.00  0.00     0.059 C 
HETATM    3  C6  UNL     1      22.716  -1.286  55.000  1.00  0.00     0.127 C 
HETATM    4  N2  UNL     1      21.999  -0.516  53.990  1.00  0.00    -0.365 N 
HETATM    5  C7  UNL     1      20.650  -0.703  53.582  1.00  0.00     0.095 C 
HETATM    6  C8  UNL     1      19.747  -0.031  52.890  1.00  0.00    -0.037 C 
HETATM    7  C15 UNL     1      20.193   1.311  52.364  1.00  0.00     0.086 C 
HETATM    8  C16 UNL     1      21.383   1.136  51.527  1.00  0.00     0.090 C 
HETATM    9  N3  UNL     1      22.498   0.796  52.055  1.00  0.00    -0.277 NA
HETATM   10  C17 UNL     1      22.871   0.523  53.412  1.00  0.00     0.240 C 
ENDROOT
BRANCH   6  11
HETATM   11  C9  UNL     1      18.415  -0.507  52.638  1.00  0.00     0.020 C 
HETATM   12  C10 UNL     1      17.489  -0.595  51.733  1.00  0.00    -0.036 A 
HETATM   13  C11 UNL     1      17.489  -0.134  50.354  1.00  0.00     0.011 A 
HETATM   14  C14 UNL     1      16.179  -1.205  51.906  1.00  0.00     0.011 A 
HETATM   15  C12 UNL     1      16.348  -0.413  49.751  1.00  0.00     0.001 A 
HETATM   16  C13 UNL     1      15.542  -1.089  50.759  1.00  0.00     0.001 A 
ENDBRANCH   6  11
BRANCH   1  17
HETATM   17  N1  UNL     1      25.347   0.516  53.252  1.00  0.00     0.105 N 
HETATM   18  C2  UNL     1      26.270   0.421  52.172  1.00  0.00     0.248 A 
HETATM   19  C1  UNL     1      26.820   1.759  51.694  1.00  0.00     0.045 C 
HETATM   20  C3  UNL     1      26.650   0.049  53.610  1.00  0.00     0.308 A 
ENDBRANCH   1  17
TORSDOF 2
ENDMDL
MODEL 7
REMARK VINA RESULT:      -6.7      2.539      3.157
REMARK  2 active torsions:
REMARK  status: ('A' for Active; 'I' for Inactive)
REMARK    1  A    between atoms: N1_4  and  C4_5 
REMARK    2  A    between atoms: C8_10  and  C9_11 
ROOT
HETATM    1  C4  UNL     1      21.949   1.477  50.601  1.00  0.00     0.269 C 
HETATM    2  C5  UNL     1      21.345   1.238  49.210  1.00  0.00     0.059 C 
HETATM    3  C6  UNL     1      22.102   2.200  48.310  1.00  0.00     0.127 C 
HETATM    4  N2  UNL     1      22.703   3.138  49.253  1.00  0.00    -0.365 N 
HETATM    5  C7  UNL     1      23.723   4.087  48.971  1.00  0.00     0.095 C 
HETATM    6  C8  UNL     1      24.247   5.147  49.560  1.00  0.00    -0.037 C 
HETATM    7  C15 UNL     1      23.649   5.516  50.895  1.00  0.00     0.086 C 
HETATM    8  C16 UNL     1      23.755   4.376  51.810  1.00  0.00     0.090 C 
HETATM    9  N3  UNL     1      23.057   3.322  51.610  1.00  0.00    -0.277 NA
HETATM   10  C17 UNL     1      22.106   2.982  50.593  1.00  0.00     0.240 C 
ENDROOT
BRANCH   6  11
HETATM   11  C9  UNL     1      25.314   5.928  48.999  1.00  0.00     0.020 C 
HETATM   12  C10 UNL     1      26.564   5.896  48.651  1.00  0.00    -0.036 A 
HETATM   13  C11 UNL     1      27.525   4.807  48.731  1.00  0.00     0.011 A 
HETATM   14  C14 UNL     1      27.320   6.998  48.073  1.00  0.00     0.011 A 
HETATM   15  C12 UNL     1      28.708   5.172  48.273  1.00  0.00     0.001 A 
HETATM   16  C13 UNL     1      28.545   6.561  47.865  1.00  0.00     0.001 A 
ENDBRANCH   6  11
BRANCH   1  17
HETATM   17  N1  UNL     1      21.049   0.956  51.561  1.00  0.00     0.105 N 
HETATM   18  C2  UNL     1      19.630   1.024  51.470  1.00  0.00     0.248 A 
HETATM   19  C1  UNL     1      18.909  -0.240  51.925  1.00  0.00     0.045 C 
HETATM   20  C3  UNL     1      20.415   1.745  52.572  1.00  0.00     0.308 A 
ENDBRANCH   1  17
TORSDOF 2
ENDMDL
MODEL 8
REMARK VINA RESULT:      -6.7      4.177      6.768
REMARK  2 active torsions:
REMARK  status: ('A' for Active; 'I' for Inactive)
REMARK    1  A    between atoms: N1_4  and  C4_5 
REMARK    2  A    between atoms: C8_10  and  C9_11 
ROOT
HETATM    1  C4  UNL     1      18.385  -0.152  51.143  1.00  0.00     0.269 C 
HETATM    2  C5  UNL     1      18.706   0.955  50.130  1.00  0.00     0.059 C 
HETATM    3  C6  UNL     1      20.203   1.169  50.283  1.00  0.00     0.127 C 
HETATM    4  N2  UNL     1      20.501   0.542  51.566  1.00  0.00    -0.365 N 
HETATM    5  C7  UNL     1      21.790   0.227  52.075  1.00  0.00     0.095 C 
HETATM    6  C8  UNL     1      22.313  -0.114  53.240  1.00  0.00    -0.037 C 
HETATM    7  C15 UNL     1      21.341  -0.210  54.390  1.00  0.00     0.086 C 
HETATM    8  C16 UNL     1      20.284  -1.168  54.057  1.00  0.00     0.090 C 
HETATM    9  N3  UNL     1      19.426  -0.891  53.148  1.00  0.00    -0.277 NA
HETATM   10  C17 UNL     1      19.259   0.258  52.308  1.00  0.00     0.240 C 
ENDROOT
BRANCH   6  11
HETATM   11  C9  UNL     1      23.710  -0.381  53.442  1.00  0.00     0.020 C 
HETATM   12  C10 UNL     1      24.905  -0.053  53.055  1.00  0.00    -0.036 A 
HETATM   13  C11 UNL     1      25.327   0.915  52.055  1.00  0.00     0.011 A 
HETATM   14  C14 UNL     1      26.151  -0.611  53.560  1.00  0.00     0.011 A 
HETATM   15  C12 UNL     1      26.642   0.957  51.949  1.00  0.00     0.001 A 
HETATM   16  C13 UNL     1      27.132  -0.018  52.913  1.00  0.00     0.001 A 
ENDBRANCH   6  11
BRANCH   1  17
HETATM   17  N1  UNL     1      16.990  -0.132  51.382  1.00  0.00     0.105 N 
HETATM   18  C2  UNL     1      16.277   0.957  51.960  1.00  0.00     0.248 A 
HETATM   19  C1  UNL     1      14.922   1.233  51.320  1.00  0.00     0.045 C 
HETATM   20  C3  UNL     1      16.393  -0.406  52.652  1.00  0.00     0.308 A 
ENDBRANCH   1  17
TORSDOF 2
ENDMDL
MODEL 9
REMARK VINA RESULT:      -6.6      4.173     10.163
REMARK  2 active torsions:
REMARK  status: ('A' for Active; 'I' for Inactive)
REMARK    1  A    between atoms: N1_4  and  C4_5 
REMARK    2  A    between atoms: C8_10  and  C9_11 
ROOT
HETATM    1  C4  UNL     1      21.790   0.650  52.042  1.00  0.00     0.269 C 
HETATM    2  C5  UNL     1      22.625   0.552  53.326  1.00  0.00     0.059 C 
HETATM    3  C6  UNL     1      21.927  -0.526  54.137  1.00  0.00     0.127 C 
HETATM    4  N2  UNL     1      20.616  -0.625  53.504  1.00  0.00    -0.365 N 
HETATM    5  C7  UNL     1      19.657  -1.656  53.699  1.00  0.00     0.095 C 
HETATM    6  C8  UNL     1      18.377  -1.848  53.435  1.00  0.00    -0.037 C 
HETATM    7  C15 UNL     1      17.673  -0.706  52.747  1.00  0.00     0.086 C 
HETATM    8  C16 UNL     1      18.363  -0.390  51.493  1.00  0.00     0.090 C 
HETATM    9  N3  UNL     1      19.530   0.134  51.515  1.00  0.00    -0.277 NA
HETATM   10  C17 UNL     1      20.388   0.515  52.597  1.00  0.00     0.240 C 
ENDROOT
BRANCH   6  11
HETATM   11  C9  UNL     1      17.663  -3.049  53.769  1.00  0.00     0.020 C 
HETATM   12  C10 UNL     1      16.629  -3.772  53.463  1.00  0.00    -0.036 A 
HETATM   13  C11 UNL     1      15.613  -3.558  52.445  1.00  0.00     0.011 A 
HETATM   14  C14 UNL     1      16.237  -5.019  54.103  1.00  0.00     0.011 A 
HETATM   15  C12 UNL     1      14.716  -4.528  52.447  1.00  0.00     0.001 A 
HETATM   16  C13 UNL     1      15.140  -5.434  53.505  1.00  0.00     0.001 A 
ENDBRANCH   6  11
BRANCH   1  17
HETATM   17  N1  UNL     1      22.090   1.886  51.420  1.00  0.00     0.105 N 
HETATM   18  C2  UNL     1      23.375   2.265  50.939  1.00  0.00     0.248 A 
HETATM   19  C1  UNL     1      23.355   3.013  49.611  1.00  0.00     0.045 C 
HETATM   20  C3  UNL     1      22.684   2.997  52.096  1.00  0.00     0.308 A 
ENDBRANCH   1  17
TORSDOF 2
ENDMDL
