MODEL 1
REMARK VINA RESULT:      -8.2      0.000      0.000
REMARK  7 active torsions:
REMARK  status: ('A' for Active; 'I' for Inactive)
REMARK    1  A    between atoms: P1_2  and  C2_3 
REMARK    2  A    between atoms: C4_7  and  N3_8 
REMARK    3  A    between atoms: N3_8  and  C5_9 
REMARK    4  A    between atoms: C12_18  and  O1_19 
REMARK    5  A    between atoms: C12_18  and  C19_27 
REMARK    6  A    between atoms: O1_19  and  C13_20 
REMARK    7  A    between atoms: C19_27  and  O2_29 
ROOT
HETATM    1  C2  UNL     1      22.141   1.106  50.702  1.00  0.00     0.184 C 
HETATM    2  N1  UNL     1      21.924   1.513  49.342  1.00  0.00    -0.267 NA
HETATM    3  C3  UNL     1      22.622   2.407  48.776  1.00  0.00     0.230 C 
HETATM    4  N2  UNL     1      23.693   3.127  49.358  1.00  0.00    -0.224 NA
HETATM    5  C4  UNL     1      24.043   2.874  50.599  1.00  0.00     0.141 C 
HETATM    6  C11 UNL     1      23.322   1.795  51.262  1.00  0.00     0.054 C 
HETATM    7  C12 UNL     1      23.841   1.467  52.427  1.00  0.00     0.114 C 
ENDROOT
BRANCH   1   8
HETATM    8  P1  UNL     1      20.588   1.576  51.625  1.00  0.00    -0.039 P 
HETATM    9  C1  UNL     1      20.458   3.086  52.332  1.00  0.00     0.026 C 
ENDBRANCH   1   8
BRANCH   5  10
HETATM   10  N3  UNL     1      25.114   3.663  51.061  1.00  0.00    -0.340 N 
HETATM   11  H5  UNL     1      25.346   3.451  52.078  1.00  0.00     0.167 HD
BRANCH  10  12
HETATM   12  C5  UNL     1      25.740   4.619  50.181  1.00  0.00     0.035 A 
HETATM   13  C6  UNL     1      26.839   3.991  49.583  1.00  0.00     0.032 A 
HETATM   14  C7  UNL     1      27.639   4.698  48.675  1.00  0.00     0.046 A 
HETATM   15  C8  UNL     1      27.336   6.022  48.369  1.00  0.00     0.138 A 
HETATM   16  F1  UNL     1      28.072   6.762  47.496  1.00  0.00    -0.204 F 
HETATM   17  C9  UNL     1      26.244   6.597  48.983  1.00  0.00     0.074 A 
HETATM   18 CL1  UNL     1      25.776   8.256  48.670  1.00  0.00    -0.081 Cl
HETATM   19  C10 UNL     1      25.440   5.928  49.879  1.00  0.00     0.056 A 
ENDBRANCH  10  12
ENDBRANCH   5  10
BRANCH   7  20
HETATM   20  O1  UNL     1      24.890   1.870  53.230  1.00  0.00    -0.342 OA
BRANCH  20  21
HETATM   21  C13 UNL     1      26.130   1.247  53.350  1.00  0.00     0.132 C 
HETATM   22  C14 UNL     1      26.318   0.669  54.762  1.00  0.00     0.062 C 
HETATM   23  C15 UNL     1      27.622  -0.091  54.712  1.00  0.00     0.274 C 
HETATM   24  N4  UNL     1      28.412   0.252  53.534  1.00  0.00     0.084 N 
HETATM   25  C16 UNL     1      29.677  -0.426  53.576  1.00  0.00     0.309 C 
HETATM   26  C17 UNL     1      28.592   1.669  53.375  1.00  0.00     0.274 C 
HETATM   27  C18 UNL     1      27.229   2.292  53.187  1.00  0.00     0.062 C 
ENDBRANCH  20  21
ENDBRANCH   7  20
BRANCH   7  28
HETATM   28  C19 UNL     1      23.231   0.383  53.192  1.00  0.00     0.092 C 
HETATM   29  C20 UNL     1      23.391  -0.926  53.090  1.00  0.00     0.053 C 
BRANCH  28  30
HETATM   30  O2  UNL     1      22.326   0.349  54.230  1.00  0.00    -0.354 OA
HETATM   31  C21 UNL     1      21.547  -0.729  54.649  1.00  0.00     0.210 C 
ENDBRANCH  28  30
ENDBRANCH   7  28
TORSDOF 7
ENDMDL
MODEL 2
REMARK VINA RESULT:      -7.9      2.083      5.103
REMARK  7 active torsions:
REMARK  status: ('A' for Active; 'I' for Inactive)
REMARK    1  A    between atoms: P1_2  and  C2_3 
REMARK    2  A    between atoms: C4_7  and  N3_8 
REMARK    3  A    between atoms: N3_8  and  C5_9 
REMARK    4  A    between atoms: C12_18  and  O1_19 
REMARK    5  A    between atoms: C12_18  and  C19_27 
REMARK    6  A    between atoms: O1_19  and  C13_20 
REMARK    7  A    between atoms: C19_27  and  O2_29 
ROOT
HETATM    1  C2  UNL     1      25.512   1.121  53.561  1.00  0.00     0.184 C 
HETATM    2  N1  UNL     1      26.799   1.570  54.012  1.00  0.00    -0.267 NA
HETATM    3  C3  UNL     1      27.588   2.237  53.277  1.00  0.00     0.230 C 
HETATM    4  N2  UNL     1      27.346   2.644  51.943  1.00  0.00    -0.224 NA
HETATM    5  C4  UNL     1      26.205   2.333  51.369  1.00  0.00     0.141 C 
HETATM    6  C11 UNL     1      25.235   1.636  52.203  1.00  0.00     0.054 C 
HETATM    7  C12 UNL     1      24.053   1.521  51.635  1.00  0.00     0.114 C 
ENDROOT
BRANCH   1   8
HETATM    8  P1  UNL     1      25.594  -0.744  53.567  1.00  0.00    -0.039 P 
HETATM    9  C1  UNL     1      26.795  -1.533  52.712  1.00  0.00     0.026 C 
ENDBRANCH   1   8
BRANCH   5  10
HETATM   10  N3  UNL     1      26.094   2.787  50.040  1.00  0.00    -0.340 N 
HETATM   11  H5  UNL     1      25.946   1.980  49.362  1.00  0.00     0.167 HD
BRANCH  10  12
HETATM   12  C5  UNL     1      26.193   4.195  49.747  1.00  0.00     0.035 A 
HETATM   13  C6  UNL     1      27.289   4.378  48.896  1.00  0.00     0.032 A 
HETATM   14  C7  UNL     1      27.622   5.664  48.450  1.00  0.00     0.046 A 
HETATM   15  C8  UNL     1      26.860   6.757  48.855  1.00  0.00     0.138 A 
HETATM   16  F1  UNL     1      27.130   8.029  48.458  1.00  0.00    -0.204 F 
HETATM   17  C9  UNL     1      25.791   6.527  49.694  1.00  0.00     0.074 A 
HETATM   18 CL1  UNL     1      24.768   7.831  50.263  1.00  0.00    -0.081 Cl
HETATM   19  C10 UNL     1      25.440   5.275  50.148  1.00  0.00     0.056 A 
ENDBRANCH  10  12
ENDBRANCH   5  10
BRANCH   7  20
HETATM   20  O1  UNL     1      23.456   1.864  50.438  1.00  0.00    -0.342 OA
BRANCH  20  21
HETATM   21  C13 UNL     1      22.421   2.780  50.260  1.00  0.00     0.132 C 
HETATM   22  C14 UNL     1      22.515   3.449  48.878  1.00  0.00     0.062 C 
HETATM   23  C15 UNL     1      21.271   4.297  48.761  1.00  0.00     0.274 C 
HETATM   24  N4  UNL     1      20.613   4.488  50.048  1.00  0.00     0.084 N 
HETATM   25  C16 UNL     1      19.490   5.370  49.901  1.00  0.00     0.309 C 
HETATM   26  C17 UNL     1      21.509   4.959  51.069  1.00  0.00     0.274 C 
HETATM   27  C18 UNL     1      22.576   3.910  51.271  1.00  0.00     0.062 C 
ENDBRANCH  20  21
ENDBRANCH   7  20
BRANCH   7  28
HETATM   28  C19 UNL     1      22.977   0.862  52.369  1.00  0.00     0.092 C 
HETATM   29  C20 UNL     1      22.301  -0.238  52.085  1.00  0.00     0.053 C 
BRANCH  28  30
HETATM   30  O2  UNL     1      22.326   1.144  53.551  1.00  0.00    -0.354 OA
HETATM   31  C21 UNL     1      21.302   0.417  54.156  1.00  0.00     0.210 C 
ENDBRANCH  28  30
ENDBRANCH   7  28
TORSDOF 7
ENDMDL
MODEL 3
REMARK VINA RESULT:      -7.7      3.620      6.693
REMARK  7 active torsions:
REMARK  status: ('A' for Active; 'I' for Inactive)
REMARK    1  A    between atoms: P1_2  and  C2_3 
REMARK    2  A    between atoms: C4_7  and  N3_8 
REMARK    3  A    between atoms: N3_8  and  C5_9 
REMARK    4  A    between atoms: C12_18  and  O1_19 
REMARK    5  A    between atoms: C12_18  and  C19_27 
REMARK    6  A    between atoms: O1_19  and  C13_20 
REMARK    7  A    between atoms: C19_27  and  O2_29 
ROOT
HETATM    1  C2  UNL     1      25.105   5.405  49.416  1.00  0.00     0.184 C 
HETATM    2  N1  UNL     1      26.387   5.125  48.833  1.00  0.00    -0.267 NA
HETATM    3  C3  UNL     1      27.085   4.119  49.163  1.00  0.00     0.230 C 
HETATM    4  N2  UNL     1      26.735   3.136  50.119  1.00  0.00    -0.224 NA
HETATM    5  C4  UNL     1      25.583   3.223  50.745  1.00  0.00     0.141 C 
HETATM    6  C11 UNL     1      24.713   4.318  50.338  1.00  0.00     0.054 C 
HETATM    7  C12 UNL     1      23.507   4.242  50.862  1.00  0.00     0.114 C 
ENDROOT
BRANCH   1   8
HETATM    8  P1  UNL     1      25.306   7.021  50.328  1.00  0.00    -0.039 P 
HETATM    9  C1  UNL     1      24.687   8.432  49.679  1.00  0.00     0.026 C 
ENDBRANCH   1   8
BRANCH   5  10
HETATM   10  N3  UNL     1      25.361   2.190  51.676  1.00  0.00    -0.340 N 
HETATM   11  H5  UNL     1      24.325   1.960  51.765  1.00  0.00     0.167 HD
BRANCH  10  12
HETATM   12  C5  UNL     1      26.474   1.593  52.373  1.00  0.00     0.035 A 
HETATM   13  C6  UNL     1      26.429   0.213  52.146  1.00  0.00     0.032 A 
HETATM   14  C7  UNL     1      27.401  -0.621  52.715  1.00  0.00     0.046 A 
HETATM   15  C8  UNL     1      28.409  -0.074  53.503  1.00  0.00     0.138 A 
HETATM   16  F1  UNL     1      29.381  -0.828  54.083  1.00  0.00    -0.204 F 
HETATM   17  C9  UNL     1      28.411   1.291  53.699  1.00  0.00     0.074 A 
HETATM   18 CL1  UNL     1      29.633   2.082  54.673  1.00  0.00    -0.081 Cl
HETATM   19  C10 UNL     1      27.470   2.136  53.153  1.00  0.00     0.056 A 
ENDBRANCH  10  12
ENDBRANCH   5  10
BRANCH   7  20
HETATM   20  O1  UNL     1      22.816   3.411  51.721  1.00  0.00    -0.342 OA
BRANCH  20  21
HETATM   21  C13 UNL     1      21.665   2.684  51.426  1.00  0.00     0.132 C 
HETATM   22  C14 UNL     1      20.522   3.055  52.385  1.00  0.00     0.062 C 
HETATM   23  C15 UNL     1      19.312   2.313  51.870  1.00  0.00     0.274 C 
HETATM   24  N4  UNL     1      19.674   1.266  50.921  1.00  0.00     0.084 N 
HETATM   25  C16 UNL     1      18.504   0.532  50.529  1.00  0.00     0.309 C 
HETATM   26  C17 UNL     1      20.692   0.383  51.423  1.00  0.00     0.274 C 
HETATM   27  C18 UNL     1      21.936   1.203  51.670  1.00  0.00     0.062 C 
ENDBRANCH  20  21
ENDBRANCH   7  20
BRANCH   7  28
HETATM   28  C19 UNL     1      22.522   5.264  50.521  1.00  0.00     0.092 C 
HETATM   29  C20 UNL     1      21.854   5.462  49.397  1.00  0.00     0.053 C 
BRANCH  28  30
HETATM   30  O2  UNL     1      21.975   6.323  51.214  1.00  0.00    -0.354 OA
HETATM   31  C21 UNL     1      21.285   7.417  50.696  1.00  0.00     0.210 C 
ENDBRANCH  28  30
ENDBRANCH   7  28
TORSDOF 7
ENDMDL
MODEL 4
REMARK VINA RESULT:      -7.1      3.625      6.219
REMARK  7 active torsions:
REMARK  status: ('A' for Active; 'I' for Inactive)
REMARK    1  A    between atoms: P1_2  and  C2_3 
REMARK    2  A    between atoms: C4_7  and  N3_8 
REMARK    3  A    between atoms: N3_8  and  C5_9 
REMARK    4  A    between atoms: C12_18  and  O1_19 
REMARK    5  A    between atoms: C12_18  and  C19_27 
REMARK    6  A    between atoms: O1_19  and  C13_20 
REMARK    7  A    between atoms: C19_27  and  O2_29 
ROOT
HETATM    1  C2  UNL     1      20.629   1.304  52.724  1.00  0.00     0.184 C 
HETATM    2  N1  UNL     1      20.913   0.438  53.833  1.00  0.00    -0.267 NA
HETATM    3  C3  UNL     1      22.071  -0.023  54.063  1.00  0.00     0.230 C 
HETATM    4  N2  UNL     1      23.238   0.228  53.302  1.00  0.00    -0.224 NA
HETATM    5  C4  UNL     1      23.169   1.016  52.253  1.00  0.00     0.141 C 
HETATM    6  C11 UNL     1      21.874   1.634  51.998  1.00  0.00     0.054 C 
HETATM    7  C12 UNL     1      21.916   2.551  51.054  1.00  0.00     0.114 C 
ENDROOT
BRANCH   1   8
HETATM    8  P1  UNL     1      19.446   0.358  51.633  1.00  0.00    -0.039 P 
HETATM    9  C1  UNL     1      17.807   0.375  51.961  1.00  0.00     0.026 C 
ENDBRANCH   1   8
BRANCH   5  10
HETATM   10  N3  UNL     1      24.395   1.176  51.578  1.00  0.00    -0.340 N 
HETATM   11  H5  UNL     1      24.248   1.470  50.566  1.00  0.00     0.167 HD
BRANCH  10  12
HETATM   12  C5  UNL     1      25.637   0.934  52.269  1.00  0.00     0.035 A 
HETATM   13  C6  UNL     1      25.994   2.115  52.931  1.00  0.00     0.032 A 
HETATM   14  C7  UNL     1      27.173   2.164  53.686  1.00  0.00     0.046 A 
HETATM   15  C8  UNL     1      27.986   1.037  53.776  1.00  0.00     0.138 A 
HETATM   16  F1  UNL     1      29.142   1.020  54.493  1.00  0.00    -0.204 F 
HETATM   17  C9  UNL     1      27.593  -0.102  53.106  1.00  0.00     0.074 A 
HETATM   18 CL1  UNL     1      28.542  -1.574  53.154  1.00  0.00    -0.081 Cl
HETATM   19  C10 UNL     1      26.441  -0.181  52.357  1.00  0.00     0.056 A 
ENDBRANCH  10  12
ENDBRANCH   5  10
BRANCH   7  20
HETATM   20  O1  UNL     1      22.853   3.100  50.202  1.00  0.00    -0.342 OA
BRANCH  20  21
HETATM   21  C13 UNL     1      23.260   4.431  50.161  1.00  0.00     0.132 C 
HETATM   22  C14 UNL     1      22.976   5.048  48.782  1.00  0.00     0.062 C 
HETATM   23  C15 UNL     1      23.326   6.511  48.919  1.00  0.00     0.274 C 
HETATM   24  N4  UNL     1      24.115   6.776  50.117  1.00  0.00     0.084 N 
HETATM   25  C16 UNL     1      24.498   8.159  50.157  1.00  0.00     0.309 C 
HETATM   26  C17 UNL     1      25.265   5.919  50.229  1.00  0.00     0.274 C 
HETATM   27  C18 UNL     1      24.774   4.495  50.332  1.00  0.00     0.062 C 
ENDBRANCH  20  21
ENDBRANCH   7  20
BRANCH   7  28
HETATM   28  C19 UNL     1      20.691   3.269  50.711  1.00  0.00     0.092 C 
HETATM   29  C20 UNL     1      19.987   4.137  51.418  1.00  0.00     0.053 C 
BRANCH  28  30
HETATM   30  O2  UNL     1      19.886   3.290  49.593  1.00  0.00    -0.354 OA
HETATM   31  C21 UNL     1      18.495   3.351  49.543  1.00  0.00     0.210 C 
ENDBRANCH  28  30
ENDBRANCH   7  28
TORSDOF 7
ENDMDL
MODEL 5
REMARK VINA RESULT:      -6.9      2.551      5.514
REMARK  7 active torsions:
REMARK  status: ('A' for Active; 'I' for Inactive)
REMARK    1  A    between atoms: P1_2  and  C2_3 
REMARK    2  A    between atoms: C4_7  and  N3_8 
REMARK    3  A    between atoms: N3_8  and  C5_9 
REMARK    4  A    between atoms: C12_18  and  O1_19 
REMARK    5  A    between atoms: C12_18  and  C19_27 
REMARK    6  A    between atoms: O1_19  and  C13_20 
REMARK    7  A    between atoms: C19_27  and  O2_29 
ROOT
HETATM    1  C2  UNL     1      25.283   0.961  53.629  1.00  0.00     0.184 C 
HETATM    2  N1  UNL     1      26.514   1.684  53.785  1.00  0.00    -0.267 NA
HETATM    3  C3  UNL     1      26.969   2.463  52.895  1.00  0.00     0.230 C 
HETATM    4  N2  UNL     1      26.366   2.750  51.647  1.00  0.00    -0.224 NA
HETATM    5  C4  UNL     1      25.219   2.187  51.338  1.00  0.00     0.141 C 
HETATM    6  C11 UNL     1      24.619   1.347  52.366  1.00  0.00     0.054 C 
HETATM    7  C12 UNL     1      23.393   0.966  52.071  1.00  0.00     0.114 C 
ENDROOT
BRANCH   1   8
HETATM    8  P1  UNL     1      25.753  -0.845  53.617  1.00  0.00    -0.039 P 
HETATM    9  C1  UNL     1      26.779  -1.437  52.437  1.00  0.00     0.026 C 
ENDBRANCH   1   8
BRANCH   5  10
HETATM   10  N3  UNL     1      24.732   2.548  50.067  1.00  0.00    -0.340 N 
HETATM   11  H5  UNL     1      24.817   1.744  49.373  1.00  0.00     0.167 HD
BRANCH  10  12
HETATM   12  C5  UNL     1      24.212   3.874  49.841  1.00  0.00     0.035 A 
HETATM   13  C6  UNL     1      23.438   3.835  48.675  1.00  0.00     0.032 A 
HETATM   14  C7  UNL     1      22.809   5.000  48.215  1.00  0.00     0.046 A 
HETATM   15  C8  UNL     1      22.955   6.192  48.919  1.00  0.00     0.138 A 
HETATM   16  F1  UNL     1      22.371   7.355  48.526  1.00  0.00    -0.204 F 
HETATM   17  C9  UNL     1      23.728   6.180  50.061  1.00  0.00     0.074 A 
HETATM   18 CL1  UNL     1      23.978   7.624  51.022  1.00  0.00    -0.081 Cl
HETATM   19  C10 UNL     1      24.358   5.052  50.538  1.00  0.00     0.056 A 
ENDBRANCH  10  12
ENDBRANCH   5  10
BRANCH   7  20
HETATM   20  O1  UNL     1      22.494   1.126  51.036  1.00  0.00    -0.342 OA
BRANCH  20  21
HETATM   21  C13 UNL     1      21.201   1.637  51.130  1.00  0.00     0.132 C 
HETATM   22  C14 UNL     1      20.552   1.742  49.740  1.00  0.00     0.062 C 
HETATM   23  C15 UNL     1      19.126   2.166  49.997  1.00  0.00     0.274 C 
HETATM   24  N4  UNL     1      18.938   2.665  51.355  1.00  0.00     0.084 N 
HETATM   25  C16 UNL     1      17.593   3.137  51.524  1.00  0.00     0.309 C 
HETATM   26  C17 UNL     1      19.890   3.681  51.714  1.00  0.00     0.274 C 
HETATM   27  C18 UNL     1      21.268   3.065  51.658  1.00  0.00     0.062 C 
ENDBRANCH  20  21
ENDBRANCH   7  20
BRANCH   7  28
HETATM   28  C19 UNL     1      22.662   0.137  53.025  1.00  0.00     0.092 C 
HETATM   29  C20 UNL     1      22.369  -1.152  52.983  1.00  0.00     0.053 C 
BRANCH  28  30
HETATM   30  O2  UNL     1      22.056   0.395  54.235  1.00  0.00    -0.354 OA
HETATM   31  C21 UNL     1      20.696   0.344  54.537  1.00  0.00     0.210 C 
ENDBRANCH  28  30
ENDBRANCH   7  28
TORSDOF 7
ENDMDL
MODEL 6
REMARK VINA RESULT:      -6.7      2.355      2.974
REMARK  7 active torsions:
REMARK  status: ('A' for Active; 'I' for Inactive)
REMARK    1  A    between atoms: P1_2  and  C2_3 
REMARK    2  A    between atoms: C4_7  and  N3_8 
REMARK    3  A    between atoms: N3_8  and  C5_9 
REMARK    4  A    between atoms: C12_18  and  O1_19 
REMARK    5  A    between atoms: C12_18  and  C19_27 
REMARK    6  A    between atoms: O1_19  and  C13_20 
REMARK    7  A    between atoms: C19_27  and  O2_29 
ROOT
HETATM    1  C2  UNL     1      21.345   4.367  49.077  1.00  0.00     0.184 C 
HETATM    2  N1  UNL     1      21.142   5.421  48.123  1.00  0.00    -0.267 NA
HETATM    3  C3  UNL     1      21.923   6.414  48.023  1.00  0.00     0.230 C 
HETATM    4  N2  UNL     1      23.085   6.646  48.798  1.00  0.00    -0.224 NA
HETATM    5  C4  UNL     1      23.436   5.773  49.715  1.00  0.00     0.141 C 
HETATM    6  C11 UNL     1      22.612   4.574  49.809  1.00  0.00     0.054 C 
HETATM    7  C12 UNL     1      23.120   3.660  50.609  1.00  0.00     0.114 C 
ENDROOT
BRANCH   1   8
HETATM    8  P1  UNL     1      19.881   4.442  50.233  1.00  0.00    -0.039 P 
HETATM    9  C1  UNL     1      18.589   3.403  50.018  1.00  0.00     0.026 C 
ENDBRANCH   1   8
BRANCH   5  10
HETATM   10  N3  UNL     1      24.602   6.125  50.421  1.00  0.00    -0.340 N 
HETATM   11  H5  UNL     1      24.443   6.107  51.473  1.00  0.00     0.167 HD
BRANCH  10  12
HETATM   12  C5  UNL     1      25.807   6.462  49.704  1.00  0.00     0.035 A 
HETATM   13  C6  UNL     1      26.315   5.282  49.146  1.00  0.00     0.032 A 
HETATM   14  C7  UNL     1      27.495   5.317  48.391  1.00  0.00     0.046 A 
HETATM   15  C8  UNL     1      28.158   6.526  48.197  1.00  0.00     0.138 A 
HETATM   16  F1  UNL     1      29.306   6.627  47.475  1.00  0.00    -0.204 F 
HETATM   17  C9  UNL     1      27.620   7.660  48.768  1.00  0.00     0.074 A 
HETATM   18 CL1  UNL     1      28.375   9.231  48.586  1.00  0.00    -0.081 Cl
HETATM   19  C10 UNL     1      26.463   7.657  49.514  1.00  0.00     0.056 A 
ENDBRANCH  10  12
ENDBRANCH   5  10
BRANCH   7  20
HETATM   20  O1  UNL     1      24.228   3.511  51.418  1.00  0.00    -0.342 OA
BRANCH  20  21
HETATM   21  C13 UNL     1      24.809   2.309  51.818  1.00  0.00     0.132 C 
HETATM   22  C14 UNL     1      25.005   2.277  53.343  1.00  0.00     0.062 C 
HETATM   23  C15 UNL     1      25.500   0.884  53.652  1.00  0.00     0.274 C 
HETATM   24  N4  UNL     1      25.956   0.186  52.455  1.00  0.00     0.084 N 
HETATM   25  C16 UNL     1      26.499  -1.095  52.809  1.00  0.00     0.309 C 
HETATM   26  C17 UNL     1      26.901   0.951  51.687  1.00  0.00     0.274 C 
HETATM   27  C18 UNL     1      26.210   2.212  51.225  1.00  0.00     0.062 C 
ENDBRANCH  20  21
ENDBRANCH   7  20
BRANCH   7  28
HETATM   28  C19 UNL     1      22.408   2.396  50.779  1.00  0.00     0.092 C 
HETATM   29  C20 UNL     1      21.683   1.957  51.794  1.00  0.00     0.053 C 
BRANCH  28  30
HETATM   30  O2  UNL     1      22.254   1.281  49.984  1.00  0.00    -0.354 OA
HETATM   31  C21 UNL     1      21.067   0.736  49.499  1.00  0.00     0.210 C 
ENDBRANCH  28  30
ENDBRANCH   7  28
TORSDOF 7
ENDMDL
MODEL 7
REMARK VINA RESULT:      -6.5      3.264      6.479
REMARK  7 active torsions:
REMARK  status: ('A' for Active; 'I' for Inactive)
REMARK    1  A    between atoms: P1_2  and  C2_3 
REMARK    2  A    between atoms: C4_7  and  N3_8 
REMARK    3  A    between atoms: N3_8  and  C5_9 
REMARK    4  A    between atoms: C12_18  and  O1_19 
REMARK    5  A    between atoms: C12_18  and  C19_27 
REMARK    6  A    between atoms: O1_19  and  C13_20 
REMARK    7  A    between atoms: C19_27  and  O2_29 
ROOT
HETATM    1  C2  UNL     1      23.929   1.530  52.870  1.00  0.00     0.184 C 
HETATM    2  N1  UNL     1      24.883   2.549  52.533  1.00  0.00    -0.267 NA
HETATM    3  C3  UNL     1      24.899   3.126  51.405  1.00  0.00     0.230 C 
HETATM    4  N2  UNL     1      24.014   2.880  50.327  1.00  0.00    -0.224 NA
HETATM    5  C4  UNL     1      23.062   1.985  50.463  1.00  0.00     0.141 C 
HETATM    6  C11 UNL     1      22.954   1.356  51.773  1.00  0.00     0.054 C 
HETATM    7  C12 UNL     1      21.874   0.614  51.902  1.00  0.00     0.114 C 
ENDROOT
BRANCH   1   8
HETATM    8  P1  UNL     1      24.924  -0.027  53.139  1.00  0.00    -0.039 P 
HETATM    9  C1  UNL     1      26.382  -0.236  52.349  1.00  0.00     0.026 C 
ENDBRANCH   1   8
BRANCH   5  10
HETATM   10  N3  UNL     1      22.259   1.830  49.317  1.00  0.00    -0.340 N 
HETATM   11  H5  UNL     1      22.020   0.807  49.142  1.00  0.00     0.167 HD
BRANCH  10  12
HETATM   12  C5  UNL     1      21.873   2.983  48.541  1.00  0.00     0.035 A 
HETATM   13  C6  UNL     1      21.092   3.807  49.361  1.00  0.00     0.032 A 
HETATM   14  C7  UNL     1      20.576   5.007  48.857  1.00  0.00     0.046 A 
HETATM   15  C8  UNL     1      20.842   5.379  47.542  1.00  0.00     0.138 A 
HETATM   16  F1  UNL     1      20.371   6.530  46.993  1.00  0.00    -0.204 F 
HETATM   17  C9  UNL     1      21.616   4.535  46.773  1.00  0.00     0.074 A 
HETATM   18 CL1  UNL     1      22.010   4.907  45.107  1.00  0.00    -0.081 Cl
HETATM   19  C10 UNL     1      22.137   3.349  47.241  1.00  0.00     0.056 A 
ENDBRANCH  10  12
ENDBRANCH   5  10
BRANCH   7  20
HETATM   20  O1  UNL     1      20.793   0.238  51.130  1.00  0.00    -0.342 OA
BRANCH  20  21
HETATM   21  C13 UNL     1      19.479   0.677  51.272  1.00  0.00     0.132 C 
HETATM   22  C14 UNL     1      18.572  -0.460  51.771  1.00  0.00     0.062 C 
HETATM   23  C15 UNL     1      17.227   0.180  52.017  1.00  0.00     0.274 C 
HETATM   24  N4  UNL     1      17.123   1.495  51.393  1.00  0.00     0.084 N 
HETATM   25  C16 UNL     1      15.802   2.024  51.577  1.00  0.00     0.309 C 
HETATM   26  C17 UNL     1      17.485   1.484  50.002  1.00  0.00     0.274 C 
HETATM   27  C18 UNL     1      18.931   1.062  49.902  1.00  0.00     0.062 C 
ENDBRANCH  20  21
ENDBRANCH   7  20
BRANCH   7  28
HETATM   28  C19 UNL     1      21.627  -0.059  53.174  1.00  0.00     0.092 C 
HETATM   29  C20 UNL     1      21.154   0.419  54.313  1.00  0.00     0.053 C 
BRANCH  28  30
HETATM   30  O2  UNL     1      21.793  -1.357  53.608  1.00  0.00    -0.354 OA
HETATM   31  C21 UNL     1      21.876  -1.814  54.922  1.00  0.00     0.210 C 
ENDBRANCH  28  30
ENDBRANCH   7  28
TORSDOF 7
ENDMDL
MODEL 8
REMARK VINA RESULT:      -6.5      3.902      7.221
REMARK  7 active torsions:
REMARK  status: ('A' for Active; 'I' for Inactive)
REMARK    1  A    between atoms: P1_2  and  C2_3 
REMARK    2  A    between atoms: C4_7  and  N3_8 
REMARK    3  A    between atoms: N3_8  and  C5_9 
REMARK    4  A    between atoms: C12_18  and  O1_19 
REMARK    5  A    between atoms: C12_18  and  C19_27 
REMARK    6  A    between atoms: O1_19  and  C13_20 
REMARK    7  A    between atoms: C19_27  and  O2_29 
ROOT
HETATM    1  C2  UNL     1      23.068   5.314  48.945  1.00  0.00     0.184 C 
HETATM    2  N1  UNL     1      24.069   6.181  49.498  1.00  0.00    -0.267 NA
HETATM    3  C3  UNL     1      24.506   6.056  50.682  1.00  0.00     0.230 C 
HETATM    4  N2  UNL     1      24.103   5.078  51.622  1.00  0.00    -0.224 NA
HETATM    5  C4  UNL     1      23.201   4.186  51.282  1.00  0.00     0.141 C 
HETATM    6  C11 UNL     1      22.731   4.241  49.904  1.00  0.00     0.054 C 
HETATM    7  C12 UNL     1      21.975   3.214  49.574  1.00  0.00     0.114 C 
ENDROOT
BRANCH   1   8
HETATM    8  P1  UNL     1      21.588   6.400  48.604  1.00  0.00    -0.039 P 
HETATM    9  C1  UNL     1      21.345   7.031  47.075  1.00  0.00     0.026 C 
ENDBRANCH   1   8
BRANCH   5  10
HETATM   10  N3  UNL     1      22.882   3.277  52.310  1.00  0.00    -0.340 N 
HETATM   11  H5  UNL     1      21.945   3.510  52.760  1.00  0.00     0.167 HD
BRANCH  10  12
HETATM   12  C5  UNL     1      23.791   2.206  52.636  1.00  0.00     0.035 A 
HETATM   13  C6  UNL     1      23.030   1.129  53.106  1.00  0.00     0.032 A 
HETATM   14  C7  UNL     1      23.665  -0.055  53.502  1.00  0.00     0.046 A 
HETATM   15  C8  UNL     1      25.051  -0.158  53.425  1.00  0.00     0.138 A 
HETATM   16  F1  UNL     1      25.727  -1.280  53.793  1.00  0.00    -0.204 F 
HETATM   17  C9  UNL     1      25.757   0.929  52.957  1.00  0.00     0.074 A 
HETATM   18 CL1  UNL     1      27.504   0.906  52.821  1.00  0.00    -0.081 Cl
HETATM   19  C10 UNL     1      25.162   2.106  52.561  1.00  0.00     0.056 A 
ENDBRANCH  10  12
ENDBRANCH   5  10
BRANCH   7  20
HETATM   20  O1  UNL     1      21.474   2.078  50.177  1.00  0.00    -0.342 OA
BRANCH  20  21
HETATM   21  C13 UNL     1      20.134   1.797  50.436  1.00  0.00     0.132 C 
HETATM   22  C14 UNL     1      19.532   2.840  51.392  1.00  0.00     0.062 C 
HETATM   23  C15 UNL     1      18.061   2.506  51.471  1.00  0.00     0.274 C 
HETATM   24  N4  UNL     1      17.772   1.174  50.950  1.00  0.00     0.084 N 
HETATM   25  C16 UNL     1      16.382   0.867  51.128  1.00  0.00     0.309 C 
HETATM   26  C17 UNL     1      18.604   0.155  51.530  1.00  0.00     0.274 C 
HETATM   27  C18 UNL     1      20.037   0.466  51.173  1.00  0.00     0.062 C 
ENDBRANCH  20  21
ENDBRANCH   7  20
BRANCH   7  28
HETATM   28  C19 UNL     1      21.453   3.130  48.213  1.00  0.00     0.092 C 
HETATM   29  C20 UNL     1      22.033   2.704  47.104  1.00  0.00     0.053 C 
BRANCH  28  30
HETATM   30  O2  UNL     1      20.240   3.447  47.642  1.00  0.00    -0.354 OA
HETATM   31  C21 UNL     1      19.951   3.616  46.289  1.00  0.00     0.210 C 
ENDBRANCH  28  30
ENDBRANCH   7  28
TORSDOF 7
ENDMDL
MODEL 9
REMARK VINA RESULT:      -6.3      3.633      6.319
REMARK  7 active torsions:
REMARK  status: ('A' for Active; 'I' for Inactive)
REMARK    1  A    between atoms: P1_2  and  C2_3 
REMARK    2  A    between atoms: C4_7  and  N3_8 
REMARK    3  A    between atoms: N3_8  and  C5_9 
REMARK    4  A    between atoms: C12_18  and  O1_19 
REMARK    5  A    between atoms: C12_18  and  C19_27 
REMARK    6  A    between atoms: O1_19  and  C13_20 
REMARK    7  A    between atoms: C19_27  and  O2_29 
ROOT
HETATM    1  C2  UNL     1      22.857   4.604  49.582  1.00  0.00     0.184 C 
HETATM    2  N1  UNL     1      23.630   5.712  50.069  1.00  0.00    -0.267 NA
HETATM    3  C3  UNL     1      24.221   5.694  51.190  1.00  0.00     0.230 C 
HETATM    4  N2  UNL     1      24.227   4.623  52.116  1.00  0.00    -0.224 NA
HETATM    5  C4  UNL     1      23.581   3.516  51.829  1.00  0.00     0.141 C 
HETATM    6  C11 UNL     1      22.954   3.461  50.514  1.00  0.00     0.054 C 
HETATM    7  C12 UNL     1      22.487   2.266  50.214  1.00  0.00     0.114 C 
ENDROOT
BRANCH   1   8
HETATM    8  P1  UNL     1      21.101   5.225  49.462  1.00  0.00    -0.039 P 
HETATM    9  C1  UNL     1      20.015   4.914  50.695  1.00  0.00     0.026 C 
ENDBRANCH   1   8
BRANCH   5  10
HETATM   10  N3  UNL     1      23.657   2.534  52.836  1.00  0.00    -0.340 N 
HETATM   11  H5  UNL     1      22.762   2.494  53.411  1.00  0.00     0.167 HD
BRANCH  10  12
HETATM   12  C5  UNL     1      24.853   1.743  52.986  1.00  0.00     0.035 A 
HETATM   13  C6  UNL     1      25.810   2.535  53.633  1.00  0.00     0.032 A 
HETATM   14  C7  UNL     1      27.081   2.013  53.906  1.00  0.00     0.046 A 
HETATM   15  C8  UNL     1      27.388   0.707  53.534  1.00  0.00     0.138 A 
HETATM   16  F1  UNL     1      28.602   0.141  53.771  1.00  0.00    -0.204 F 
HETATM   17  C9  UNL     1      26.414  -0.033  52.899  1.00  0.00     0.074 A 
HETATM   18 CL1  UNL     1      26.697  -1.686  52.388  1.00  0.00    -0.081 Cl
HETATM   19  C10 UNL     1      25.157   0.452  52.617  1.00  0.00     0.056 A 
ENDBRANCH  10  12
ENDBRANCH   5  10
BRANCH   7  20
HETATM   20  O1  UNL     1      22.404   1.022  50.807  1.00  0.00    -0.342 OA
BRANCH  20  21
HETATM   21  C13 UNL     1      21.288   0.475  51.436  1.00  0.00     0.132 C 
HETATM   22  C14 UNL     1      20.358   1.582  51.960  1.00  0.00     0.062 C 
HETATM   23  C15 UNL     1      19.137   0.863  52.482  1.00  0.00     0.274 C 
HETATM   24  N4  UNL     1      19.372  -0.567  52.650  1.00  0.00     0.084 N 
HETATM   25  C16 UNL     1      18.217  -1.191  53.230  1.00  0.00     0.309 C 
HETATM   26  C17 UNL     1      20.553  -0.852  53.420  1.00  0.00     0.274 C 
HETATM   27  C18 UNL     1      21.740  -0.296  52.671  1.00  0.00     0.062 C 
ENDBRANCH  20  21
ENDBRANCH   7  20
BRANCH   7  28
HETATM   28  C19 UNL     1      21.853   2.062  48.915  1.00  0.00     0.092 C 
HETATM   29  C20 UNL     1      20.586   1.836  48.613  1.00  0.00     0.053 C 
BRANCH  28  30
HETATM   30  O2  UNL     1      22.329   2.034  47.622  1.00  0.00    -0.354 OA
HETATM   31  C21 UNL     1      22.030   2.914  46.583  1.00  0.00     0.210 C 
ENDBRANCH  28  30
ENDBRANCH   7  28
TORSDOF 7
ENDMDL
