MODEL 1
REMARK VINA RESULT:      -9.0      0.000      0.000
REMARK  0 active torsions:
REMARK  status: ('A' for Active; 'I' for Inactive)
ROOT
HETATM    1  C1  UNL     1      25.319   3.570  51.034  1.00  0.00     0.024 C 
HETATM    2  C2  UNL     1      24.395   2.675  51.287  1.00  0.00     0.001 C 
HETATM    3  C3  UNL     1      24.171   1.389  51.932  1.00  0.00     0.164 C 
HETATM    4  N1  UNL     1      25.203   0.648  52.533  1.00  0.00    -0.382 N 
HETATM    5  C4  UNL     1      26.401   0.649  51.734  1.00  0.00     0.123 C 
HETATM    6  C5  UNL     1      27.587   0.563  52.631  1.00  0.00     0.020 C 
HETATM    7  C6  UNL     1      27.375  -0.533  53.653  1.00  0.00     0.007 C 
HETATM    8  C7  UNL     1      26.214  -0.294  54.530  1.00  0.00     0.053 C 
HETATM    9  C8  UNL     1      24.939  -0.077  53.770  1.00  0.00    -0.007 C 
HETATM   10  C9  UNL     1      23.616  -0.335  53.882  1.00  0.00     0.067 C 
HETATM   11  C10 UNL     1      22.507  -0.950  54.676  1.00  0.00    -0.015 C 
HETATM   12  C11 UNL     1      21.283  -0.836  54.204  1.00  0.00    -0.003 C 
HETATM   13  C12 UNL     1      20.013  -0.626  53.565  1.00  0.00     0.001 C 
HETATM   14  C13 UNL     1      19.595   0.002  52.478  1.00  0.00     0.011 C 
HETATM   15  C14 UNL     1      20.453   0.717  51.585  1.00  0.00    -0.036 A 
HETATM   16  C15 UNL     1      20.660   1.832  52.418  1.00  0.00     0.012 A 
HETATM   17  C16 UNL     1      21.574   2.824  52.019  1.00  0.00     0.016 A 
HETATM   18  C17 UNL     1      22.012   2.333  50.825  1.00  0.00     0.015 A 
HETATM   19  C18 UNL     1      21.886   1.307  49.942  1.00  0.00     0.016 A 
HETATM   20  C19 UNL     1      20.969   0.344  50.379  1.00  0.00     0.012 A 
HETATM   21  C20 UNL     1      23.172   3.233  50.612  1.00  0.00     0.189 C 
HETATM   22  O1  UNL     1      22.892   4.235  49.934  1.00  0.00    -0.287 OA
ENDROOT
TORSDOF 0
ENDMDL
MODEL 2
REMARK VINA RESULT:      -8.4      1.799      4.408
REMARK  0 active torsions:
REMARK  status: ('A' for Active; 'I' for Inactive)
ROOT
HETATM    1  C1  UNL     1      23.160  -0.806  53.634  1.00  0.00     0.024 C 
HETATM    2  C2  UNL     1      23.339   0.316  52.979  1.00  0.00     0.001 C 
HETATM    3  C3  UNL     1      24.344   1.317  52.645  1.00  0.00     0.164 C 
HETATM    4  N1  UNL     1      25.661   1.267  53.134  1.00  0.00    -0.382 N 
HETATM    5  C4  UNL     1      25.704   0.904  54.527  1.00  0.00     0.123 C 
HETATM    6  C5  UNL     1      26.962   0.155  54.798  1.00  0.00     0.020 C 
HETATM    7  C6  UNL     1      28.135   0.888  54.183  1.00  0.00     0.007 C 
HETATM    8  C7  UNL     1      28.039   1.011  52.718  1.00  0.00     0.053 C 
HETATM    9  C8  UNL     1      26.764   1.657  52.264  1.00  0.00    -0.007 C 
HETATM   10  C9  UNL     1      26.316   2.482  51.290  1.00  0.00     0.067 C 
HETATM   11  C10 UNL     1      26.633   3.312  50.087  1.00  0.00    -0.015 C 
HETATM   12  C11 UNL     1      25.636   3.940  49.499  1.00  0.00    -0.003 C 
HETATM   13  C12 UNL     1      24.451   4.557  48.971  1.00  0.00     0.001 C 
HETATM   14  C13 UNL     1      23.162   4.537  49.269  1.00  0.00     0.011 C 
HETATM   15  C14 UNL     1      22.599   3.771  50.338  1.00  0.00    -0.036 A 
HETATM   16  C15 UNL     1      22.700   2.517  49.710  1.00  0.00     0.012 A 
HETATM   17  C16 UNL     1      22.362   1.359  50.434  1.00  0.00     0.016 A 
HETATM   18  C17 UNL     1      22.009   1.882  51.643  1.00  0.00     0.015 A 
HETATM   19  C18 UNL     1      21.867   3.038  52.345  1.00  0.00     0.016 A 
HETATM   20  C19 UNL     1      22.213   4.162  51.587  1.00  0.00     0.012 A 
HETATM   21  C20 UNL     1      21.971   0.631  52.439  1.00  0.00     0.189 C 
HETATM   22  O1  UNL     1      20.840   0.121  52.490  1.00  0.00    -0.287 OA
ENDROOT
TORSDOF 0
ENDMDL
MODEL 3
REMARK VINA RESULT:      -8.4      1.692      4.669
REMARK  0 active torsions:
REMARK  status: ('A' for Active; 'I' for Inactive)
ROOT
HETATM    1  C1  UNL     1      20.295   0.270  51.282  1.00  0.00     0.024 C 
HETATM    2  C2  UNL     1      21.304   1.100  51.176  1.00  0.00     0.001 C 
HETATM    3  C3  UNL     1      22.621   1.402  51.720  1.00  0.00     0.164 C 
HETATM    4  N1  UNL     1      23.189   0.681  52.784  1.00  0.00    -0.382 N 
HETATM    5  C4  UNL     1      22.228   0.403  53.820  1.00  0.00     0.123 C 
HETATM    6  C5  UNL     1      22.575  -0.888  54.475  1.00  0.00     0.020 C 
HETATM    7  C6  UNL     1      24.052  -0.912  54.804  1.00  0.00     0.007 C 
HETATM    8  C7  UNL     1      24.915  -0.813  53.614  1.00  0.00     0.053 C 
HETATM    9  C8  UNL     1      24.619   0.394  52.773  1.00  0.00    -0.007 C 
HETATM   10  C9  UNL     1      25.265   1.293  51.997  1.00  0.00     0.067 C 
HETATM   11  C10 UNL     1      26.563   1.783  51.437  1.00  0.00    -0.015 C 
HETATM   12  C11 UNL     1      26.525   2.822  50.627  1.00  0.00    -0.003 C 
HETATM   13  C12 UNL     1      26.320   3.953  49.765  1.00  0.00     0.001 C 
HETATM   14  C13 UNL     1      25.271   4.630  49.328  1.00  0.00     0.011 C 
HETATM   15  C14 UNL     1      23.917   4.320  49.672  1.00  0.00    -0.036 A 
HETATM   16  C15 UNL     1      23.800   3.180  48.856  1.00  0.00     0.012 A 
HETATM   17  C16 UNL     1      22.628   2.406  48.926  1.00  0.00     0.016 A 
HETATM   18  C17 UNL     1      21.905   3.082  49.864  1.00  0.00     0.015 A 
HETATM   19  C18 UNL     1      21.908   4.163  50.690  1.00  0.00     0.016 A 
HETATM   20  C19 UNL     1      23.091   4.903  50.588  1.00  0.00     0.012 A 
HETATM   21  C20 UNL     1      20.849   2.072  50.121  1.00  0.00     0.189 C 
HETATM   22  O1  UNL     1      19.835   2.241  49.426  1.00  0.00    -0.287 OA
ENDROOT
TORSDOF 0
ENDMDL
MODEL 4
REMARK VINA RESULT:      -8.2      1.505      2.327
REMARK  0 active torsions:
REMARK  status: ('A' for Active; 'I' for Inactive)
ROOT
HETATM    1  C1  UNL     1      24.693   2.995  52.855  1.00  0.00     0.024 C 
HETATM    2  C2  UNL     1      23.653   2.345  52.390  1.00  0.00     0.001 C 
HETATM    3  C3  UNL     1      22.885   1.118  52.551  1.00  0.00     0.164 C 
HETATM    4  N1  UNL     1      23.244   0.108  53.461  1.00  0.00    -0.382 N 
HETATM    5  C4  UNL     1      24.662  -0.141  53.456  1.00  0.00     0.123 C 
HETATM    6  C5  UNL     1      25.087  -0.573  54.816  1.00  0.00     0.020 C 
HETATM    7  C6  UNL     1      24.145  -1.642  55.329  1.00  0.00     0.007 C 
HETATM    8  C7  UNL     1      22.754  -1.175  55.463  1.00  0.00     0.053 C 
HETATM    9  C8  UNL     1      22.201  -0.602  54.192  1.00  0.00    -0.007 C 
HETATM   10  C9  UNL     1      21.031  -0.529  53.518  1.00  0.00     0.067 C 
HETATM   11  C10 UNL     1      19.582  -0.895  53.450  1.00  0.00    -0.015 C 
HETATM   12  C11 UNL     1      18.888  -0.451  52.422  1.00  0.00    -0.003 C 
HETATM   13  C12 UNL     1      18.270   0.106  51.251  1.00  0.00     0.001 C 
HETATM   14  C13 UNL     1      18.662   0.883  50.254  1.00  0.00     0.011 C 
HETATM   15  C14 UNL     1      19.984   1.415  50.125  1.00  0.00    -0.036 A 
HETATM   16  C15 UNL     1      19.864   2.391  51.132  1.00  0.00     0.012 A 
HETATM   17  C16 UNL     1      20.995   3.147  51.490  1.00  0.00     0.016 A 
HETATM   18  C17 UNL     1      21.946   2.635  50.656  1.00  0.00     0.015 A 
HETATM   19  C18 UNL     1      22.173   1.728  49.669  1.00  0.00     0.016 A 
HETATM   20  C19 UNL     1      21.023   0.999  49.346  1.00  0.00     0.012 A 
HETATM   21  C20 UNL     1      23.152   3.229  51.282  1.00  0.00     0.189 C 
HETATM   22  O1  UNL     1      23.486   4.309  50.766  1.00  0.00    -0.287 OA
ENDROOT
TORSDOF 0
ENDMDL
MODEL 5
REMARK VINA RESULT:      -7.9      1.734      3.049
REMARK  0 active torsions:
REMARK  status: ('A' for Active; 'I' for Inactive)
ROOT
HETATM    1  C1  UNL     1      21.952   5.375  50.210  1.00  0.00     0.024 C 
HETATM    2  C2  UNL     1      21.939   4.129  50.616  1.00  0.00     0.001 C 
HETATM    3  C3  UNL     1      22.795   2.972  50.840  1.00  0.00     0.164 C 
HETATM    4  N1  UNL     1      24.168   2.970  50.537  1.00  0.00    -0.382 N 
HETATM    5  C4  UNL     1      24.442   3.607  49.276  1.00  0.00     0.123 C 
HETATM    6  C5  UNL     1      25.785   4.246  49.332  1.00  0.00     0.020 C 
HETATM    7  C6  UNL     1      26.790   3.272  49.907  1.00  0.00     0.007 C 
HETATM    8  C7  UNL     1      26.475   2.858  51.286  1.00  0.00     0.053 C 
HETATM    9  C8  UNL     1      25.097   2.283  51.427  1.00  0.00    -0.007 C 
HETATM   10  C9  UNL     1      24.444   1.331  52.132  1.00  0.00     0.067 C 
HETATM   11  C10 UNL     1      24.513   0.237  53.150  1.00  0.00    -0.015 C 
HETATM   12  C11 UNL     1      23.392  -0.380  53.459  1.00  0.00    -0.003 C 
HETATM   13  C12 UNL     1      22.094  -0.953  53.689  1.00  0.00     0.001 C 
HETATM   14  C13 UNL     1      20.868  -0.722  53.249  1.00  0.00     0.011 C 
HETATM   15  C14 UNL     1      20.532   0.308  52.316  1.00  0.00    -0.036 A 
HETATM   16  C15 UNL     1      20.650   1.385  53.214  1.00  0.00     0.012 A 
HETATM   17  C16 UNL     1      20.521   2.699  52.729  1.00  0.00     0.016 A 
HETATM   18  C17 UNL     1      20.300   2.483  51.400  1.00  0.00     0.015 A 
HETATM   19  C18 UNL     1      20.162   1.522  50.448  1.00  0.00     0.016 A 
HETATM   20  C19 UNL     1      20.298   0.233  50.974  1.00  0.00     0.012 A 
HETATM   21  C20 UNL     1      20.486   3.868  50.903  1.00  0.00     0.189 C 
HETATM   22  O1  UNL     1      19.422   4.505  50.829  1.00  0.00    -0.287 OA
ENDROOT
TORSDOF 0
ENDMDL
MODEL 6
REMARK VINA RESULT:      -7.9      3.276      6.516
REMARK  0 active torsions:
REMARK  status: ('A' for Active; 'I' for Inactive)
ROOT
HETATM    1  C1  UNL     1      21.302   4.170  51.413  1.00  0.00     0.024 C 
HETATM    2  C2  UNL     1      22.377   4.798  51.002  1.00  0.00     0.001 C 
HETATM    3  C3  UNL     1      23.830   4.705  50.956  1.00  0.00     0.164 C 
HETATM    4  N1  UNL     1      24.544   3.647  51.546  1.00  0.00    -0.382 N 
HETATM    5  C4  UNL     1      24.022   3.303  52.842  1.00  0.00     0.123 C 
HETATM    6  C5  UNL     1      24.228   1.847  53.081  1.00  0.00     0.020 C 
HETATM    7  C6  UNL     1      25.649   1.468  52.725  1.00  0.00     0.007 C 
HETATM    8  C7  UNL     1      25.976   1.701  51.307  1.00  0.00     0.053 C 
HETATM    9  C8  UNL     1      25.720   3.113  50.869  1.00  0.00    -0.007 C 
HETATM   10  C9  UNL     1      26.236   4.042  50.032  1.00  0.00     0.067 C 
HETATM   11  C10 UNL     1      27.296   4.406  49.042  1.00  0.00    -0.015 C 
HETATM   12  C11 UNL     1      27.234   5.602  48.495  1.00  0.00    -0.003 C 
HETATM   13  C12 UNL     1      27.030   6.931  47.987  1.00  0.00     0.001 C 
HETATM   14  C13 UNL     1      26.122   7.879  48.157  1.00  0.00     0.011 C 
HETATM   15  C14 UNL     1      24.978   7.750  49.006  1.00  0.00    -0.036 A 
HETATM   16  C15 UNL     1      24.247   6.892  48.163  1.00  0.00     0.012 A 
HETATM   17  C16 UNL     1      23.030   6.356  48.622  1.00  0.00     0.016 A 
HETATM   18  C17 UNL     1      22.942   6.898  49.870  1.00  0.00     0.015 A 
HETATM   19  C18 UNL     1      23.559   7.718  50.762  1.00  0.00     0.016 A 
HETATM   20  C19 UNL     1      24.764   8.227  50.266  1.00  0.00     0.012 A 
HETATM   21  C20 UNL     1      21.835   6.070  50.408  1.00  0.00     0.189 C 
HETATM   22  O1  UNL     1      20.719   6.593  50.258  1.00  0.00    -0.287 OA
ENDROOT
TORSDOF 0
ENDMDL
MODEL 7
REMARK VINA RESULT:      -7.7      1.940      5.240
REMARK  0 active torsions:
REMARK  status: ('A' for Active; 'I' for Inactive)
ROOT
HETATM    1  C1  UNL     1      20.689   4.144  49.263  1.00  0.00     0.024 C 
HETATM    2  C2  UNL     1      21.368   3.574  50.229  1.00  0.00     0.001 C 
HETATM    3  C3  UNL     1      21.265   2.582  51.291  1.00  0.00     0.164 C 
HETATM    4  N1  UNL     1      20.073   1.895  51.578  1.00  0.00    -0.382 N 
HETATM    5  C4  UNL     1      18.927   2.766  51.542  1.00  0.00     0.123 C 
HETATM    6  C5  UNL     1      17.737   1.989  51.100  1.00  0.00     0.020 C 
HETATM    7  C6  UNL     1      17.659   0.690  51.872  1.00  0.00     0.007 C 
HETATM    8  C7  UNL     1      18.824  -0.186  51.654  1.00  0.00     0.053 C 
HETATM    9  C8  UNL     1      20.131   0.487  51.955  1.00  0.00    -0.007 C 
HETATM   10  C9  UNL     1      21.351   0.191  52.456  1.00  0.00     0.067 C 
HETATM   11  C10 UNL     1      22.264  -0.837  53.046  1.00  0.00    -0.015 C 
HETATM   12  C11 UNL     1      23.490  -0.463  53.347  1.00  0.00    -0.003 C 
HETATM   13  C12 UNL     1      24.786   0.094  53.619  1.00  0.00     0.001 C 
HETATM   14  C13 UNL     1      25.366   1.270  53.441  1.00  0.00     0.011 C 
HETATM   15  C14 UNL     1      24.722   2.398  52.842  1.00  0.00    -0.036 A 
HETATM   16  C15 UNL     1      24.769   1.926  51.517  1.00  0.00     0.012 A 
HETATM   17  C16 UNL     1      24.127   2.663  50.505  1.00  0.00     0.016 A 
HETATM   18  C17 UNL     1      23.610   3.710  51.210  1.00  0.00     0.015 A 
HETATM   19  C18 UNL     1      23.508   4.261  52.449  1.00  0.00     0.016 A 
HETATM   20  C19 UNL     1      24.159   3.496  53.423  1.00  0.00     0.012 A 
HETATM   21  C20 UNL     1      22.703   4.265  50.176  1.00  0.00     0.189 C 
HETATM   22  O1  UNL     1      23.228   5.165  49.501  1.00  0.00    -0.287 OA
ENDROOT
TORSDOF 0
ENDMDL
MODEL 8
REMARK VINA RESULT:      -7.7      1.903      4.366
REMARK  0 active torsions:
REMARK  status: ('A' for Active; 'I' for Inactive)
ROOT
HETATM    1  C1  UNL     1      25.738   1.148  53.158  1.00  0.00     0.024 C 
HETATM    2  C2  UNL     1      24.778   1.655  52.424  1.00  0.00     0.001 C 
HETATM    3  C3  UNL     1      23.341   1.601  52.194  1.00  0.00     0.164 C 
HETATM    4  N1  UNL     1      22.492   0.717  52.883  1.00  0.00    -0.382 N 
HETATM    5  C4  UNL     1      23.068  -0.597  53.005  1.00  0.00     0.123 C 
HETATM    6  C5  UNL     1      22.595  -1.222  54.271  1.00  0.00     0.020 C 
HETATM    7  C6  UNL     1      21.096  -1.053  54.394  1.00  0.00     0.007 C 
HETATM    8  C7  UNL     1      20.673   0.358  54.451  1.00  0.00     0.053 C 
HETATM    9  C8  UNL     1      21.165   1.167  53.287  1.00  0.00    -0.007 C 
HETATM   10  C9  UNL     1      20.764   2.193  52.502  1.00  0.00     0.067 C 
HETATM   11  C10 UNL     1      19.702   3.189  52.163  1.00  0.00    -0.015 C 
HETATM   12  C11 UNL     1      19.949   4.036  51.186  1.00  0.00    -0.003 C 
HETATM   13  C12 UNL     1      20.366   4.887  50.106  1.00  0.00     0.001 C 
HETATM   14  C13 UNL     1      21.462   5.021  49.377  1.00  0.00     0.011 C 
HETATM   15  C14 UNL     1      22.640   4.227  49.548  1.00  0.00    -0.036 A 
HETATM   16  C15 UNL     1      23.083   4.849  50.729  1.00  0.00     0.012 A 
HETATM   17  C16 UNL     1      24.206   4.327  51.397  1.00  0.00     0.016 A 
HETATM   18  C17 UNL     1      24.538   3.273  50.598  1.00  0.00     0.015 A 
HETATM   19  C18 UNL     1      24.203   2.600  49.465  1.00  0.00     0.016 A 
HETATM   20  C19 UNL     1      23.082   3.151  48.835  1.00  0.00     0.012 A 
HETATM   21  C20 UNL     1      25.503   2.591  51.496  1.00  0.00     0.189 C 
HETATM   22  O1  UNL     1      26.680   2.931  51.294  1.00  0.00    -0.287 OA
ENDROOT
TORSDOF 0
ENDMDL
MODEL 9
REMARK VINA RESULT:      -7.7      7.103      9.633
REMARK  0 active torsions:
REMARK  status: ('A' for Active; 'I' for Inactive)
ROOT
HETATM    1  C1  UNL     1      30.579  10.612  48.781  1.00  0.00     0.024 C 
HETATM    2  C2  UNL     1      29.579   9.785  48.597  1.00  0.00     0.001 C 
HETATM    3  C3  UNL     1      29.252   8.443  48.135  1.00  0.00     0.164 C 
HETATM    4  N1  UNL     1      30.217   7.559  47.621  1.00  0.00    -0.382 N 
HETATM    5  C4  UNL     1      31.140   8.223  46.738  1.00  0.00     0.123 C 
HETATM    6  C5  UNL     1      32.467   7.555  46.826  1.00  0.00     0.020 C 
HETATM    7  C6  UNL     1      32.291   6.055  46.726  1.00  0.00     0.007 C 
HETATM    8  C7  UNL     1      31.476   5.492  47.817  1.00  0.00     0.053 C 
HETATM    9  C8  UNL     1      30.127   6.138  47.937  1.00  0.00    -0.007 C 
HETATM   10  C9  UNL     1      28.855   5.815  48.260  1.00  0.00     0.067 C 
HETATM   11  C10 UNL     1      27.881   4.755  48.668  1.00  0.00    -0.015 C 
HETATM   12  C11 UNL     1      26.632   5.120  48.872  1.00  0.00    -0.003 C 
HETATM   13  C12 UNL     1      25.318   5.671  49.058  1.00  0.00     0.001 C 
HETATM   14  C13 UNL     1      24.782   6.879  48.990  1.00  0.00     0.011 C 
HETATM   15  C14 UNL     1      25.517   8.066  48.678  1.00  0.00    -0.036 A 
HETATM   16  C15 UNL     1      26.169   8.183  49.919  1.00  0.00     0.012 A 
HETATM   17  C16 UNL     1      27.143   9.184  50.089  1.00  0.00     0.016 A 
HETATM   18  C17 UNL     1      27.142   9.782  48.863  1.00  0.00     0.015 A 
HETATM   19  C18 UNL     1      26.572   9.765  47.629  1.00  0.00     0.016 A 
HETATM   20  C19 UNL     1      25.611   8.755  47.504  1.00  0.00     0.012 A 
HETATM   21  C20 UNL     1      28.375  10.595  48.997  1.00  0.00     0.189 C 
HETATM   22  O1  UNL     1      28.157  11.748  49.401  1.00  0.00    -0.287 OA
ENDROOT
TORSDOF 0
ENDMDL
