MODEL 1
REMARK VINA RESULT:      -9.0      0.000      0.000
REMARK  6 active torsions:
REMARK  status: ('A' for Active; 'I' for Inactive)
REMARK    1  A    between atoms: O1_2  and  C2_3 
REMARK    2  A    between atoms: C5_6  and  N1_7 
REMARK    3  A    between atoms: C9_12  and  N3_13 
REMARK    4  A    between atoms: N3_13  and  C10_14 
REMARK    5  A    between atoms: N5_19  and  C13_20 
REMARK    6  A    between atoms: C16_23  and  O2_24 
ROOT
HETATM    1  N1  UNL     1      25.414   3.676  50.240  1.00  0.00    -0.295 N 
HETATM    2  C6  UNL     1      24.015   3.687  49.976  1.00  0.00     0.178 A 
HETATM    3  C7  UNL     1      23.342   2.628  50.747  1.00  0.00     0.025 A 
HETATM    4  C8  UNL     1      21.980   2.639  50.487  1.00  0.00     0.149 A 
HETATM    5  N2  UNL     1      21.128   1.764  51.071  1.00  0.00    -0.074 NA
HETATM    6  C9  UNL     1      21.598   0.830  51.949  1.00  0.00     0.728 A 
HETATM    7  N4  UNL     1      22.926   0.821  52.201  1.00  0.00    -0.044 NA
HETATM    8  C12 UNL     1      23.770   1.675  51.633  1.00  0.00     0.162 A 
HETATM    9  N5  UNL     1      25.181   1.720  51.854  1.00  0.00    -0.278 N 
HETATM   10  C18 UNL     1      25.920   2.712  51.149  1.00  0.00     0.331 A 
HETATM   11  O3  UNL     1      27.139   2.653  51.424  1.00  0.00    -0.246 OA
ENDROOT
BRANCH   1  12
HETATM   12  C5  UNL     1      26.190   4.628  49.573  1.00  0.00     0.039 A 
HETATM   13  C4  UNL     1      27.398   4.471  48.939  1.00  0.00     0.032 A 
HETATM   14  C3  UNL     1      28.126   5.442  48.292  1.00  0.00     0.039 A 
HETATM   15  C2  UNL     1      27.625   6.722  48.256  1.00  0.00     0.068 A 
HETATM   16  C20 UNL     1      26.426   6.975  48.861  1.00  0.00     0.039 A 
HETATM   17  C19 UNL     1      25.766   5.941  49.484  1.00  0.00     0.032 A 
BRANCH  15  18
HETATM   18  O1  UNL     1      28.303   7.740  47.626  1.00  0.00    -0.356 OA
HETATM   19  C1  UNL     1      29.593   8.137  48.029  1.00  0.00     0.210 C 
ENDBRANCH  15  18
ENDBRANCH   1  12
BRANCH   9  20
HETATM   20  C13 UNL     1      25.755   0.772  52.764  1.00  0.00     0.099 C 
HETATM   21  C14 UNL     1      26.710  -0.202  52.145  1.00  0.00     0.028 C 
HETATM   22  C15 UNL     1      27.547  -0.658  53.323  1.00  0.00     0.034 C 
HETATM   23  C16 UNL     1      27.095   0.112  54.531  1.00  0.00     0.120 C 
HETATM   24  C17 UNL     1      26.507   1.372  53.914  1.00  0.00     0.057 C 
BRANCH  23  25
HETATM   25  O2  UNL     1      26.140  -0.591  55.257  1.00  0.00    -0.396 OA
HETATM   26  H18 UNL     1      25.636  -1.139  54.629  1.00  0.00     0.210 HD
ENDBRANCH  23  25
ENDBRANCH   9  20
BRANCH   6  27
HETATM   27  N3  UNL     1      20.771  -0.123  52.606  1.00  0.00    -0.196 N 
HETATM   28  H9  UNL     1      20.078  -0.619  52.037  1.00  0.00     0.183 HD
BRANCH  27  29
HETATM   29  C10 UNL     1      20.861  -0.413  53.995  1.00  0.00     0.134 C 
HETATM   30  C11 UNL     1      21.553  -1.500  54.295  1.00  0.00     0.418 C 
HETATM   31  F1  UNL     1      22.086  -2.407  55.144  1.00  0.00    -0.429 F 
ENDBRANCH  27  29
ENDBRANCH   6  27
TORSDOF 6
ENDMDL
MODEL 2
REMARK VINA RESULT:      -8.8      3.710      8.259
REMARK  6 active torsions:
REMARK  status: ('A' for Active; 'I' for Inactive)
REMARK    1  A    between atoms: O1_2  and  C2_3 
REMARK    2  A    between atoms: C5_6  and  N1_7 
REMARK    3  A    between atoms: C9_12  and  N3_13 
REMARK    4  A    between atoms: N3_13  and  C10_14 
REMARK    5  A    between atoms: N5_19  and  C13_20 
REMARK    6  A    between atoms: C16_23  and  O2_24 
ROOT
HETATM    1  N1  UNL     1      21.498   0.599  52.606  1.00  0.00    -0.295 N 
HETATM    2  C6  UNL     1      22.389  -0.306  53.251  1.00  0.00     0.178 A 
HETATM    3  C7  UNL     1      23.715   0.313  53.416  1.00  0.00     0.025 A 
HETATM    4  C8  UNL     1      24.581  -0.571  54.043  1.00  0.00     0.149 A 
HETATM    5  N2  UNL     1      25.866  -0.248  54.315  1.00  0.00    -0.074 NA
HETATM    6  C9  UNL     1      26.354   0.981  53.974  1.00  0.00     0.728 A 
HETATM    7  N4  UNL     1      25.508   1.840  53.362  1.00  0.00    -0.044 NA
HETATM    8  C12 UNL     1      24.244   1.533  53.091  1.00  0.00     0.162 A 
HETATM    9  N5  UNL     1      23.300   2.392  52.449  1.00  0.00    -0.278 N 
HETATM   10  C18 UNL     1      21.988   1.879  52.243  1.00  0.00     0.331 A 
HETATM   11  O3  UNL     1      21.254   2.720  51.676  1.00  0.00    -0.246 OA
ENDROOT
BRANCH   1  12
HETATM   12  C5  UNL     1      20.196   0.147  52.377  1.00  0.00     0.039 A 
HETATM   13  C4  UNL     1      19.391   0.345  51.282  1.00  0.00     0.032 A 
HETATM   14  C3  UNL     1      18.110  -0.122  51.102  1.00  0.00     0.039 A 
HETATM   15  C2  UNL     1      17.537  -0.871  52.103  1.00  0.00     0.068 A 
HETATM   16  C20 UNL     1      18.265  -1.120  53.233  1.00  0.00     0.039 A 
HETATM   17  C19 UNL     1      19.540  -0.614  53.327  1.00  0.00     0.032 A 
BRANCH  15  18
HETATM   18  O1  UNL     1      16.260  -1.368  51.985  1.00  0.00    -0.356 OA
HETATM   19  C1  UNL     1      15.432  -1.045  50.892  1.00  0.00     0.210 C 
ENDBRANCH  15  18
ENDBRANCH   1  12
BRANCH   9  20
HETATM   20  C13 UNL     1      23.732   3.702  52.057  1.00  0.00     0.099 C 
HETATM   21  C14 UNL     1      24.167   3.826  50.630  1.00  0.00     0.028 C 
HETATM   22  C15 UNL     1      24.016   5.308  50.352  1.00  0.00     0.034 C 
HETATM   23  C16 UNL     1      23.440   5.948  51.583  1.00  0.00     0.120 C 
HETATM   24  C17 UNL     1      22.714   4.787  52.246  1.00  0.00     0.057 C 
BRANCH  23  25
HETATM   25  O2  UNL     1      24.437   6.460  52.405  1.00  0.00    -0.396 OA
HETATM   26  H18 UNL     1      25.005   5.716  52.679  1.00  0.00     0.210 HD
ENDBRANCH  23  25
ENDBRANCH   9  20
BRANCH   6  27
HETATM   27  N3  UNL     1      27.689   1.398  54.225  1.00  0.00    -0.196 N 
HETATM   28  H9  UNL     1      27.931   2.369  54.002  1.00  0.00     0.183 HD
BRANCH  27  29
HETATM   29  C10 UNL     1      28.689   0.543  54.762  1.00  0.00     0.134 C 
HETATM   30  C11 UNL     1      29.394  -0.126  53.863  1.00  0.00     0.418 C 
HETATM   31  F1  UNL     1      30.353  -0.994  53.470  1.00  0.00    -0.429 F 
ENDBRANCH  27  29
ENDBRANCH   6  27
TORSDOF 6
ENDMDL
MODEL 3
REMARK VINA RESULT:      -8.7      3.606      7.972
REMARK  6 active torsions:
REMARK  status: ('A' for Active; 'I' for Inactive)
REMARK    1  A    between atoms: O1_2  and  C2_3 
REMARK    2  A    between atoms: C5_6  and  N1_7 
REMARK    3  A    between atoms: C9_12  and  N3_13 
REMARK    4  A    between atoms: N3_13  and  C10_14 
REMARK    5  A    between atoms: N5_19  and  C13_20 
REMARK    6  A    between atoms: C16_23  and  O2_24 
ROOT
HETATM    1  N1  UNL     1      21.661   0.694  51.989  1.00  0.00    -0.295 N 
HETATM    2  C6  UNL     1      21.719   1.734  51.017  1.00  0.00     0.178 A 
HETATM    3  C7  UNL     1      23.104   2.210  50.861  1.00  0.00     0.025 A 
HETATM    4  C8  UNL     1      23.158   3.224  49.916  1.00  0.00     0.149 A 
HETATM    5  N2  UNL     1      24.317   3.836  49.583  1.00  0.00    -0.074 NA
HETATM    6  C9  UNL     1      25.488   3.465  50.180  1.00  0.00     0.728 A 
HETATM    7  N4  UNL     1      25.433   2.477  51.102  1.00  0.00    -0.044 NA
HETATM    8  C12 UNL     1      24.299   1.869  51.435  1.00  0.00     0.162 A 
HETATM    9  N5  UNL     1      24.172   0.821  52.398  1.00  0.00    -0.278 N 
HETATM   10  C18 UNL     1      22.867   0.296  52.620  1.00  0.00     0.331 A 
HETATM   11  O3  UNL     1      22.882  -0.613  53.480  1.00  0.00    -0.246 OA
ENDROOT
BRANCH   1  12
HETATM   12  C5  UNL     1      20.404   0.142  52.248  1.00  0.00     0.039 A 
HETATM   13  C4  UNL     1      19.990  -0.604  53.325  1.00  0.00     0.032 A 
HETATM   14  C3  UNL     1      18.737  -1.127  53.537  1.00  0.00     0.039 A 
HETATM   15  C2  UNL     1      17.764  -0.903  52.591  1.00  0.00     0.068 A 
HETATM   16  C20 UNL     1      18.082  -0.169  51.483  1.00  0.00     0.039 A 
HETATM   17  C19 UNL     1      19.363   0.316  51.354  1.00  0.00     0.032 A 
BRANCH  15  18
HETATM   18  O1  UNL     1      16.489  -1.398  52.743  1.00  0.00    -0.356 OA
HETATM   19  C1  UNL     1      15.644  -1.630  51.640  1.00  0.00     0.210 C 
ENDBRANCH  15  18
ENDBRANCH   1  12
BRANCH   9  20
HETATM   20  C13 UNL     1      25.354   0.371  53.072  1.00  0.00     0.099 C 
HETATM   21  C14 UNL     1      26.415  -0.197  52.180  1.00  0.00     0.028 C 
HETATM   22  C15 UNL     1      27.675  -0.053  53.010  1.00  0.00     0.034 C 
HETATM   23  C16 UNL     1      27.305   0.645  54.287  1.00  0.00     0.120 C 
HETATM   24  C17 UNL     1      26.056   1.416  53.888  1.00  0.00     0.057 C 
BRANCH  23  25
HETATM   25  O2  UNL     1      27.037  -0.262  55.306  1.00  0.00    -0.396 OA
HETATM   26  H18 UNL     1      26.598   0.225  56.027  1.00  0.00     0.210 HD
ENDBRANCH  23  25
ENDBRANCH   9  20
BRANCH   6  27
HETATM   27  N3  UNL     1      26.747   4.056  49.886  1.00  0.00    -0.196 N 
HETATM   28  H9  UNL     1      27.551   3.762  50.450  1.00  0.00     0.183 HD
BRANCH  27  29
HETATM   29  C10 UNL     1      26.937   5.024  48.862  1.00  0.00     0.134 C 
HETATM   30  C11 UNL     1      28.188   5.160  48.449  1.00  0.00     0.418 C 
HETATM   31  F1  UNL     1      29.164   5.701  47.686  1.00  0.00    -0.429 F 
ENDBRANCH  27  29
ENDBRANCH   6  27
TORSDOF 6
ENDMDL
MODEL 4
REMARK VINA RESULT:      -8.6      3.628      5.697
REMARK  6 active torsions:
REMARK  status: ('A' for Active; 'I' for Inactive)
REMARK    1  A    between atoms: O1_2  and  C2_3 
REMARK    2  A    between atoms: C5_6  and  N1_7 
REMARK    3  A    between atoms: C9_12  and  N3_13 
REMARK    4  A    between atoms: N3_13  and  C10_14 
REMARK    5  A    between atoms: N5_19  and  C13_20 
REMARK    6  A    between atoms: C16_23  and  O2_24 
ROOT
HETATM    1  N1  UNL     1      23.349   2.579  50.314  1.00  0.00    -0.295 N 
HETATM    2  C6  UNL     1      24.738   2.872  50.425  1.00  0.00     0.178 A 
HETATM    3  C7  UNL     1      25.303   2.223  51.620  1.00  0.00     0.025 A 
HETATM    4  C8  UNL     1      26.655   2.512  51.728  1.00  0.00     0.149 A 
HETATM    5  N2  UNL     1      27.414   2.035  52.741  1.00  0.00    -0.074 NA
HETATM    6  C9  UNL     1      26.858   1.241  53.703  1.00  0.00     0.728 A 
HETATM    7  N4  UNL     1      25.540   0.962  53.597  1.00  0.00    -0.044 NA
HETATM    8  C12 UNL     1      24.786   1.425  52.606  1.00  0.00     0.162 A 
HETATM    9  N5  UNL     1      23.391   1.168  52.434  1.00  0.00    -0.278 N 
HETATM   10  C18 UNL     1      22.754   1.757  51.304  1.00  0.00     0.331 A 
HETATM   11  O3  UNL     1      21.539   1.462  51.261  1.00  0.00    -0.246 OA
ENDROOT
BRANCH   1  12
HETATM   12  C5  UNL     1      22.673   3.133  49.224  1.00  0.00     0.039 A 
HETATM   13  C4  UNL     1      21.996   4.325  49.139  1.00  0.00     0.032 A 
HETATM   14  C3  UNL     1      21.343   4.830  48.039  1.00  0.00     0.039 A 
HETATM   15  C2  UNL     1      21.343   4.090  46.879  1.00  0.00     0.068 A 
HETATM   16  C20 UNL     1      21.992   2.887  46.869  1.00  0.00     0.039 A 
HETATM   17  C19 UNL     1      22.620   2.461  48.016  1.00  0.00     0.032 A 
BRANCH  15  18
HETATM   18  O1  UNL     1      20.709   4.538  45.743  1.00  0.00    -0.356 OA
HETATM   19  C1  UNL     1      20.949   3.962  44.480  1.00  0.00     0.210 C 
ENDBRANCH  15  18
ENDBRANCH   1  12
BRANCH   9  20
HETATM   20  C13 UNL     1      22.729   0.343  53.402  1.00  0.00     0.099 C 
HETATM   21  C14 UNL     1      21.343   0.778  53.764  1.00  0.00     0.028 C 
HETATM   22  C15 UNL     1      20.713  -0.491  54.302  1.00  0.00     0.034 C 
HETATM   23  C16 UNL     1      21.720  -1.597  54.159  1.00  0.00     0.120 C 
HETATM   24  C17 UNL     1      22.591  -1.100  53.016  1.00  0.00     0.057 C 
BRANCH  23  25
HETATM   25  O2  UNL     1      22.459  -1.768  55.324  1.00  0.00    -0.396 OA
HETATM   26  H18 UNL     1      22.448  -0.922  55.808  1.00  0.00     0.210 HD
ENDBRANCH  23  25
ENDBRANCH   9  20
BRANCH   6  27
HETATM   27  N3  UNL     1      27.585   0.700  54.798  1.00  0.00    -0.196 N 
HETATM   28  H9  UNL     1      27.129   0.702  55.716  1.00  0.00     0.183 HD
BRANCH  27  29
HETATM   29  C10 UNL     1      28.898   0.166  54.679  1.00  0.00     0.134 C 
HETATM   30  C11 UNL     1      29.016  -0.840  53.827  1.00  0.00     0.418 C 
HETATM   31  F1  UNL     1      29.701  -1.800  53.166  1.00  0.00    -0.429 F 
ENDBRANCH  27  29
ENDBRANCH   6  27
TORSDOF 6
ENDMDL
MODEL 5
REMARK VINA RESULT:      -8.2      4.182      6.469
REMARK  6 active torsions:
REMARK  status: ('A' for Active; 'I' for Inactive)
REMARK    1  A    between atoms: O1_2  and  C2_3 
REMARK    2  A    between atoms: C5_6  and  N1_7 
REMARK    3  A    between atoms: C9_12  and  N3_13 
REMARK    4  A    between atoms: N3_13  and  C10_14 
REMARK    5  A    between atoms: N5_19  and  C13_20 
REMARK    6  A    between atoms: C16_23  and  O2_24 
ROOT
HETATM    1  N1  UNL     1      23.862   0.472  52.678  1.00  0.00    -0.295 N 
HETATM    2  C6  UNL     1      23.043  -0.339  53.514  1.00  0.00     0.178 A 
HETATM    3  C7  UNL     1      21.642  -0.287  53.063  1.00  0.00     0.025 A 
HETATM    4  C8  UNL     1      20.846  -1.075  53.879  1.00  0.00     0.149 A 
HETATM    5  N2  UNL     1      19.514  -1.202  53.680  1.00  0.00    -0.074 NA
HETATM    6  C9  UNL     1      18.907  -0.545  52.649  1.00  0.00     0.728 A 
HETATM    7  N4  UNL     1      19.685   0.224  51.854  1.00  0.00    -0.044 NA
HETATM    8  C12 UNL     1      20.993   0.355  52.041  1.00  0.00     0.162 A 
HETATM    9  N5  UNL     1      21.871   1.149  51.241  1.00  0.00    -0.278 N 
HETATM   10  C18 UNL     1      23.249   1.163  51.603  1.00  0.00     0.331 A 
HETATM   11  O3  UNL     1      23.915   1.889  50.832  1.00  0.00    -0.246 OA
ENDROOT
BRANCH   1  12
HETATM   12  C5  UNL     1      25.223   0.524  52.989  1.00  0.00     0.039 A 
HETATM   13  C4  UNL     1      25.919   1.489  53.675  1.00  0.00     0.032 A 
HETATM   14  C3  UNL     1      27.265   1.497  53.957  1.00  0.00     0.039 A 
HETATM   15  C2  UNL     1      28.032   0.443  53.521  1.00  0.00     0.068 A 
HETATM   16  C20 UNL     1      27.426  -0.568  52.828  1.00  0.00     0.039 A 
HETATM   17  C19 UNL     1      26.073  -0.492  52.592  1.00  0.00     0.032 A 
BRANCH  15  18
HETATM   18  O1  UNL     1      29.384   0.389  53.770  1.00  0.00    -0.356 OA
HETATM   19  C1  UNL     1      30.112  -0.814  53.674  1.00  0.00     0.210 C 
ENDBRANCH  15  18
ENDBRANCH   1  12
BRANCH   9  20
HETATM   20  C13 UNL     1      21.314   1.872  50.136  1.00  0.00     0.099 C 
HETATM   21  C14 UNL     1      21.608   3.341  50.127  1.00  0.00     0.028 C 
HETATM   22  C15 UNL     1      21.424   3.719  48.671  1.00  0.00     0.034 C 
HETATM   23  C16 UNL     1      21.111   2.463  47.908  1.00  0.00     0.120 C 
HETATM   24  C17 UNL     1      21.736   1.386  48.782  1.00  0.00     0.057 C 
BRANCH  23  25
HETATM   25  O2  UNL     1      19.741   2.276  47.773  1.00  0.00    -0.396 OA
HETATM   26  H18 UNL     1      19.491   2.559  46.874  1.00  0.00     0.210 HD
ENDBRANCH  23  25
ENDBRANCH   9  20
BRANCH   6  27
HETATM   27  N3  UNL     1      17.515  -0.626  52.370  1.00  0.00    -0.196 N 
HETATM   28  H9  UNL     1      17.082   0.167  51.885  1.00  0.00     0.183 HD
BRANCH  27  29
HETATM   29  C10 UNL     1      16.707  -1.739  52.731  1.00  0.00     0.134 C 
HETATM   30  C11 UNL     1      15.484  -1.729  52.225  1.00  0.00     0.418 C 
HETATM   31  F1  UNL     1      14.244  -2.232  52.031  1.00  0.00    -0.429 F 
ENDBRANCH  27  29
ENDBRANCH   6  27
TORSDOF 6
ENDMDL
MODEL 6
REMARK VINA RESULT:      -8.2      2.243      3.999
REMARK  6 active torsions:
REMARK  status: ('A' for Active; 'I' for Inactive)
REMARK    1  A    between atoms: O1_2  and  C2_3 
REMARK    2  A    between atoms: C5_6  and  N1_7 
REMARK    3  A    between atoms: C9_12  and  N3_13 
REMARK    4  A    between atoms: N3_13  and  C10_14 
REMARK    5  A    between atoms: N5_19  and  C13_20 
REMARK    6  A    between atoms: C16_23  and  O2_24 
ROOT
HETATM    1  N1  UNL     1      25.176   3.501  50.476  1.00  0.00    -0.295 N 
HETATM    2  C6  UNL     1      25.953   2.697  51.359  1.00  0.00     0.178 A 
HETATM    3  C7  UNL     1      25.089   1.744  52.076  1.00  0.00     0.025 A 
HETATM    4  C8  UNL     1      25.847   0.964  52.936  1.00  0.00     0.149 A 
HETATM    5  N2  UNL     1      25.294   0.006  53.715  1.00  0.00    -0.074 NA
HETATM    6  C9  UNL     1      23.949  -0.223  53.673  1.00  0.00     0.728 A 
HETATM    7  N4  UNL     1      23.211   0.539  52.834  1.00  0.00    -0.044 NA
HETATM    8  C12 UNL     1      23.745   1.482  52.065  1.00  0.00     0.162 A 
HETATM    9  N5  UNL     1      23.025   2.320  51.159  1.00  0.00    -0.278 N 
HETATM   10  C18 UNL     1      23.777   3.278  50.420  1.00  0.00     0.331 A 
HETATM   11  O3  UNL     1      23.040   3.949  49.663  1.00  0.00    -0.246 OA
ENDROOT
BRANCH   1  12
HETATM   12  C5  UNL     1      25.862   4.459  49.727  1.00  0.00     0.039 A 
HETATM   13  C4  UNL     1      25.467   5.725  49.368  1.00  0.00     0.032 A 
HETATM   14  C3  UNL     1      26.181   6.636  48.626  1.00  0.00     0.039 A 
HETATM   15  C2  UNL     1      27.430   6.280  48.174  1.00  0.00     0.068 A 
HETATM   16  C20 UNL     1      27.909   5.037  48.482  1.00  0.00     0.039 A 
HETATM   17  C19 UNL     1      27.125   4.190  49.231  1.00  0.00     0.032 A 
BRANCH  15  18
HETATM   18  O1  UNL     1      28.196   7.145  47.428  1.00  0.00    -0.356 OA
HETATM   19  C1  UNL     1      29.592   6.992  47.310  1.00  0.00     0.210 C 
ENDBRANCH  15  18
ENDBRANCH   1  12
BRANCH   9  20
HETATM   20  C13 UNL     1      21.606   2.144  51.054  1.00  0.00     0.099 C 
HETATM   21  C14 UNL     1      21.166   0.775  50.638  1.00  0.00     0.028 C 
HETATM   22  C15 UNL     1      19.738   0.705  51.143  1.00  0.00     0.034 C 
HETATM   23  C16 UNL     1      19.449   1.983  51.877  1.00  0.00     0.120 C 
HETATM   24  C17 UNL     1      20.837   2.432  52.309  1.00  0.00     0.057 C 
BRANCH  23  25
HETATM   25  O2  UNL     1      18.846   2.922  51.049  1.00  0.00    -0.396 OA
HETATM   26  H18 UNL     1      19.536   3.289  50.467  1.00  0.00     0.210 HD
ENDBRANCH  23  25
ENDBRANCH   9  20
BRANCH   6  27
HETATM   27  N3  UNL     1      23.290  -1.210  54.456  1.00  0.00    -0.196 N 
HETATM   28  H9  UNL     1      23.802  -2.076  54.653  1.00  0.00     0.183 HD
BRANCH  27  29
HETATM   29  C10 UNL     1      21.974  -1.053  54.970  1.00  0.00     0.134 C 
HETATM   30  C11 UNL     1      21.018  -1.593  54.230  1.00  0.00     0.418 C 
HETATM   31  F1  UNL     1      19.735  -1.905  53.940  1.00  0.00    -0.429 F 
ENDBRANCH  27  29
ENDBRANCH   6  27
TORSDOF 6
ENDMDL
MODEL 7
REMARK VINA RESULT:      -8.1      3.644      8.098
REMARK  6 active torsions:
REMARK  status: ('A' for Active; 'I' for Inactive)
REMARK    1  A    between atoms: O1_2  and  C2_3 
REMARK    2  A    between atoms: C5_6  and  N1_7 
REMARK    3  A    between atoms: C9_12  and  N3_13 
REMARK    4  A    between atoms: N3_13  and  C10_14 
REMARK    5  A    between atoms: N5_19  and  C13_20 
REMARK    6  A    between atoms: C16_23  and  O2_24 
ROOT
HETATM    1  N1  UNL     1      20.981   1.509  52.272  1.00  0.00    -0.295 N 
HETATM    2  C6  UNL     1      20.622   2.846  51.938  1.00  0.00     0.178 A 
HETATM    3  C7  UNL     1      21.824   3.692  51.853  1.00  0.00     0.025 A 
HETATM    4  C8  UNL     1      21.472   4.993  51.530  1.00  0.00     0.149 A 
HETATM    5  N2  UNL     1      22.392   5.975  51.390  1.00  0.00    -0.074 NA
HETATM    6  C9  UNL     1      23.719   5.704  51.566  1.00  0.00     0.728 A 
HETATM    7  N4  UNL     1      24.060   4.434  51.882  1.00  0.00    -0.044 NA
HETATM    8  C12 UNL     1      23.164   3.464  52.022  1.00  0.00     0.162 A 
HETATM    9  N5  UNL     1      23.456   2.105  52.354  1.00  0.00    -0.278 N 
HETATM   10  C18 UNL     1      22.354   1.209  52.460  1.00  0.00     0.331 A 
HETATM   11  O3  UNL     1      22.734   0.053  52.753  1.00  0.00    -0.246 OA
ENDROOT
BRANCH   1  12
HETATM   12  C5  UNL     1      19.939   0.586  52.391  1.00  0.00     0.039 A 
HETATM   13  C4  UNL     1      18.867   0.377  51.559  1.00  0.00     0.032 A 
HETATM   14  C3  UNL     1      17.862  -0.547  51.719  1.00  0.00     0.039 A 
HETATM   15  C2  UNL     1      17.897  -1.371  52.820  1.00  0.00     0.068 A 
HETATM   16  C20 UNL     1      18.928  -1.236  53.706  1.00  0.00     0.039 A 
HETATM   17  C19 UNL     1      19.891  -0.284  53.466  1.00  0.00     0.032 A 
BRANCH  15  18
HETATM   18  O1  UNL     1      16.923  -2.317  53.039  1.00  0.00    -0.356 OA
HETATM   19  C1  UNL     1      17.225  -3.589  53.565  1.00  0.00     0.210 C 
ENDBRANCH  15  18
ENDBRANCH   1  12
BRANCH   9  20
HETATM   20  C13 UNL     1      24.826   1.736  52.556  1.00  0.00     0.099 C 
HETATM   21  C14 UNL     1      25.738   2.029  51.405  1.00  0.00     0.028 C 
HETATM   22  C15 UNL     1      27.106   2.086  52.056  1.00  0.00     0.034 C 
HETATM   23  C16 UNL     1      26.917   1.900  53.534  1.00  0.00     0.120 C 
HETATM   24  C17 UNL     1      25.486   2.372  53.742  1.00  0.00     0.057 C 
BRANCH  23  25
HETATM   25  O2  UNL     1      27.071   0.569  53.906  1.00  0.00    -0.396 OA
HETATM   26  H18 UNL     1      27.144   0.041  53.089  1.00  0.00     0.210 HD
ENDBRANCH  23  25
ENDBRANCH   9  20
BRANCH   6  27
HETATM   27  N3  UNL     1      24.748   6.676  51.436  1.00  0.00    -0.196 N 
HETATM   28  H9  UNL     1      25.172   7.034  52.298  1.00  0.00     0.183 HD
BRANCH  27  29
HETATM   29  C10 UNL     1      25.206   7.168  50.184  1.00  0.00     0.134 C 
HETATM   30  C11 UNL     1      25.895   6.300  49.461  1.00  0.00     0.418 C 
HETATM   31  F1  UNL     1      26.596   5.907  48.373  1.00  0.00    -0.429 F 
ENDBRANCH  27  29
ENDBRANCH   6  27
TORSDOF 6
ENDMDL
MODEL 8
REMARK VINA RESULT:      -7.6      7.742     11.466
REMARK  6 active torsions:
REMARK  status: ('A' for Active; 'I' for Inactive)
REMARK    1  A    between atoms: O1_2  and  C2_3 
REMARK    2  A    between atoms: C5_6  and  N1_7 
REMARK    3  A    between atoms: C9_12  and  N3_13 
REMARK    4  A    between atoms: N3_13  and  C10_14 
REMARK    5  A    between atoms: N5_19  and  C13_20 
REMARK    6  A    between atoms: C16_23  and  O2_24 
ROOT
HETATM    1  N1  UNL     1      29.935   7.099  47.525  1.00  0.00    -0.295 N 
HETATM    2  C6  UNL     1      30.289   8.142  46.622  1.00  0.00     0.178 A 
HETATM    3  C7  UNL     1      31.587   7.851  45.989  1.00  0.00     0.025 A 
HETATM    4  C8  UNL     1      31.930   8.869  45.113  1.00  0.00     0.149 A 
HETATM    5  N2  UNL     1      33.079   8.848  44.399  1.00  0.00    -0.074 NA
HETATM    6  C9  UNL     1      33.948   7.801  44.525  1.00  0.00     0.728 A 
HETATM    7  N4  UNL     1      33.611   6.810  45.381  1.00  0.00    -0.044 NA
HETATM    8  C12 UNL     1      32.485   6.822  46.086  1.00  0.00     0.162 A 
HETATM    9  N5  UNL     1      32.070   5.810  47.005  1.00  0.00    -0.278 N 
HETATM   10  C18 UNL     1      30.825   6.005  47.670  1.00  0.00     0.331 A 
HETATM   11  O3  UNL     1      30.571   5.056  48.445  1.00  0.00    -0.246 OA
ENDROOT
BRANCH   1  12
HETATM   12  C5  UNL     1      28.724   7.238  48.207  1.00  0.00     0.039 A 
HETATM   13  C4  UNL     1      27.664   6.368  48.277  1.00  0.00     0.032 A 
HETATM   14  C3  UNL     1      26.487   6.549  48.964  1.00  0.00     0.039 A 
HETATM   15  C2  UNL     1      26.313   7.717  49.670  1.00  0.00     0.068 A 
HETATM   16  C20 UNL     1      27.316   8.645  49.659  1.00  0.00     0.039 A 
HETATM   17  C19 UNL     1      28.460   8.378  48.944  1.00  0.00     0.032 A 
BRANCH  15  18
HETATM   18  O1  UNL     1      25.160   7.961  50.379  1.00  0.00    -0.356 OA
HETATM   19  C1  UNL     1      24.423   6.923  50.984  1.00  0.00     0.210 C 
ENDBRANCH  15  18
ENDBRANCH   1  12
BRANCH   9  20
HETATM   20  C13 UNL     1      32.926   4.676  47.197  1.00  0.00     0.099 C 
HETATM   21  C14 UNL     1      33.252   3.911  45.952  1.00  0.00     0.028 C 
HETATM   22  C15 UNL     1      34.533   3.189  46.318  1.00  0.00     0.034 C 
HETATM   23  C16 UNL     1      34.921   3.620  47.704  1.00  0.00     0.120 C 
HETATM   24  C17 UNL     1      34.254   4.982  47.821  1.00  0.00     0.057 C 
BRANCH  23  25
HETATM   25  O2  UNL     1      34.444   2.737  48.665  1.00  0.00    -0.396 OA
HETATM   26  H18 UNL     1      34.894   1.882  48.531  1.00  0.00     0.210 HD
ENDBRANCH  23  25
ENDBRANCH   9  20
BRANCH   6  27
HETATM   27  N3  UNL     1      35.173   7.701  43.812  1.00  0.00    -0.196 N 
HETATM   28  H9  UNL     1      36.031   7.970  44.304  1.00  0.00     0.183 HD
BRANCH  27  29
HETATM   29  C10 UNL     1      35.261   7.254  42.465  1.00  0.00     0.134 C 
HETATM   30  C11 UNL     1      36.392   6.641  42.153  1.00  0.00     0.418 C 
HETATM   31  F1  UNL     1      37.237   6.001  41.314  1.00  0.00    -0.429 F 
ENDBRANCH  27  29
ENDBRANCH   6  27
TORSDOF 6
ENDMDL
MODEL 9
REMARK VINA RESULT:      -7.5      5.769     10.491
REMARK  6 active torsions:
REMARK  status: ('A' for Active; 'I' for Inactive)
REMARK    1  A    between atoms: O1_2  and  C2_3 
REMARK    2  A    between atoms: C5_6  and  N1_7 
REMARK    3  A    between atoms: C9_12  and  N3_13 
REMARK    4  A    between atoms: N3_13  and  C10_14 
REMARK    5  A    between atoms: N5_19  and  C13_20 
REMARK    6  A    between atoms: C16_23  and  O2_24 
ROOT
HETATM    1  N1  UNL     1      27.638   6.210  48.678  1.00  0.00    -0.295 N 
HETATM    2  C6  UNL     1      28.714   5.425  48.174  1.00  0.00     0.178 A 
HETATM    3  C7  UNL     1      29.924   6.251  48.029  1.00  0.00     0.025 A 
HETATM    4  C8  UNL     1      30.970   5.486  47.536  1.00  0.00     0.149 A 
HETATM    5  N2  UNL     1      32.198   6.005  47.310  1.00  0.00    -0.074 NA
HETATM    6  C9  UNL     1      32.446   7.323  47.568  1.00  0.00     0.728 A 
HETATM    7  N4  UNL     1      31.425   8.068  48.048  1.00  0.00    -0.044 NA
HETATM    8  C12 UNL     1      30.215   7.567  48.273  1.00  0.00     0.162 A 
HETATM    9  N5  UNL     1      29.095   8.297  48.778  1.00  0.00    -0.278 N 
HETATM   10  C18 UNL     1      27.876   7.581  48.951  1.00  0.00     0.331 A 
HETATM   11  O3  UNL     1      26.972   8.323  49.397  1.00  0.00    -0.246 OA
ENDROOT
BRANCH   1  12
HETATM   12  C5  UNL     1      26.416   5.560  48.866  1.00  0.00     0.039 A 
HETATM   13  C4  UNL     1      25.147   5.998  48.576  1.00  0.00     0.032 A 
HETATM   14  C3  UNL     1      23.969   5.318  48.780  1.00  0.00     0.039 A 
HETATM   15  C2  UNL     1      24.025   4.060  49.333  1.00  0.00     0.068 A 
HETATM   16  C20 UNL     1      25.246   3.539  49.655  1.00  0.00     0.039 A 
HETATM   17  C19 UNL     1      26.373   4.291  49.415  1.00  0.00     0.032 A 
BRANCH  15  18
HETATM   18  O1  UNL     1      22.884   3.327  49.562  1.00  0.00    -0.356 OA
HETATM   19  C1  UNL     1      21.738   3.460  48.753  1.00  0.00     0.210 C 
ENDBRANCH  15  18
ENDBRANCH   1  12
BRANCH   9  20
HETATM   20  C13 UNL     1      29.270   9.688  49.075  1.00  0.00     0.099 C 
HETATM   21  C14 UNL     1      30.636  10.067  49.557  1.00  0.00     0.028 C 
HETATM   22  C15 UNL     1      30.711  11.549  49.251  1.00  0.00     0.034 C 
HETATM   23  C16 UNL     1      29.439  11.936  48.551  1.00  0.00     0.120 C 
HETATM   24  C17 UNL     1      28.993  10.620  47.933  1.00  0.00     0.057 C 
BRANCH  23  25
HETATM   25  O2  UNL     1      28.493  12.424  49.445  1.00  0.00    -0.396 OA
HETATM   26  H18 UNL     1      27.676  12.603  48.943  1.00  0.00     0.210 HD
ENDBRANCH  23  25
ENDBRANCH   9  20
BRANCH   6  27
HETATM   27  N3  UNL     1      33.707   7.945  47.360  1.00  0.00    -0.196 N 
HETATM   28  H9  UNL     1      33.897   8.331  46.429  1.00  0.00     0.183 HD
BRANCH  27  29
HETATM   29  C10 UNL     1      34.703   8.054  48.369  1.00  0.00     0.134 C 
HETATM   30  C11 UNL     1      35.377   6.941  48.611  1.00  0.00     0.418 C 
HETATM   31  F1  UNL     1      36.311   6.199  49.246  1.00  0.00    -0.429 F 
ENDBRANCH  27  29
ENDBRANCH   6  27
TORSDOF 6
ENDMDL
