MODEL 1
REMARK VINA RESULT:      -6.7      0.000      0.000
REMARK  10 active torsions:
REMARK  status: ('A' for Active; 'I' for Inactive)
REMARK    1  A    between atoms: O1_2  and  C2_3 
REMARK    2  A    between atoms: C2_3  and  C3_4 
REMARK    3  A    between atoms: C3_4  and  O2_5 
REMARK    4  A    between atoms: O2_5  and  C4_6 
REMARK    5  A    between atoms: C4_6  and  C5_7 
REMARK    6  A    between atoms: C8_12  and  N3_13 
REMARK    7  A    between atoms: C17_22  and  O3_23 
REMARK    8  A    between atoms: O3_23  and  C18_24 
REMARK    9  A    between atoms: C18_24  and  C19_25 
REMARK   10  A    between atoms: C19_25  and  O4_26 
ROOT
HETATM    1  C5  UNL     1      22.718   4.054  51.288  1.00  0.00     0.029 C 
HETATM    2  C6  UNL     1      23.551   3.040  51.466  1.00  0.00     0.066 C 
HETATM    3  N1  UNL     1      24.660   3.187  50.598  1.00  0.00    -0.244 NA
HETATM    4  C7  UNL     1      25.859   2.716  50.543  1.00  0.00     0.235 C 
HETATM    5  N2  UNL     1      26.601   1.830  51.345  1.00  0.00    -0.224 NA
HETATM    6  C8  UNL     1      26.481   1.263  52.480  1.00  0.00     0.131 C 
HETATM    7  C15 UNL     1      25.419   1.323  53.478  1.00  0.00     0.049 C 
HETATM    8  C16 UNL     1      24.118   1.650  53.440  1.00  0.00     0.015 C 
HETATM    9  C17 UNL     1      23.071   2.095  52.490  1.00  0.00     0.196 C 
ENDROOT
BRANCH   1  10
HETATM   10  C4  UNL     1      22.944   5.178  50.305  1.00  0.00     0.197 C 
BRANCH  10  11
HETATM   11  O2  UNL     1      23.077   6.346  50.995  1.00  0.00    -0.385 OA
BRANCH  11  12
HETATM   12  C3  UNL     1      24.325   6.830  51.221  1.00  0.00     0.194 C 
BRANCH  12  13
HETATM   13  C2  UNL     1      24.977   7.603  50.132  1.00  0.00     0.193 C 
BRANCH  13  14
HETATM   14  O1  UNL     1      26.270   7.202  49.939  1.00  0.00    -0.394 OA
HETATM   15  C1  UNL     1      26.389   6.147  49.035  1.00  0.00     0.201 C 
ENDBRANCH  13  14
ENDBRANCH  12  13
ENDBRANCH  11  12
ENDBRANCH  10  11
ENDBRANCH   1  10
BRANCH   9  16
HETATM   16  O3  UNL     1      22.457   0.966  51.898  1.00  0.00    -0.374 OA
BRANCH  16  17
HETATM   17  C18 UNL     1      21.196   0.884  52.465  1.00  0.00     0.195 C 
BRANCH  17  18
HETATM   18  C19 UNL     1      20.929  -0.420  53.175  1.00  0.00     0.193 C 
BRANCH  18  19
HETATM   19  O4  UNL     1      21.259  -0.215  54.513  1.00  0.00    -0.394 OA
HETATM   20  C20 UNL     1      22.220  -1.127  54.950  1.00  0.00     0.201 C 
ENDBRANCH  18  19
ENDBRANCH  17  18
ENDBRANCH  16  17
ENDBRANCH   9  16
BRANCH   6  21
HETATM   21  N3  UNL     1      27.559   0.417  52.858  1.00  0.00    -0.332 N 
HETATM   22  C9  UNL     1      27.420  -1.003  52.627  1.00  0.00     0.158 A 
HETATM   23  C10 UNL     1      28.644  -1.729  53.085  1.00  0.00    -0.007 A 
HETATM   24  C11 UNL     1      29.717  -1.149  53.632  1.00  0.00    -0.001 A 
HETATM   25  C12 UNL     1      29.704   0.299  53.798  1.00  0.00     0.024 A 
HETATM   26  C13 UNL     1      28.692   1.073  53.441  1.00  0.00     0.009 A 
HETATM   27  C14 UNL     1      28.724   2.543  53.631  1.00  0.00     0.068 C 
ENDBRANCH   6  21
TORSDOF 10
ENDMDL
MODEL 2
REMARK VINA RESULT:      -6.6      1.183      1.798
REMARK  10 active torsions:
REMARK  status: ('A' for Active; 'I' for Inactive)
REMARK    1  A    between atoms: O1_2  and  C2_3 
REMARK    2  A    between atoms: C2_3  and  C3_4 
REMARK    3  A    between atoms: C3_4  and  O2_5 
REMARK    4  A    between atoms: O2_5  and  C4_6 
REMARK    5  A    between atoms: C4_6  and  C5_7 
REMARK    6  A    between atoms: C8_12  and  N3_13 
REMARK    7  A    between atoms: C17_22  and  O3_23 
REMARK    8  A    between atoms: O3_23  and  C18_24 
REMARK    9  A    between atoms: C18_24  and  C19_25 
REMARK   10  A    between atoms: C19_25  and  O4_26 
ROOT
HETATM    1  C5  UNL     1      22.905   4.402  49.870  1.00  0.00     0.029 C 
HETATM    2  C6  UNL     1      23.721   3.508  50.406  1.00  0.00     0.066 C 
HETATM    3  N1  UNL     1      24.932   3.479  49.672  1.00  0.00    -0.244 NA
HETATM    4  C7  UNL     1      26.134   3.068  49.889  1.00  0.00     0.235 C 
HETATM    5  N2  UNL     1      26.778   2.453  50.978  1.00  0.00    -0.224 NA
HETATM    6  C8  UNL     1      26.518   2.191  52.199  1.00  0.00     0.131 C 
HETATM    7  C15 UNL     1      25.334   2.455  53.009  1.00  0.00     0.049 C 
HETATM    8  C16 UNL     1      24.045   2.700  52.728  1.00  0.00     0.015 C 
HETATM    9  C17 UNL     1      23.125   2.836  51.574  1.00  0.00     0.196 C 
ENDROOT
BRANCH   1  10
HETATM   10  C4  UNL     1      23.241   5.246  48.663  1.00  0.00     0.197 C 
BRANCH  10  11
HETATM   11  O2  UNL     1      22.901   6.539  48.922  1.00  0.00    -0.385 OA
BRANCH  11  12
HETATM   12  C3  UNL     1      22.803   6.941  50.216  1.00  0.00     0.194 C 
BRANCH  12  13
HETATM   13  C2  UNL     1      23.881   7.809  50.755  1.00  0.00     0.193 C 
BRANCH  13  14
HETATM   14  O1  UNL     1      25.059   7.125  50.878  1.00  0.00    -0.394 OA
HETATM   15  C1  UNL     1      26.086   7.655  50.098  1.00  0.00     0.201 C 
ENDBRANCH  13  14
ENDBRANCH  12  13
ENDBRANCH  11  12
ENDBRANCH  10  11
ENDBRANCH   1  10
BRANCH   9  16
HETATM   16  O3  UNL     1      22.609   1.565  51.226  1.00  0.00    -0.374 OA
BRANCH  16  17
HETATM   17  C18 UNL     1      21.908   1.127  52.338  1.00  0.00     0.195 C 
BRANCH  17  18
HETATM   18  C19 UNL     1      21.989  -0.362  52.565  1.00  0.00     0.193 C 
BRANCH  18  19
HETATM   19  O4  UNL     1      22.893  -0.552  53.608  1.00  0.00    -0.394 OA
HETATM   20  C20 UNL     1      22.261  -1.050  54.749  1.00  0.00     0.201 C 
ENDBRANCH  18  19
ENDBRANCH  17  18
ENDBRANCH  16  17
ENDBRANCH   9  16
BRANCH   6  21
HETATM   21  N3  UNL     1      27.550   1.522  52.914  1.00  0.00    -0.332 N 
HETATM   22  C9  UNL     1      28.520   2.330  53.616  1.00  0.00     0.158 A 
HETATM   23  C10 UNL     1      29.522   1.460  54.305  1.00  0.00    -0.007 A 
HETATM   24  C11 UNL     1      29.522   0.124  54.277  1.00  0.00    -0.001 A 
HETATM   25  C12 UNL     1      28.471  -0.546  53.521  1.00  0.00     0.024 A 
HETATM   26  C13 UNL     1      27.517   0.091  52.860  1.00  0.00     0.009 A 
HETATM   27  C14 UNL     1      26.468  -0.635  52.105  1.00  0.00     0.068 C 
ENDBRANCH   6  21
TORSDOF 10
ENDMDL
MODEL 3
REMARK VINA RESULT:      -6.5      2.164      5.990
REMARK  10 active torsions:
REMARK  status: ('A' for Active; 'I' for Inactive)
REMARK    1  A    between atoms: O1_2  and  C2_3 
REMARK    2  A    between atoms: C2_3  and  C3_4 
REMARK    3  A    between atoms: C3_4  and  O2_5 
REMARK    4  A    between atoms: O2_5  and  C4_6 
REMARK    5  A    between atoms: C4_6  and  C5_7 
REMARK    6  A    between atoms: C8_12  and  N3_13 
REMARK    7  A    between atoms: C17_22  and  O3_23 
REMARK    8  A    between atoms: O3_23  and  C18_24 
REMARK    9  A    between atoms: C18_24  and  C19_25 
REMARK   10  A    between atoms: C19_25  and  O4_26 
ROOT
HETATM    1  C5  UNL     1      21.301   1.298  52.077  1.00  0.00     0.029 C 
HETATM    2  C6  UNL     1      22.548   1.314  52.523  1.00  0.00     0.066 C 
HETATM    3  N1  UNL     1      22.723   0.272  53.466  1.00  0.00    -0.244 NA
HETATM    4  C7  UNL     1      23.727  -0.361  53.968  1.00  0.00     0.235 C 
HETATM    5  N2  UNL     1      25.120  -0.286  53.790  1.00  0.00    -0.224 NA
HETATM    6  C8  UNL     1      25.938   0.290  53.000  1.00  0.00     0.131 C 
HETATM    7  C15 UNL     1      25.715   1.180  51.866  1.00  0.00     0.049 C 
HETATM    8  C16 UNL     1      24.702   1.971  51.483  1.00  0.00     0.015 C 
HETATM    9  C17 UNL     1      23.346   2.391  51.911  1.00  0.00     0.196 C 
ENDROOT
BRANCH   1  10
HETATM   10  C4  UNL     1      20.251   0.308  52.523  1.00  0.00     0.197 C 
BRANCH  10  11
HETATM   11  O2  UNL     1      19.059   0.646  51.956  1.00  0.00    -0.385 OA
BRANCH  11  12
HETATM   12  C3  UNL     1      18.199  -0.345  51.607  1.00  0.00     0.194 C 
BRANCH  12  13
HETATM   13  C2  UNL     1      16.953  -0.494  52.403  1.00  0.00     0.193 C 
BRANCH  13  14
HETATM   14  O1  UNL     1      17.201  -1.076  53.616  1.00  0.00    -0.394 OA
HETATM   15  C1  UNL     1      17.763  -2.347  53.510  1.00  0.00     0.201 C 
ENDBRANCH  13  14
ENDBRANCH  12  13
ENDBRANCH  11  12
ENDBRANCH  10  11
ENDBRANCH   1  10
BRANCH   9  16
HETATM   16  O3  UNL     1      23.447   3.508  52.774  1.00  0.00    -0.374 OA
BRANCH  16  17
HETATM   17  C18 UNL     1      23.547   4.615  51.946  1.00  0.00     0.195 C 
BRANCH  17  18
HETATM   18  C19 UNL     1      22.224   5.273  51.644  1.00  0.00     0.193 C 
BRANCH  18  19
HETATM   19  O4  UNL     1      22.398   5.982  50.458  1.00  0.00    -0.394 OA
HETATM   20  C20 UNL     1      23.005   5.197  49.476  1.00  0.00     0.201 C 
ENDBRANCH  18  19
ENDBRANCH  17  18
ENDBRANCH  16  17
ENDBRANCH   9  16
BRANCH   6  21
HETATM   21  N3  UNL     1      27.314   0.034  53.251  1.00  0.00    -0.332 N 
HETATM   22  C9  UNL     1      28.114   1.106  53.799  1.00  0.00     0.158 A 
HETATM   23  C10 UNL     1      29.526   0.656  53.995  1.00  0.00    -0.007 A 
HETATM   24  C11 UNL     1      29.986  -0.565  53.704  1.00  0.00    -0.001 A 
HETATM   25  C12 UNL     1      29.051  -1.538  53.156  1.00  0.00     0.024 A 
HETATM   26  C13 UNL     1      27.772  -1.285  52.927  1.00  0.00     0.009 A 
HETATM   27  C14 UNL     1      26.858  -2.309  52.368  1.00  0.00     0.068 C 
ENDBRANCH   6  21
TORSDOF 10
ENDMDL
MODEL 4
REMARK VINA RESULT:      -6.4      2.229      5.813
REMARK  10 active torsions:
REMARK  status: ('A' for Active; 'I' for Inactive)
REMARK    1  A    between atoms: O1_2  and  C2_3 
REMARK    2  A    between atoms: C2_3  and  C3_4 
REMARK    3  A    between atoms: C3_4  and  O2_5 
REMARK    4  A    between atoms: O2_5  and  C4_6 
REMARK    5  A    between atoms: C4_6  and  C5_7 
REMARK    6  A    between atoms: C8_12  and  N3_13 
REMARK    7  A    between atoms: C17_22  and  O3_23 
REMARK    8  A    between atoms: O3_23  and  C18_24 
REMARK    9  A    between atoms: C18_24  and  C19_25 
REMARK   10  A    between atoms: C19_25  and  O4_26 
ROOT
HETATM    1  C5  UNL     1      21.399   1.119  51.998  1.00  0.00     0.029 C 
HETATM    2  C6  UNL     1      22.647   1.111  52.440  1.00  0.00     0.066 C 
HETATM    3  N1  UNL     1      22.800   0.074  53.393  1.00  0.00    -0.244 NA
HETATM    4  C7  UNL     1      23.791  -0.577  53.897  1.00  0.00     0.235 C 
HETATM    5  N2  UNL     1      25.185  -0.537  53.715  1.00  0.00    -0.224 NA
HETATM    6  C8  UNL     1      26.014   0.011  52.915  1.00  0.00     0.131 C 
HETATM    7  C15 UNL     1      25.808   0.895  51.773  1.00  0.00     0.049 C 
HETATM    8  C16 UNL     1      24.812   1.706  51.386  1.00  0.00     0.015 C 
HETATM    9  C17 UNL     1      23.468   2.162  51.814  1.00  0.00     0.196 C 
ENDROOT
BRANCH   1  10
HETATM   10  C4  UNL     1      20.327   0.159  52.458  1.00  0.00     0.197 C 
BRANCH  10  11
HETATM   11  O2  UNL     1      19.358   0.091  51.502  1.00  0.00    -0.385 OA
BRANCH  11  12
HETATM   12  C3  UNL     1      18.078   0.384  51.850  1.00  0.00     0.194 C 
BRANCH  12  13
HETATM   13  C2  UNL     1      17.185  -0.746  52.218  1.00  0.00     0.193 C 
BRANCH  13  14
HETATM   14  O1  UNL     1      17.361  -1.118  53.522  1.00  0.00    -0.394 OA
HETATM   15  C1  UNL     1      17.775  -2.441  53.665  1.00  0.00     0.201 C 
ENDBRANCH  13  14
ENDBRANCH  12  13
ENDBRANCH  11  12
ENDBRANCH  10  11
ENDBRANCH   1  10
BRANCH   9  16
HETATM   16  O3  UNL     1      23.598   3.285  52.666  1.00  0.00    -0.374 OA
BRANCH  16  17
HETATM   17  C18 UNL     1      23.501   4.395  51.841  1.00  0.00     0.195 C 
BRANCH  17  18
HETATM   18  C19 UNL     1      22.113   4.635  51.302  1.00  0.00     0.193 C 
BRANCH  18  19
HETATM   19  O4  UNL     1      21.782   5.947  51.636  1.00  0.00    -0.394 OA
HETATM   20  C20 UNL     1      22.001   6.818  50.568  1.00  0.00     0.201 C 
ENDBRANCH  18  19
ENDBRANCH  17  18
ENDBRANCH  16  17
ENDBRANCH   9  16
BRANCH   6  21
HETATM   21  N3  UNL     1      27.385  -0.275  53.165  1.00  0.00    -0.332 N 
HETATM   22  C9  UNL     1      27.843  -1.630  52.957  1.00  0.00     0.158 A 
HETATM   23  C10 UNL     1      29.301  -1.740  53.267  1.00  0.00    -0.007 A 
HETATM   24  C11 UNL     1      30.074  -0.730  53.679  1.00  0.00    -0.001 A 
HETATM   25  C12 UNL     1      29.460   0.581  53.840  1.00  0.00     0.024 A 
HETATM   26  C13 UNL     1      28.182   0.832  53.604  1.00  0.00     0.009 A 
HETATM   27  C14 UNL     1      27.601   2.185  53.783  1.00  0.00     0.068 C 
ENDBRANCH   6  21
TORSDOF 10
ENDMDL
MODEL 5
REMARK VINA RESULT:      -6.4      1.364      2.099
REMARK  10 active torsions:
REMARK  status: ('A' for Active; 'I' for Inactive)
REMARK    1  A    between atoms: O1_2  and  C2_3 
REMARK    2  A    between atoms: C2_3  and  C3_4 
REMARK    3  A    between atoms: C3_4  and  O2_5 
REMARK    4  A    between atoms: O2_5  and  C4_6 
REMARK    5  A    between atoms: C4_6  and  C5_7 
REMARK    6  A    between atoms: C8_12  and  N3_13 
REMARK    7  A    between atoms: C17_22  and  O3_23 
REMARK    8  A    between atoms: O3_23  and  C18_24 
REMARK    9  A    between atoms: C18_24  and  C19_25 
REMARK   10  A    between atoms: C19_25  and  O4_26 
ROOT
HETATM    1  C5  UNL     1      23.057   4.436  50.949  1.00  0.00     0.029 C 
HETATM    2  C6  UNL     1      23.821   3.374  51.152  1.00  0.00     0.066 C 
HETATM    3  N1  UNL     1      25.019   3.509  50.409  1.00  0.00    -0.244 NA
HETATM    4  C7  UNL     1      26.195   2.983  50.449  1.00  0.00     0.235 C 
HETATM    5  N2  UNL     1      26.811   2.021  51.270  1.00  0.00    -0.224 NA
HETATM    6  C8  UNL     1      26.549   1.403  52.354  1.00  0.00     0.131 C 
HETATM    7  C15 UNL     1      25.393   1.466  53.242  1.00  0.00     0.049 C 
HETATM    8  C16 UNL     1      24.119   1.858  53.093  1.00  0.00     0.015 C 
HETATM    9  C17 UNL     1      23.197   2.403  52.068  1.00  0.00     0.196 C 
ENDROOT
BRANCH   1  10
HETATM   10  C4  UNL     1      23.433   5.597  50.058  1.00  0.00     0.197 C 
BRANCH  10  11
HETATM   11  O2  UNL     1      22.998   6.752  50.634  1.00  0.00    -0.385 OA
BRANCH  11  12
HETATM   12  C3  UNL     1      21.679   6.876  50.933  1.00  0.00     0.194 C 
BRANCH  12  13
HETATM   13  C2  UNL     1      20.869   7.820  50.121  1.00  0.00     0.193 C 
BRANCH  13  14
HETATM   14  O1  UNL     1      20.221   7.175  49.103  1.00  0.00    -0.394 OA
HETATM   15  C1  UNL     1      19.537   6.036  49.524  1.00  0.00     0.201 C 
ENDBRANCH  13  14
ENDBRANCH  12  13
ENDBRANCH  11  12
ENDBRANCH  10  11
ENDBRANCH   1  10
BRANCH   9  16
HETATM   16  O3  UNL     1      22.598   1.338  51.355  1.00  0.00    -0.374 OA
BRANCH  16  17
HETATM   17  C18 UNL     1      22.019   0.523  52.315  1.00  0.00     0.195 C 
BRANCH  17  18
HETATM   18  C19 UNL     1      20.541   0.756  52.503  1.00  0.00     0.193 C 
BRANCH  18  19
HETATM   19  O4  UNL     1      20.164   0.014  53.621  1.00  0.00    -0.394 OA
HETATM   20  C20 UNL     1      21.172  -0.006  54.586  1.00  0.00     0.201 C 
ENDBRANCH  18  19
ENDBRANCH  17  18
ENDBRANCH  16  17
ENDBRANCH   9  16
BRANCH   6  21
HETATM   21  N3  UNL     1      27.544   0.486  52.791  1.00  0.00    -0.332 N 
HETATM   22  C9  UNL     1      27.322  -0.921  52.547  1.00  0.00     0.158 A 
HETATM   23  C10 UNL     1      28.466  -1.728  53.072  1.00  0.00    -0.007 A 
HETATM   24  C11 UNL     1      29.543  -1.222  53.682  1.00  0.00    -0.001 A 
HETATM   25  C12 UNL     1      29.618   0.223  53.852  1.00  0.00     0.024 A 
HETATM   26  C13 UNL     1      28.683   1.065  53.440  1.00  0.00     0.009 A 
HETATM   27  C14 UNL     1      28.804   2.529  53.636  1.00  0.00     0.068 C 
ENDBRANCH   6  21
TORSDOF 10
ENDMDL
MODEL 6
REMARK VINA RESULT:      -6.3      2.682      7.061
REMARK  10 active torsions:
REMARK  status: ('A' for Active; 'I' for Inactive)
REMARK    1  A    between atoms: O1_2  and  C2_3 
REMARK    2  A    between atoms: C2_3  and  C3_4 
REMARK    3  A    between atoms: C3_4  and  O2_5 
REMARK    4  A    between atoms: O2_5  and  C4_6 
REMARK    5  A    between atoms: C4_6  and  C5_7 
REMARK    6  A    between atoms: C8_12  and  N3_13 
REMARK    7  A    between atoms: C17_22  and  O3_23 
REMARK    8  A    between atoms: O3_23  and  C18_24 
REMARK    9  A    between atoms: C18_24  and  C19_25 
REMARK   10  A    between atoms: C19_25  and  O4_26 
ROOT
HETATM    1  C5  UNL     1      23.074  -0.570  53.691  1.00  0.00     0.029 C 
HETATM    2  C6  UNL     1      23.664   0.323  52.912  1.00  0.00     0.066 C 
HETATM    3  N1  UNL     1      22.820   0.619  51.814  1.00  0.00    -0.244 NA
HETATM    4  C7  UNL     1      22.722   1.574  50.955  1.00  0.00     0.235 C 
HETATM    5  N2  UNL     1      23.432   2.767  50.731  1.00  0.00    -0.224 NA
HETATM    6  C8  UNL     1      24.322   3.459  51.329  1.00  0.00     0.131 C 
HETATM    7  C15 UNL     1      25.009   3.251  52.599  1.00  0.00     0.049 C 
HETATM    8  C16 UNL     1      25.243   2.180  53.371  1.00  0.00     0.015 C 
HETATM    9  C17 UNL     1      24.989   0.720  53.421  1.00  0.00     0.196 C 
ENDROOT
BRANCH   1  10
HETATM   10  C4  UNL     1      21.710  -1.163  53.425  1.00  0.00     0.197 C 
BRANCH  10  11
HETATM   11  O2  UNL     1      20.794  -0.526  54.206  1.00  0.00    -0.385 OA
BRANCH  11  12
HETATM   12  C3  UNL     1      19.792   0.166  53.604  1.00  0.00     0.194 C 
BRANCH  12  13
HETATM   13  C2  UNL     1      18.757  -0.609  52.872  1.00  0.00     0.193 C 
BRANCH  13  14
HETATM   14  O1  UNL     1      17.866  -1.190  53.732  1.00  0.00    -0.394 OA
HETATM   15  C1  UNL     1      17.847  -2.581  53.645  1.00  0.00     0.201 C 
ENDBRANCH  13  14
ENDBRANCH  12  13
ENDBRANCH  11  12
ENDBRANCH  10  11
ENDBRANCH   1  10
BRANCH   9  16
HETATM   16  O3  UNL     1      26.025   0.036  52.742  1.00  0.00    -0.374 OA
BRANCH  16  17
HETATM   17  C18 UNL     1      26.832  -0.501  53.733  1.00  0.00     0.195 C 
BRANCH  17  18
HETATM   18  C19 UNL     1      28.304  -0.245  53.526  1.00  0.00     0.193 C 
BRANCH  18  19
HETATM   19  O4  UNL     1      28.684   0.676  54.500  1.00  0.00    -0.394 OA
HETATM   20  C20 UNL     1      28.951   1.928  53.944  1.00  0.00     0.201 C 
ENDBRANCH  18  19
ENDBRANCH  17  18
ENDBRANCH  16  17
ENDBRANCH   9  16
BRANCH   6  21
HETATM   21  N3  UNL     1      24.731   4.643  50.656  1.00  0.00    -0.332 N 
HETATM   22  C9  UNL     1      24.009   5.864  50.933  1.00  0.00     0.158 A 
HETATM   23  C10 UNL     1      24.576   6.996  50.139  1.00  0.00    -0.007 A 
HETATM   24  C11 UNL     1      25.604   6.897  49.292  1.00  0.00    -0.001 A 
HETATM   25  C12 UNL     1      26.228   5.591  49.122  1.00  0.00     0.024 A 
HETATM   26  C13 UNL     1      25.836   4.498  49.755  1.00  0.00     0.009 A 
HETATM   27  C14 UNL     1      26.503   3.190  49.549  1.00  0.00     0.068 C 
ENDBRANCH   6  21
TORSDOF 10
ENDMDL
MODEL 7
REMARK VINA RESULT:      -6.3      2.568      6.495
REMARK  10 active torsions:
REMARK  status: ('A' for Active; 'I' for Inactive)
REMARK    1  A    between atoms: O1_2  and  C2_3 
REMARK    2  A    between atoms: C2_3  and  C3_4 
REMARK    3  A    between atoms: C3_4  and  O2_5 
REMARK    4  A    between atoms: O2_5  and  C4_6 
REMARK    5  A    between atoms: C4_6  and  C5_7 
REMARK    6  A    between atoms: C8_12  and  N3_13 
REMARK    7  A    between atoms: C17_22  and  O3_23 
REMARK    8  A    between atoms: O3_23  and  C18_24 
REMARK    9  A    between atoms: C18_24  and  C19_25 
REMARK   10  A    between atoms: C19_25  and  O4_26 
ROOT
HETATM    1  C5  UNL     1      24.296  -0.404  53.420  1.00  0.00     0.029 C 
HETATM    2  C6  UNL     1      23.799   0.750  53.004  1.00  0.00     0.066 C 
HETATM    3  N1  UNL     1      24.555   1.813  53.556  1.00  0.00    -0.244 NA
HETATM    4  C7  UNL     1      24.731   3.060  53.283  1.00  0.00     0.235 C 
HETATM    5  N2  UNL     1      24.234   3.926  52.293  1.00  0.00    -0.224 NA
HETATM    6  C8  UNL     1      23.561   3.834  51.214  1.00  0.00     0.131 C 
HETATM    7  C15 UNL     1      22.994   2.677  50.530  1.00  0.00     0.049 C 
HETATM    8  C16 UNL     1      22.653   1.437  50.915  1.00  0.00     0.015 C 
HETATM    9  C17 UNL     1      22.636   0.570  52.117  1.00  0.00     0.196 C 
ENDROOT
BRANCH   1  10
HETATM   10  C4  UNL     1      25.488  -0.536  54.339  1.00  0.00     0.197 C 
BRANCH  10  11
HETATM   11  O2  UNL     1      26.542  -1.024  53.627  1.00  0.00    -0.385 OA
BRANCH  11  12
HETATM   12  C3  UNL     1      27.680  -0.286  53.558  1.00  0.00     0.194 C 
BRANCH  12  13
HETATM   13  C2  UNL     1      28.289   0.169  54.835  1.00  0.00     0.193 C 
BRANCH  13  14
HETATM   14  O1  UNL     1      28.832   1.418  54.712  1.00  0.00    -0.394 OA
HETATM   15  C1  UNL     1      28.360   2.115  53.602  1.00  0.00     0.201 C 
ENDBRANCH  13  14
ENDBRANCH  12  13
ENDBRANCH  11  12
ENDBRANCH  10  11
ENDBRANCH   1  10
BRANCH   9  16
HETATM   16  O3  UNL     1      21.422   0.757  52.818  1.00  0.00    -0.374 OA
BRANCH  16  17
HETATM   17  C18 UNL     1      20.419   0.377  51.941  1.00  0.00     0.195 C 
BRANCH  17  18
HETATM   18  C19 UNL     1      19.200   1.265  51.986  1.00  0.00     0.193 C 
BRANCH  18  19
HETATM   19  O4  UNL     1      19.628   2.497  52.475  1.00  0.00    -0.394 OA
HETATM   20  C20 UNL     1      19.315   3.534  51.595  1.00  0.00     0.201 C 
ENDBRANCH  18  19
ENDBRANCH  17  18
ENDBRANCH  16  17
ENDBRANCH   9  16
BRANCH   6  21
HETATM   21  N3  UNL     1      23.306   5.062  50.545  1.00  0.00    -0.332 N 
HETATM   22  C9  UNL     1      22.120   5.801  50.913  1.00  0.00     0.158 A 
HETATM   23  C10 UNL     1      22.018   7.058  50.110  1.00  0.00    -0.007 A 
HETATM   24  C11 UNL     1      22.898   7.445  49.182  1.00  0.00    -0.001 A 
HETATM   25  C12 UNL     1      24.047   6.587  48.926  1.00  0.00     0.024 A 
HETATM   26  C13 UNL     1      24.271   5.446  49.557  1.00  0.00     0.009 A 
HETATM   27  C14 UNL     1      25.456   4.605  49.262  1.00  0.00     0.068 C 
ENDBRANCH   6  21
TORSDOF 10
ENDMDL
MODEL 8
REMARK VINA RESULT:      -6.2      2.699      6.554
REMARK  10 active torsions:
REMARK  status: ('A' for Active; 'I' for Inactive)
REMARK    1  A    between atoms: O1_2  and  C2_3 
REMARK    2  A    between atoms: C2_3  and  C3_4 
REMARK    3  A    between atoms: C3_4  and  O2_5 
REMARK    4  A    between atoms: O2_5  and  C4_6 
REMARK    5  A    between atoms: C4_6  and  C5_7 
REMARK    6  A    between atoms: C8_12  and  N3_13 
REMARK    7  A    between atoms: C17_22  and  O3_23 
REMARK    8  A    between atoms: O3_23  and  C18_24 
REMARK    9  A    between atoms: C18_24  and  C19_25 
REMARK   10  A    between atoms: C19_25  and  O4_26 
ROOT
HETATM    1  C5  UNL     1      21.441   1.006  52.427  1.00  0.00     0.029 C 
HETATM    2  C6  UNL     1      22.522   1.488  51.834  1.00  0.00     0.066 C 
HETATM    3  N1  UNL     1      22.304   1.548  50.436  1.00  0.00    -0.244 NA
HETATM    4  C7  UNL     1      22.835   2.177  49.445  1.00  0.00     0.235 C 
HETATM    5  N2  UNL     1      23.890   3.099  49.321  1.00  0.00    -0.224 NA
HETATM    6  C8  UNL     1      24.632   3.789  50.094  1.00  0.00     0.131 C 
HETATM    7  C15 UNL     1      24.671   3.893  51.549  1.00  0.00     0.049 C 
HETATM    8  C16 UNL     1      24.259   3.106  52.554  1.00  0.00     0.015 C 
HETATM    9  C17 UNL     1      23.593   1.804  52.796  1.00  0.00     0.196 C 
ENDROOT
BRANCH   1  10
HETATM   10  C4  UNL     1      20.184   0.593  51.698  1.00  0.00     0.197 C 
BRANCH  10  11
HETATM   11  O2  UNL     1      19.605  -0.441  52.371  1.00  0.00    -0.385 OA
BRANCH  11  12
HETATM   12  C3  UNL     1      19.835  -0.561  53.704  1.00  0.00     0.194 C 
BRANCH  12  13
HETATM   13  C2  UNL     1      20.883  -1.518  54.143  1.00  0.00     0.193 C 
BRANCH  13  14
HETATM   14  O1  UNL     1      21.582  -1.036  55.216  1.00  0.00    -0.394 OA
HETATM   15  C1  UNL     1      22.934  -1.376  55.188  1.00  0.00     0.201 C 
ENDBRANCH  13  14
ENDBRANCH  12  13
ENDBRANCH  11  12
ENDBRANCH  10  11
ENDBRANCH   1  10
BRANCH   9  16
HETATM   16  O3  UNL     1      24.564   0.776  52.839  1.00  0.00    -0.374 OA
BRANCH  16  17
HETATM   17  C18 UNL     1      25.572   1.245  53.665  1.00  0.00     0.195 C 
BRANCH  17  18
HETATM   18  C19 UNL     1      26.498   0.167  54.171  1.00  0.00     0.193 C 
BRANCH  18  19
HETATM   19  O4  UNL     1      27.794   0.601  53.897  1.00  0.00    -0.394 OA
HETATM   20  C20 UNL     1      28.719   0.042  54.781  1.00  0.00     0.201 C 
ENDBRANCH  18  19
ENDBRANCH  17  18
ENDBRANCH  16  17
ENDBRANCH   9  16
BRANCH   6  21
HETATM   21  N3  UNL     1      25.598   4.607  49.446  1.00  0.00    -0.332 N 
HETATM   22  C9  UNL     1      26.932   4.076  49.278  1.00  0.00     0.158 A 
HETATM   23  C10 UNL     1      27.804   5.070  48.581  1.00  0.00    -0.007 A 
HETATM   24  C11 UNL     1      27.410   6.279  48.172  1.00  0.00    -0.001 A 
HETATM   25  C12 UNL     1      26.027   6.669  48.416  1.00  0.00     0.024 A 
HETATM   26  C13 UNL     1      25.139   5.896  49.021  1.00  0.00     0.009 A 
HETATM   27  C14 UNL     1      23.742   6.337  49.248  1.00  0.00     0.068 C 
ENDBRANCH   6  21
TORSDOF 10
ENDMDL
MODEL 9
REMARK VINA RESULT:      -6.1      3.100      7.591
REMARK  10 active torsions:
REMARK  status: ('A' for Active; 'I' for Inactive)
REMARK    1  A    between atoms: O1_2  and  C2_3 
REMARK    2  A    between atoms: C2_3  and  C3_4 
REMARK    3  A    between atoms: C3_4  and  O2_5 
REMARK    4  A    between atoms: O2_5  and  C4_6 
REMARK    5  A    between atoms: C4_6  and  C5_7 
REMARK    6  A    between atoms: C8_12  and  N3_13 
REMARK    7  A    between atoms: C17_22  and  O3_23 
REMARK    8  A    between atoms: O3_23  and  C18_24 
REMARK    9  A    between atoms: C18_24  and  C19_25 
REMARK   10  A    between atoms: C19_25  and  O4_26 
ROOT
HETATM    1  C5  UNL     1      25.666   1.924  53.433  1.00  0.00     0.029 C 
HETATM    2  C6  UNL     1      24.535   1.526  52.873  1.00  0.00     0.066 C 
HETATM    3  N1  UNL     1      24.332   0.152  53.152  1.00  0.00    -0.244 NA
HETATM    4  C7  UNL     1      23.326  -0.654  53.140  1.00  0.00     0.235 C 
HETATM    5  N2  UNL     1      21.960  -0.511  52.838  1.00  0.00    -0.224 NA
HETATM    6  C8  UNL     1      21.141   0.438  52.608  1.00  0.00     0.131 C 
HETATM    7  C15 UNL     1      21.332   1.884  52.567  1.00  0.00     0.049 C 
HETATM    8  C16 UNL     1      22.395   2.683  52.388  1.00  0.00     0.015 C 
HETATM    9  C17 UNL     1      23.856   2.615  52.148  1.00  0.00     0.196 C 
ENDROOT
BRANCH   1  10
HETATM   10  C4  UNL     1      26.578   1.030  54.240  1.00  0.00     0.197 C 
BRANCH  10  11
HETATM   11  O2  UNL     1      27.818   1.593  54.287  1.00  0.00    -0.385 OA
BRANCH  11  12
HETATM   12  C3  UNL     1      28.865   0.830  54.694  1.00  0.00     0.194 C 
BRANCH  12  13
HETATM   13  C2  UNL     1      29.700   0.183  53.649  1.00  0.00     0.193 C 
BRANCH  13  14
HETATM   14  O1  UNL     1      29.935  -1.133  53.941  1.00  0.00    -0.394 OA
HETATM   15  C1  UNL     1      29.157  -2.010  53.187  1.00  0.00     0.201 C 
ENDBRANCH  13  14
ENDBRANCH  12  13
ENDBRANCH  11  12
ENDBRANCH  10  11
ENDBRANCH   1  10
BRANCH   9  16
HETATM   16  O3  UNL     1      24.105   2.538  50.757  1.00  0.00    -0.374 OA
BRANCH  16  17
HETATM   17  C18 UNL     1      23.654   3.737  50.228  1.00  0.00     0.195 C 
BRANCH  17  18
HETATM   18  C19 UNL     1      24.699   4.488  49.442  1.00  0.00     0.193 C 
BRANCH  18  19
HETATM   19  O4  UNL     1      25.270   5.406  50.321  1.00  0.00    -0.394 OA
HETATM   20  C20 UNL     1      24.315   6.280  50.841  1.00  0.00     0.201 C 
ENDBRANCH  18  19
ENDBRANCH  17  18
ENDBRANCH  16  17
ENDBRANCH   9  16
BRANCH   6  21
HETATM   21  N3  UNL     1      19.802   0.041  52.340  1.00  0.00    -0.332 N 
HETATM   22  C9  UNL     1      19.074  -0.637  53.389  1.00  0.00     0.158 A 
HETATM   23  C10 UNL     1      17.693  -0.976  52.929  1.00  0.00    -0.007 A 
HETATM   24  C11 UNL     1      17.199  -0.695  51.720  1.00  0.00    -0.001 A 
HETATM   25  C12 UNL     1      18.062  -0.004  50.771  1.00  0.00     0.024 A 
HETATM   26  C13 UNL     1      19.307   0.359  51.034  1.00  0.00     0.009 A 
HETATM   27  C14 UNL     1      20.147   1.061  50.034  1.00  0.00     0.068 C 
ENDBRANCH   6  21
TORSDOF 10
ENDMDL
